data_image0
_chemical_formula_structural       HSCHSH7SCH2SH8CHC2H2CFeCHCH3S2H4C2H3SH3SFeC2HS2H6CSCH2CH2CH4CHCH4NFeCHSH4C4HCH3CHCH3C3HC2HFeCH2FeCH3SH2CHNH2CS2HCSCN2FeCHC2HSHSHFeC2H2C3FeH2FeNH3CHCSHCSH3C2H2SH2S2C2HSHC2HC2H4CHCSHNC3HC2H3CFeHC2SH4C2FeCHCFeCHC2HFeHCH3FeSH3CHNCHCH2C2HCH2C2H3FeHS2CH5CFeH3C3H2FeH4CHC2H2C2FeHC2SFeHCH2CH2SHC2HC2NH2C3SFeC2H2CH2CHNCFeSH3SCH2CH4CHC2HCSCHC2H3C2HFeS2H5CSHFeCHS2CHCHNHCHCH3C2SCH3CH2CH2C2H2CSHCHNHC2H2C2HCHCH2CH3C2HCSH2SCHSHCH3C4H2CH6CH6C2H2CNHC2H8CHCHCFeHCHCH2FeSH2CHNH2C3H2CHCH3C4H10S2CHSH2CHFeCH2CHC2HCH2S2H2FeHCHCSHCH3CFeH2CSH2CNC2H2CHSHSH2FeHC2HCNH2C3HCHC2H8SCH4SFeH3CH3FeHCH2CSH2CH3CHC4FeH3SCHFeHCHCHCSC2S2NH2S2HCSC2H4C4H3SCHC2FeH3FeCSH5C2H4SFeH4CH5C2H2C2FeCH2SFeCNFeSH2CHC3H3FeHCHC4H4CHCH2NS2CHCH2CH2FeCH2CH3CSHFeHCHC2SHCHCH2CS2H4SC4H2CH3NCH5FeC3HC2S2HSHCSCH2CHCFeH3CSCHCHCH5CHCHCH3CH2SC3H3C2HC2NC2HFeC3H2S2CH2CH2C2SFeHC4H3NH2C2HCHS2H6CHSH2CHCH3FeHC2HFeH4CHFeHCSCH2SH2NCH3C2HCH2FeH2CHC3H3FeCHCSH3CHC2HCHCHFeCHC2H2SC2H3SH3CH3CH2CHNFeHFeH4CHCH2CH7C2HSCH3NHS2HC2H3CFeH2SHCHSCHSHSH2C2H4CHSH9CH2CSH2CH3C2HCHCSCHSHFeCHCHNH7CSC2H3SC3SH3CH2CH2SCH2CSHFeCHFeSCH2C3HC2H3CH2CFeH6SCHC3H6C2HFeHCHCSHC2HFeHC3H3C2HCNH2SHCH5SHCH7C2FeH3CHSH2SC2FeC2HCH6CHCHC2H4SH3CHCNHC2HCH5C2H4SCH2SNHSNCH2CHC2HSCHCH2C3H2CSHC2H2C2HFeCH3CH7SH3CHCH5SCFeHCHCH2CHC2HCH2CHC2H2CHCH4CHS2HC3HSHSHCH2SCHSH2CH3CHCHCHC3NHC3H2CH2CHCHSCHCH2FeHC2HFe2H2C2H2SFeHCHSHFeHCHSCH2NH3SCHCNSCHSC2HC3S2CH2CHCH3CH2C2H4CH4CSH2CH2SC2HSHC2HNH2CNHSH8CH3CHC4H5FeSHNCH4NHCHFeCH5FeCHSCHCHSH5C2H2CHCSHC2H6FeH3CSC2HFeCH3SCHSNCH2CHCH2CH2CH2CHC2H2CFeSC3HCSNHCHC2H2CH3CHCH4SH3SHCHSC2NHCH3CSCH3SHFeHC2H5CH2CHC2H5CN2H2C2HC2SH2FeH4C3HCH8FeCHSHC2H4CH3CH2SH3C2H5CH3CH2CHC2HCHC4H2CH3SCH5CH3CHCH2CH2FeSC4H3C2HSH2C2HFeCH5FeCH2CH4CSHC2SCH6C2HCSHCHCHC2H3CHSHCH3SH3SH3FeC2HCFeH2NCHC2S2HC2HSH2CHC3H3SFeC2H3NHSC2HCH7CHFeHSHSC2NC3HSHSFeSH6SCH3C2HCH5SCHCH5CH4FeHFeH7C2HC2H2CFeHC3NHCH2CH4SCSC2H4C2HFeCH2C3NC2HFeHCH5FeCH6CH3SCH5C2HC2Fe3CH2CS2H7CH5SCHCH3C3H2CHSHSHCH2CH2FeC2FeHCH2CH3C3H4SHCHSHCH6SH2CH4FeCH8FeH7NH3CHC2NHCHC2FeHFeHCH2C2H2C2H2SC2H3CH2S2CSCHCHCH6NH3CH2SHC2HNHCH5FeCSH2CHC2HSCSH6C2HCH2C2H3CHC2H2SHCHC2HCHC2FeC2S2CH2CH3CHSHC2H2CHC2SHCHCH2CH2SHCNCH2CSC2HSCHNHCH2CHCH2SH2CH2CH5NCSCSFeH2CFeHCHCSCSH4SHCH4CH3CHCHC2H3C2HSHNH9C2HC2FeH2CHC2SH2CHNHS2H2CH2CH5CHC2HSH3C2H2CH2FeC2H2CHSHCH6CHNHCHC2H2CH5CHCHCSHCHSHCSHSHCFeHCFeH2SCH2SCHCHCH2C2H4C2H2C2HFeH2FeH3SHCFeCH6CSCSCHC2H2CFeCSC2S2HSCH2SHC2FeCH2C2NFeH3CFeC2FeCSH2SFeSCH4CSCHSCHCH2CNCH3CHCHSC2FeHCH4C3H2C2NHC2SH2FeNCHCHC2SHC5S2CH3CH4CH2C2H3CH2C2HSH6FeHSHFeCHSCH4CH7FeCHFeCH2C2HCSFeCH3CNH3SHC2HFeH2FeH2NC2H2SHCSH2CH5CHSHCH2C2H2CSC3H3FeHSHCH2C3HC2HC2HC2S2HNH5CH3NCSH4CSCHFeH4SC2FeH2CHCHCHCHCHCH8C2H7CHFeCHC2NCHSCSCH2CH3SH2C2HFeH2SHC2H3C2HSH2CH3SHNC2H3C2FeHFeCHC3H2CH2SH5CH2FeHFeCHCHSCHCHCSH2CNCHC2H4SH4C2HFeH2SCHCSC2HS3H4CHCSH3SH5CHFeSH5CH2CHNSH6C2H2CH3NHC2H4NH2C4SC2H5SC2H4CSHCHCFeHFeH5CSHC3H4C4HC2SHCHCHFeHNH2C3HCSH4CFeCHNCHSCHC3HCHCSHC3HSHCH2CH3CH2CFeHC2H3C2H4
_chemical_formula_sum              "H1728 S288 C1008 Fe144 N72"
_cell_length_a       31.0995
_cell_length_b       32.3772
_cell_length_c       38.8279
_cell_angle_alpha    82.2223
_cell_angle_beta     88.0649
_cell_angle_gamma    88.1389

_space_group_name_H-M_alt    "P 1"
_space_group_IT_number       1

loop_
  _space_group_symop_operation_xyz
  'x, y, z'

loop_
  _atom_site_type_symbol
  _atom_site_label
  _atom_site_symmetry_multiplicity
  _atom_site_fract_x
  _atom_site_fract_y
  _atom_site_fract_z
  _atom_site_occupancy
  H   H1        1.0  0.36204  0.59120  0.13951  1.0000
  S   S1        1.0  0.70789  0.48290  0.49765  1.0000
  C   C1        1.0  0.62967  0.52652  0.26113  1.0000
  H   H2        1.0  0.81676  0.40526  0.11250  1.0000
  S   S2        1.0  0.66249  0.53952  0.12993  1.0000
  H   H3        1.0  0.70227  0.33590  0.31120  1.0000
  H   H4        1.0  0.53984  0.58194  0.07368  1.0000
  H   H5        1.0  0.78595  0.40873  0.31074  1.0000
  H   H6        1.0  0.36272  0.43230  0.05343  1.0000
  H   H7        1.0  0.52899  0.51542  0.40687  1.0000
  H   H8        1.0  0.83348  0.63555  0.08750  1.0000
  H   H9        1.0  0.47899  0.49962  0.18899  1.0000
  S   S3        1.0  0.37263  0.38774  0.18321  1.0000
  C   C2        1.0  0.67150  0.55828  0.30156  1.0000
  H   H10       1.0  0.72291  0.36586  0.15093  1.0000
  H   H11       1.0  0.53043  0.40532  0.47665  1.0000
  S   S4        1.0  0.73470  0.48126  0.17594  1.0000
  H   H12       1.0  0.79983  0.48324  0.06773  1.0000
  H   H13       1.0  0.74779  0.62669  0.48993  1.0000
  H   H14       1.0  0.75780  0.45480  0.26177  1.0000
  H   H15       1.0  0.78488  0.56523  0.24584  1.0000
  H   H16       1.0  0.66973  0.40588  0.04523  1.0000
  H   H17       1.0  0.80293  0.35687  0.43974  1.0000
  H   H18       1.0  0.48716  0.57019  0.43261  1.0000
  H   H19       1.0  0.50850  0.56669  0.50787  1.0000
  C   C3        1.0  0.61965  0.35644  0.40568  1.0000
  H   H20       1.0  0.78735  0.41254  0.24641  1.0000
  C   C4        1.0  0.51854  0.58455  0.43586  1.0000
  C   C5        1.0  0.44001  0.50144  0.38820  1.0000
  H   H21       1.0  0.47766  0.50222  0.34047  1.0000
  H   H22       1.0  0.61417  0.54462  0.47065  1.0000
  C   C6        1.0  0.83289  0.49154  0.05868  1.0000
  Fe  Fe1       1.0  0.72132  0.50089  0.11996  1.0000
  C   C7        1.0  0.48787  0.35397  0.03423  1.0000
  H   H23       1.0  0.59868  0.63324  0.27056  1.0000
  C   C8        1.0  0.76798  0.41179  0.45028  1.0000
  H   H24       1.0  0.69875  0.53102  0.25780  1.0000
  H   H25       1.0  0.57870  0.40659  0.38197  1.0000
  H   H26       1.0  0.54538  0.34968  0.20088  1.0000
  S   S5        1.0  0.51067  0.37194  0.06990  1.0000
  S   S6        1.0  0.71961  0.44841  0.08857  1.0000
  H   H27       1.0  0.72269  0.46343  0.32563  1.0000
  H   H28       1.0  0.49300  0.55408  0.18110  1.0000
  H   H29       1.0  0.38994  0.58630  0.41607  1.0000
  H   H30       1.0  0.72501  0.52634  0.04228  1.0000
  C   C9        1.0  0.49978  0.41475  0.46355  1.0000
  C   C10       1.0  0.84344  0.63274  0.11481  1.0000
  H   H31       1.0  0.40118  0.40453  0.48816  1.0000
  H   H32       1.0  0.70073  0.34162  0.19231  1.0000
  H   H33       1.0  0.57102  0.50107  0.11746  1.0000
  S   S7        1.0  0.41897  0.59998  0.48933  1.0000
  H   H34       1.0  0.55953  0.38123  0.14222  1.0000
  H   H35       1.0  0.45811  0.39517  0.42583  1.0000
  H   H36       1.0  0.64524  0.48017  0.33302  1.0000
  S   S8        1.0  0.39058  0.36611  0.10362  1.0000
  Fe  Fe2       1.0  0.37723  0.42299  0.12952  1.0000
  C   C11       1.0  0.39961  0.37359  0.47897  1.0000
  C   C12       1.0  0.67585  0.43673  0.03178  1.0000
  H   H37       1.0  0.70146  0.38476  0.37551  1.0000
  S   S9        1.0  0.38296  0.38140  0.37265  1.0000
  S   S10       1.0  0.72069  0.57938  0.18624  1.0000
  H   H38       1.0  0.56111  0.52614  0.27160  1.0000
  H   H39       1.0  0.57444  0.61230  0.22021  1.0000
  H   H40       1.0  0.69461  0.60498  0.05300  1.0000
  H   H41       1.0  0.66808  0.42099  0.14603  1.0000
  H   H42       1.0  0.72601  0.39048  0.18910  1.0000
  H   H43       1.0  0.57384  0.41487  0.20004  1.0000
  C   C13       1.0  0.85338  0.48072  0.25479  1.0000
  S   S11       1.0  0.69453  0.65798  0.10836  1.0000
  C   C14       1.0  0.66204  0.39516  0.16741  1.0000
  H   H44       1.0  0.69288  0.45459  0.28986  1.0000
  H   H45       1.0  0.59671  0.41704  0.12165  1.0000
  C   C15       1.0  0.83166  0.41290  0.16531  1.0000
  H   H46       1.0  0.56137  0.62552  0.40033  1.0000
  H   H47       1.0  0.55813  0.49344  0.48109  1.0000
  C   C16       1.0  0.73026  0.38643  0.35785  1.0000
  H   H48       1.0  0.40761  0.52802  0.29144  1.0000
  H   H49       1.0  0.76789  0.36345  0.29508  1.0000
  H   H50       1.0  0.44530  0.50889  0.03704  1.0000
  H   H51       1.0  0.62826  0.59918  0.20502  1.0000
  C   C17       1.0  0.42695  0.58702  0.36792  1.0000
  H   H52       1.0  0.73999  0.40009  0.43786  1.0000
  C   C18       1.0  0.69913  0.44184  0.31716  1.0000
  H   H53       1.0  0.66128  0.36049  0.33339  1.0000
  H   H54       1.0  0.42808  0.38852  0.03844  1.0000
  H   H55       1.0  0.51189  0.37688  0.42316  1.0000
  H   H56       1.0  0.51434  0.51417  0.11201  1.0000
  N   N1        1.0  0.55332  0.53135  0.04308  1.0000
  Fe  Fe3       1.0  0.45955  0.37891  0.11055  1.0000
  C   C19       1.0  0.45167  0.56329  0.34654  1.0000
  H   H57       1.0  0.70219  0.56718  0.30997  1.0000
  S   S12       1.0  0.44648  0.43864  0.13234  1.0000
  H   H58       1.0  0.65994  0.43984  0.36602  1.0000
  H   H59       1.0  0.66579  0.62051  0.24664  1.0000
  H   H60       1.0  0.60095  0.48072  0.39362  1.0000
  H   H61       1.0  0.41486  0.59690  0.18283  1.0000
  C   C20       1.0  0.69908  0.46474  0.04759  1.0000
  C   C21       1.0  0.57026  0.34984  0.35997  1.0000
  C   C22       1.0  0.64088  0.34666  0.12862  1.0000
  C   C23       1.0  0.85392  0.44325  0.45704  1.0000
  H   H62       1.0  0.40949  0.48261  0.19213  1.0000
  C   C24       1.0  0.53558  0.52064  0.47524  1.0000
  H   H63       1.0  0.55048  0.46886  0.07254  1.0000
  H   H64       1.0  0.48259  0.48333  0.06593  1.0000
  H   H65       1.0  0.63056  0.42864  0.32878  1.0000
  C   C25       1.0  0.39587  0.37186  0.30415  1.0000
  H   H66       1.0  0.51228  0.60409  0.45694  1.0000
  C   C26       1.0  0.48512  0.38140  0.44212  1.0000
  H   H67       1.0  0.45985  0.53354  0.07373  1.0000
  H   H68       1.0  0.54203  0.44248  0.16617  1.0000
  H   H69       1.0  0.50569  0.64227  0.40125  1.0000
  C   C27       1.0  0.41715  0.38008  0.27166  1.0000
  C   C28       1.0  0.59474  0.56868  0.45413  1.0000
  C   C29       1.0  0.68887  0.63707  0.04187  1.0000
  H   H70       1.0  0.85124  0.45985  0.43002  1.0000
  C   C30       1.0  0.61465  0.33831  0.19054  1.0000
  C   C31       1.0  0.55877  0.55196  0.07533  1.0000
  H   H71       1.0  0.83852  0.43764  0.18134  1.0000
  Fe  Fe4       1.0  0.77229  0.60252  0.41855  1.0000
  C   C32       1.0  0.44559  0.36569  0.02527  1.0000
  H   H72       1.0  0.57231  0.60520  0.49657  1.0000
  H   H73       1.0  0.54840  0.54746  0.13127  1.0000
  Fe  Fe5       1.0  0.66126  0.34434  0.48141  1.0000
  C   C33       1.0  0.46821  0.42194  0.29622  1.0000
  H   H74       1.0  0.76793  0.44595  0.44218  1.0000
  H   H75       1.0  0.40566  0.47357  0.23779  1.0000
  H   H76       1.0  0.50458  0.50803  0.46822  1.0000
  S   S13       1.0  0.70389  0.59236  0.43604  1.0000
  H   H77       1.0  0.81407  0.40196  0.40950  1.0000
  H   H78       1.0  0.75945  0.33853  0.39504  1.0000
  C   C34       1.0  0.58862  0.37417  0.38249  1.0000
  H   H79       1.0  0.47489  0.42287  0.48277  1.0000
  N   N2        1.0  0.55262  0.55112  0.44547  1.0000
  H   H80       1.0  0.85605  0.59260  0.51071  1.0000
  H   H81       1.0  0.42421  0.55154  0.16191  1.0000
  C   C35       1.0  0.59252  0.60831  0.47249  1.0000
  S   S14       1.0  0.63585  0.59661  0.35452  1.0000
  S   S15       1.0  0.39439  0.50047  0.44927  1.0000
  H   H82       1.0  0.65083  0.36970  0.10594  1.0000
  C   C36       1.0  0.55988  0.52739  0.41472  1.0000
  S   S16       1.0  0.47490  0.58593  0.30691  1.0000
  C   C37       1.0  0.84552  0.37426  0.49344  1.0000
  N   N3        1.0  0.47329  0.34030  0.46268  1.0000
  N   N4        1.0  0.40558  0.53885  0.21659  1.0000
  Fe  Fe6       1.0  0.37657  0.54612  0.48614  1.0000
  C   C38       1.0  0.59197  0.53511  0.27985  1.0000
  H   H83       1.0  0.78684  0.34427  0.35356  1.0000
  C   C39       1.0  0.59392  0.55655  0.30874  1.0000
  C   C40       1.0  0.44645  0.41443  0.32848  1.0000
  H   H84       1.0  0.79976  0.40069  0.17434  1.0000
  S   S17       1.0  0.71056  0.50842  0.39746  1.0000
  H   H85       1.0  0.40579  0.36673  0.24984  1.0000
  S   S18       1.0  0.64300  0.38641  0.43348  1.0000
  H   H86       1.0  0.51768  0.51953  0.21497  1.0000
  Fe  Fe7       1.0  0.70868  0.59129  0.12909  1.0000
  C   C41       1.0  0.40887  0.56789  0.39952  1.0000
  C   C42       1.0  0.75764  0.42065  0.26105  1.0000
  H   H87       1.0  0.80389  0.45465  0.12413  1.0000
  H   H88       1.0  0.58125  0.63612  0.45494  1.0000
  C   C43       1.0  0.75455  0.34423  0.36662  1.0000
  C   C44       1.0  0.41032  0.38948  0.33243  1.0000
  C   C45       1.0  0.37571  0.53434  0.27975  1.0000
  Fe  Fe8       1.0  0.69588  0.57640  0.38263  1.0000
  H   H89       1.0  0.46031  0.56926  0.23495  1.0000
  H   H90       1.0  0.75055  0.41087  0.36621  1.0000
  Fe  Fe9       1.0  0.45101  0.65039  0.28739  1.0000
  N   N5        1.0  0.71787  0.39799  0.32040  1.0000
  H   H91       1.0  0.61473  0.57697  0.43005  1.0000
  H   H92       1.0  0.61730  0.54428  0.02138  1.0000
  H   H93       1.0  0.54642  0.36350  0.34178  1.0000
  C   C46       1.0  0.45347  0.40489  0.26776  1.0000
  H   H94       1.0  0.56466  0.56405  0.32273  1.0000
  C   C47       1.0  0.45836  0.52057  0.35686  1.0000
  S   S19       1.0  0.42076  0.62148  0.04811  1.0000
  H   H95       1.0  0.68647  0.56881  0.50750  1.0000
  C   C48       1.0  0.50793  0.53764  0.03059  1.0000
  S   S20       1.0  0.76638  0.55413  0.11318  1.0000
  H   H96       1.0  0.81706  0.55369  0.51063  1.0000
  H   H97       1.0  0.45807  0.42739  0.35049  1.0000
  H   H98       1.0  0.57940  0.46269  0.43568  1.0000
  C   C49       1.0  0.83118  0.51593  0.23866  1.0000
  C   C50       1.0  0.67230  0.65412  0.24026  1.0000
  H   H99       1.0  0.37015  0.35921  0.49173  1.0000
  H   H100      1.0  0.49811  0.57119  0.02782  1.0000
  S   S21       1.0  0.62673  0.50249  0.22368  1.0000
  H   H101      1.0  0.65354  0.41073  0.19073  1.0000
  H   H102      1.0  0.50565  0.44360  0.44535  1.0000
  S   S22       1.0  0.43944  0.66456  0.23036  1.0000
  S   S23       1.0  0.81705  0.47851  0.35585  1.0000
  C   C51       1.0  0.41554  0.52506  0.40964  1.0000
  C   C52       1.0  0.66231  0.37643  0.27753  1.0000
  H   H103      1.0  0.44504  0.46837  0.39602  1.0000
  S   S24       1.0  0.83936  0.53200  0.19409  1.0000
  H   H104      1.0  0.67992  0.36198  0.25665  1.0000
  C   C53       1.0  0.59272  0.49038  0.41945  1.0000
  C   C54       1.0  0.79793  0.52663  0.29424  1.0000
  H   H105      1.0  0.57196  0.54817  0.39160  1.0000
  C   C55       1.0  0.40301  0.56504  0.18142  1.0000
  C   C56       1.0  0.45181  0.53834  0.22792  1.0000
  H   H106      1.0  0.82710  0.45560  0.47272  1.0000
  H   H107      1.0  0.45377  0.35945  0.51224  1.0000
  H   H108      1.0  0.82196  0.39110  0.50910  1.0000
  H   H109      1.0  0.59293  0.56057  0.07744  1.0000
  C   C57       1.0  0.58857  0.39826  0.14717  1.0000
  H   H110      1.0  0.59677  0.45599  0.16977  1.0000
  C   C58       1.0  0.47238  0.51465  0.05357  1.0000
  S   S25       1.0  0.76273  0.59244  0.36335  1.0000
  H   H111      1.0  0.65636  0.40993  0.26867  1.0000
  N   N6        1.0  0.62564  0.36896  0.15874  1.0000
  C   C59       1.0  0.48692  0.52713  0.20138  1.0000
  C   C60       1.0  0.65638  0.44718  0.33759  1.0000
  C   C61       1.0  0.63362  0.56842  0.31939  1.0000
  H   H112      1.0  0.39131  0.59031  0.24581  1.0000
  C   C62       1.0  0.54702  0.52673  0.11076  1.0000
  C   C63       1.0  0.57471  0.42942  0.17249  1.0000
  H   H113      1.0  0.62120  0.35136  0.21489  1.0000
  H   H114      1.0  0.82590  0.66194  0.18713  1.0000
  H   H115      1.0  0.62320  0.49846  0.43054  1.0000
  C   C64       1.0  0.68604  0.36681  0.31211  1.0000
  Fe  Fe10      1.0  0.72543  0.52587  0.44948  1.0000
  H   H116      1.0  0.45674  0.51584  0.25192  1.0000
  C   C65       1.0  0.66948  0.53805  0.27197  1.0000
  C   C66       1.0  0.82179  0.49269  0.31071  1.0000
  S   S26       1.0  0.47999  0.41611  0.22729  1.0000
  H   H117      1.0  0.84076  0.52180  0.06683  1.0000
  H   H118      1.0  0.42248  0.62016  0.36055  1.0000
  H   H119      1.0  0.62973  0.36301  0.28109  1.0000
  H   H120      1.0  0.49628  0.44118  0.29329  1.0000
  C   C67       1.0  0.52788  0.61457  0.40217  1.0000
  C   C68       1.0  0.70520  0.37149  0.17527  1.0000
  Fe  Fe11      1.0  0.44364  0.39760  0.18358  1.0000
  C   C69       1.0  0.52764  0.53716  0.51020  1.0000
  H   H121      1.0  0.73002  0.41309  0.24623  1.0000
  C   C70       1.0  0.56688  0.48580  0.04932  1.0000
  Fe  Fe12      1.0  0.67950  0.52400  0.18575  1.0000
  C   C71       1.0  0.39328  0.49449  0.21493  1.0000
  H   H122      1.0  0.39439  0.37809  0.45067  1.0000
  C   C72       1.0  0.75843  0.39631  0.29801  1.0000
  C   C73       1.0  0.80979  0.39059  0.43781  1.0000
  H   H123      1.0  0.52186  0.59959  0.37876  1.0000
  Fe  Fe13      1.0  0.77840  0.52515  0.38277  1.0000
  H   H124      1.0  0.76222  0.40534  0.47880  1.0000
  C   C74       1.0  0.80266  0.53835  0.25825  1.0000
  H   H125      1.0  0.57668  0.33196  0.11104  1.0000
  H   H126      1.0  0.60176  0.48242  0.05512  1.0000
  H   H127      1.0  0.77596  0.54394  0.30924  1.0000
  Fe  Fe14      1.0  0.77460  0.53794  0.17054  1.0000
  S   S27       1.0  0.79497  0.53719  0.43625  1.0000
  H   H128      1.0  0.58785  0.61733  0.17486  1.0000
  H   H129      1.0  0.62541  0.61508  0.48008  1.0000
  H   H130      1.0  0.52279  0.33775  0.50093  1.0000
  C   C75       1.0  0.60046  0.62124  0.20063  1.0000
  H   H131      1.0  0.83298  0.49615  0.02979  1.0000
  N   N7        1.0  0.85010  0.39698  0.45693  1.0000
  C   C76       1.0  0.84919  0.46942  0.29086  1.0000
  H   H132      1.0  0.35931  0.50444  0.27991  1.0000
  C   C77       1.0  0.70704  0.50459  0.03001  1.0000
  H   H133      1.0  0.83116  0.34324  0.49309  1.0000
  H   H134      1.0  0.81554  0.62577  0.13293  1.0000
  C   C78       1.0  0.82968  0.42991  0.12630  1.0000
  C   C79       1.0  0.55835  0.46043  0.01947  1.0000
  H   H135      1.0  0.69348  0.65526  0.21650  1.0000
  C   C80       1.0  0.43942  0.34586  0.49059  1.0000
  H   H136      1.0  0.68961  0.64670  0.29530  1.0000
  H   H137      1.0  0.57236  0.42840  0.02599  1.0000
  C   C81       1.0  0.35866  0.57030  0.16453  1.0000
  C   C82       1.0  0.37866  0.55924  0.24301  1.0000
  H   H138      1.0  0.36792  0.35251  0.30719  1.0000
  H   H139      1.0  0.58958  0.61496  0.03051  1.0000
  H   H140      1.0  0.85244  0.50642  0.12586  1.0000
  Fe  Fe15      1.0  0.35733  0.63525  0.49769  1.0000
  H   H141      1.0  0.85532  0.38668  0.17054  1.0000
  S   S28       1.0  0.46301  0.33893  0.16206  1.0000
  S   S29       1.0  0.80355  0.65857  0.43271  1.0000
  C   C83       1.0  0.74301  0.66015  0.48507  1.0000
  H   H142      1.0  0.73386  0.65717  0.26471  1.0000
  H   H143      1.0  0.52337  0.45705  0.01644  1.0000
  H   H144      1.0  0.35667  0.55310  0.29710  1.0000
  H   H145      1.0  0.35858  0.49360  0.35151  1.0000
  H   H146      1.0  0.85567  0.42829  0.05998  1.0000
  C   C84       1.0  0.69948  0.66500  0.27017  1.0000
  Fe  Fe16      1.0  0.39230  0.33206  0.15741  1.0000
  H   H147      1.0  0.84194  0.47402  0.73320  1.0000
  H   H148      1.0  0.50634  0.52448  0.84701  1.0000
  H   H149      1.0  0.59093  0.40713  0.69703  1.0000
  C   C85       1.0  0.78421  0.42644  0.98777  1.0000
  C   C86       1.0  0.82774  0.36944  0.73597  1.0000
  C   C87       1.0  0.49106  0.45932  0.64400  1.0000
  H   H150      1.0  0.73483  0.56813  0.63777  1.0000
  H   H151      1.0  0.57902  0.51347  0.84858  1.0000
  Fe  Fe17      1.0  0.41432  0.57891  0.54649  1.0000
  H   H152      1.0  0.78320  0.45760  0.97214  1.0000
  H   H153      1.0  0.54721  0.61177  0.00008  1.0000
  H   H154      1.0  0.41883  0.62846  0.91232  1.0000
  H   H155      1.0  0.83566  0.44508  0.56852  1.0000
  C   C88       1.0  0.84306  0.50511  0.61465  1.0000
  H   H156      1.0  0.79479  0.34805  0.78438  1.0000
  C   C89       1.0  0.58373  0.42245  0.58564  1.0000
  C   C90       1.0  0.44519  0.44271  0.87052  1.0000
  H   H157      1.0  0.84138  0.48338  0.52998  1.0000
  H   H158      1.0  0.74542  0.47424  0.72117  1.0000
  C   C91       1.0  0.57515  0.42865  0.67614  1.0000
  C   C92       1.0  0.69519  0.40777  0.90649  1.0000
  Fe  Fe18      1.0  0.70846  0.34029  0.54771  1.0000
  H   H159      1.0  0.69251  0.47472  0.76449  1.0000
  C   C93       1.0  0.54729  0.54687  0.76027  1.0000
  C   C94       1.0  0.38328  0.52923  0.92009  1.0000
  S   S30       1.0  0.63244  0.56102  0.62799  1.0000
  Fe  Fe19      1.0  0.67307  0.65276  0.91380  1.0000
  H   H160      1.0  0.75316  0.42129  0.00221  1.0000
  C   C95       1.0  0.49430  0.44639  0.87236  1.0000
  H   H161      1.0  0.81441  0.46966  0.87626  1.0000
  H   H162      1.0  0.58307  0.37204  0.97790  1.0000
  C   C96       1.0  0.36834  0.56622  0.86316  1.0000
  H   H163      1.0  0.60576  0.50948  0.77123  1.0000
  H   H164      1.0  0.60141  0.44280  0.65892  1.0000
  S   S31       1.0  0.61847  0.61039  0.91181  1.0000
  H   H165      1.0  0.57337  0.39016  0.58519  1.0000
  C   C97       1.0  0.67031  0.48715  0.97997  1.0000
  C   C98       1.0  0.58407  0.48162  0.86264  1.0000
  H   H166      1.0  0.61869  0.47829  0.86894  1.0000
  C   C99       1.0  0.74906  0.54050  0.76144  1.0000
  C   C100      1.0  0.38674  0.60198  0.87230  1.0000
  N   N8        1.0  0.50899  0.47896  0.89335  1.0000
  H   H167      1.0  0.57830  0.54100  0.98950  1.0000
  H   H168      1.0  0.51544  0.66249  0.90955  1.0000
  C   C101      1.0  0.58256  0.51583  0.74989  1.0000
  C   C102      1.0  0.37258  0.41835  0.79465  1.0000
  C   C103      1.0  0.42629  0.34898  0.99833  1.0000
  S   S32       1.0  0.72392  0.60209  0.91723  1.0000
  Fe  Fe20      1.0  0.72615  0.61590  0.85897  1.0000
  C   C104      1.0  0.54494  0.40342  0.65671  1.0000
  C   C105      1.0  0.76147  0.40302  0.63606  1.0000
  H   H169      1.0  0.38820  0.63681  0.66620  1.0000
  H   H170      1.0  0.55841  0.54065  0.52311  1.0000
  C   C106      1.0  0.81854  0.46843  0.54989  1.0000
  H   H171      1.0  0.53113  0.46819  0.57936  1.0000
  H   H172      1.0  0.52279  0.38644  0.67657  1.0000
  C   C107      1.0  0.82325  0.36280  0.77220  1.0000
  H   H173      1.0  0.56326  0.57515  0.76650  1.0000
  N   N9        1.0  0.51941  0.42790  0.62790  1.0000
  C   C108      1.0  0.79133  0.65401  0.71524  1.0000
  Fe  Fe21      1.0  0.66366  0.33993  0.75547  1.0000
  S   S33       1.0  0.64663  0.37185  0.53016  1.0000
  H   H174      1.0  0.50856  0.36541  0.61536  1.0000
  H   H175      1.0  0.38115  0.50119  0.93867  1.0000
  H   H176      1.0  0.43650  0.60521  0.78632  1.0000
  S   S34       1.0  0.37655  0.52209  0.54307  1.0000
  C   C109      1.0  0.67906  0.54871  0.53123  1.0000
  H   H177      1.0  0.43833  0.41614  0.85638  1.0000
  H   H178      1.0  0.54932  0.54915  0.68697  1.0000
  C   C110      1.0  0.44474  0.52854  0.71115  1.0000
  H   H179      1.0  0.83215  0.33723  0.61482  1.0000
  H   H180      1.0  0.50635  0.45283  0.84492  1.0000
  H   H181      1.0  0.73845  0.51712  0.62559  1.0000
  H   H182      1.0  0.66205  0.41708  0.91452  1.0000
  C   C111      1.0  0.42576  0.61100  0.62633  1.0000
  H   H183      1.0  0.78934  0.36182  0.98567  1.0000
  C   C112      1.0  0.55703  0.47441  0.89688  1.0000
  C   C113      1.0  0.49229  0.39666  0.61326  1.0000
  H   H184      1.0  0.44364  0.55098  0.78446  1.0000
  C   C114      1.0  0.36652  0.52999  0.88711  1.0000
  S   S35       1.0  0.56802  0.62840  0.82512  1.0000
  C   C115      1.0  0.81296  0.48871  0.72024  1.0000
  H   H185      1.0  0.46580  0.49338  0.59570  1.0000
  C   C116      1.0  0.75359  0.64872  0.77152  1.0000
  C   C117      1.0  0.82958  0.64097  0.73192  1.0000
  H   H186      1.0  0.56648  0.47496  0.61238  1.0000
  H   H187      1.0  0.77062  0.48186  0.58754  1.0000
  H   H188      1.0  0.55755  0.45296  0.68887  1.0000
  C   C118      1.0  0.59688  0.35412  0.95848  1.0000
  C   C119      1.0  0.58318  0.55218  0.01489  1.0000
  H   H189      1.0  0.52949  0.63471  0.60323  1.0000
  Fe  Fe22      1.0  0.66958  0.56102  0.90960  1.0000
  S   S36       1.0  0.67669  0.56904  0.85151  1.0000
  S   S37       1.0  0.79200  0.61931  0.83315  1.0000
  H   H190      1.0  0.68520  0.62305  0.98912  1.0000
  H   H191      1.0  0.56523  0.37835  0.64681  1.0000
  H   H192      1.0  0.53308  0.53231  0.78549  1.0000
  H   H193      1.0  0.42840  0.45727  0.61956  1.0000
  H   H194      1.0  0.45807  0.43336  0.73783  1.0000
  C   C120      1.0  0.49214  0.43060  0.95080  1.0000
  S   S38       1.0  0.69121  0.39783  0.72564  1.0000
  H   H195      1.0  0.76485  0.57486  0.57935  1.0000
  Fe  Fe23      1.0  0.62906  0.62187  0.85431  1.0000
  C   C121      1.0  0.79715  0.45767  0.90083  1.0000
  H   H196      1.0  0.72414  0.65172  0.78667  1.0000
  S   S39       1.0  0.42493  0.56183  0.96998  1.0000
  S   S40       1.0  0.65394  0.49833  0.93704  1.0000
  C   C122      1.0  0.72464  0.40685  0.93787  1.0000
  H   H197      1.0  0.60124  0.52852  0.72618  1.0000
  C   C123      1.0  0.37265  0.36991  0.75218  1.0000
  H   H198      1.0  0.84601  0.51984  0.77141  1.0000
  N   N10       1.0  0.75764  0.49434  0.77117  1.0000
  H   H199      1.0  0.43007  0.47102  0.85597  1.0000
  C   C124      1.0  0.42886  0.42028  0.74986  1.0000
  H   H200      1.0  0.50200  0.55978  0.91747  1.0000
  C   C125      1.0  0.70800  0.39149  0.68308  1.0000
  H   H201      1.0  0.65291  0.35695  0.67263  1.0000
  H   H202      1.0  0.64361  0.42603  0.98591  1.0000
  H   H203      1.0  0.70793  0.38988  0.96091  1.0000
  C   C126      1.0  0.47971  0.40648  0.57476  1.0000
  C   C127      1.0  0.69311  0.51563  0.99585  1.0000
  S   S41       1.0  0.59272  0.33409  0.76551  1.0000
  C   C128      1.0  0.40408  0.60105  0.90534  1.0000
  H   H204      1.0  0.71185  0.58706  0.72843  1.0000
  H   H205      1.0  0.81817  0.54707  0.80322  1.0000
  H   H206      1.0  0.79244  0.41457  0.62644  1.0000
  C   C129      1.0  0.40276  0.56442  0.92900  1.0000
  H   H207      1.0  0.77651  0.53341  0.65483  1.0000
  H   H208      1.0  0.73444  0.40815  0.78785  1.0000
  C   C130      1.0  0.82881  0.51600  0.79687  1.0000
  H   H209      1.0  0.47605  0.44495  0.66901  1.0000
  H   H210      1.0  0.59172  0.43618  0.55848  1.0000
  C   C131      1.0  0.49610  0.52131  0.87488  1.0000
  C   C132      1.0  0.45409  0.47968  0.62180  1.0000
  H   H211      1.0  0.50789  0.40407  0.55682  1.0000
  H   H212      1.0  0.45928  0.60350  0.72712  1.0000
  C   C133      1.0  0.48859  0.47414  0.92937  1.0000
  S   S42       1.0  0.43083  0.37278  0.69732  1.0000
  H   H213      1.0  0.77738  0.43957  0.74798  1.0000
  C   C134      1.0  0.54927  0.45060  0.60101  1.0000
  H   H214      1.0  0.81534  0.52301  0.71609  1.0000
  N   N11       1.0  0.51266  0.55854  0.73420  1.0000
  H   H215      1.0  0.57331  0.47365  0.99431  1.0000
  C   C135      1.0  0.40948  0.38823  0.73590  1.0000
  C   C136      1.0  0.46096  0.58062  0.78224  1.0000
  H   H216      1.0  0.56849  0.49581  0.91450  1.0000
  H   H217      1.0  0.45426  0.48408  0.92918  1.0000
  C   C137      1.0  0.78702  0.56087  0.59996  1.0000
  C   C138      1.0  0.73679  0.38157  0.61542  1.0000
  H   H218      1.0  0.50253  0.62030  0.74894  1.0000
  C   C139      1.0  0.68363  0.64728  0.00576  1.0000
  H   H219      1.0  0.59098  0.60320  0.71427  1.0000
  C   C140      1.0  0.82980  0.63152  0.76824  1.0000
  H   H220      1.0  0.36521  0.48049  0.66434  1.0000
  H   H221      1.0  0.70002  0.49449  0.80443  1.0000
  C   C141      1.0  0.57974  0.60025  0.00793  1.0000
  H   H222      1.0  0.80258  0.36016  0.72029  1.0000
  H   H223      1.0  0.76676  0.42415  0.68553  1.0000
  H   H224      1.0  0.42938  0.43627  0.89653  1.0000
  C   C142      1.0  0.74681  0.40847  0.66961  1.0000
  C   C143      1.0  0.49859  0.63536  0.61685  1.0000
  H   H225      1.0  0.77046  0.51788  0.54925  1.0000
  C   C144      1.0  0.53187  0.57448  0.69894  1.0000
  S   S43       1.0  0.56950  0.33581  0.86159  1.0000
  H   H226      1.0  0.50540  0.52971  0.00371  1.0000
  H   H227      1.0  0.81696  0.46541  0.92204  1.0000
  S   S44       1.0  0.47448  0.57849  0.57626  1.0000
  C   C145      1.0  0.71918  0.43013  0.80436  1.0000
  H   H228      1.0  0.46225  0.39080  0.62921  1.0000
  S   S45       1.0  0.84944  0.36560  0.83762  1.0000
  H   H229      1.0  0.44939  0.54671  0.68509  1.0000
  C   C146      1.0  0.40975  0.43613  0.77866  1.0000
  H   H230      1.0  0.77468  0.48960  0.82508  1.0000
  H   H231      1.0  0.38786  0.63017  0.85393  1.0000
  H   H232      1.0  0.79776  0.65680  0.91822  1.0000
  C   C147      1.0  0.79460  0.39022  0.96651  1.0000
  C   C148      1.0  0.68314  0.36986  0.66247  1.0000
  C   C149      1.0  0.51292  0.55909  0.89011  1.0000
  C   C150      1.0  0.41896  0.63635  0.65260  1.0000
  H   H233      1.0  0.74962  0.33999  0.90452  1.0000
  H   H234      1.0  0.43908  0.50562  0.63440  1.0000
  C   C151      1.0  0.56278  0.61096  0.69773  1.0000
  H   H235      1.0  0.82595  0.39724  0.90045  1.0000
  H   H236      1.0  0.50689  0.49816  0.71697  1.0000
  H   H237      1.0  0.69221  0.37725  0.89725  1.0000
  H   H238      1.0  0.70007  0.54595  0.98190  1.0000
  H   H239      1.0  0.40046  0.59131  0.62024  1.0000
  H   H240      1.0  0.60228  0.61149  0.98621  1.0000
  C   C152      1.0  0.79232  0.50042  0.56851  1.0000
  H   H241      1.0  0.65548  0.47722  0.61780  1.0000
  H   H242      1.0  0.50314  0.49560  0.94551  1.0000
  H   H243      1.0  0.57536  0.61873  0.67059  1.0000
  H   H244      1.0  0.52489  0.42378  0.96087  1.0000
  H   H245      1.0  0.68463  0.44670  0.56633  1.0000
  H   H246      1.0  0.56909  0.48550  0.74620  1.0000
  C   C153      1.0  0.79046  0.48658  0.79932  1.0000
  C   C154      1.0  0.65283  0.54002  0.59132  1.0000
  H   H247      1.0  0.80917  0.42681  0.00749  1.0000
  H   H248      1.0  0.42354  0.46218  0.78865  1.0000
  C   C155      1.0  0.71465  0.55261  0.73385  1.0000
  N   N12       1.0  0.76940  0.38859  0.93397  1.0000
  H   H249      1.0  0.56616  0.44266  0.90968  1.0000
  C   C156      1.0  0.83015  0.57581  0.52675  1.0000
  C   C157      1.0  0.79273  0.41025  0.90241  1.0000
  H   H250      1.0  0.67777  0.34967  0.61219  1.0000
  H   H251      1.0  0.54579  0.36990  0.92288  1.0000
  H   H252      1.0  0.61405  0.42165  0.59997  1.0000
  H   H253      1.0  0.77700  0.40438  0.87832  1.0000
  H   H254      1.0  0.72353  0.54134  0.70878  1.0000
  H   H255      1.0  0.46340  0.43720  0.56825  1.0000
  H   H256      1.0  0.73884  0.55496  0.78500  1.0000
  H   H257      1.0  0.46858  0.42943  0.97299  1.0000
  C   C158      1.0  0.69726  0.36556  0.62836  1.0000
  H   H258      1.0  0.73699  0.42802  0.82870  1.0000
  C   C159      1.0  0.79164  0.63461  0.78803  1.0000
  H   H259      1.0  0.46046  0.52542  0.87482  1.0000
  C   C160      1.0  0.68644  0.50560  0.53321  1.0000
  Fe  Fe24      1.0  0.65207  0.62745  0.62444  1.0000
  H   H260      1.0  0.72545  0.43949  0.94316  1.0000
  C   C161      1.0  0.67781  0.47992  0.56445  1.0000
  H   H261      1.0  0.54616  0.63961  0.70463  1.0000
  C   C162      1.0  0.77158  0.47345  0.74012  1.0000
  H   H262      1.0  0.50821  0.41502  0.88189  1.0000
  H   H263      1.0  0.47950  0.50284  0.75677  1.0000
  Fe  Fe25      1.0  0.42182  0.62333  0.99026  1.0000
  S   S46       1.0  0.66725  0.64858  0.67481  1.0000
  H   H264      1.0  0.65568  0.59914  0.55849  1.0000
  H   H265      1.0  0.45686  0.38271  0.56929  1.0000
  C   C163      1.0  0.48395  0.59228  0.74654  1.0000
  H   H266      1.0  0.43124  0.49838  0.70702  1.0000
  N   N13       1.0  0.81802  0.52995  0.58596  1.0000
  H   H267      1.0  0.82984  0.39033  0.96046  1.0000
  H   H268      1.0  0.80422  0.58772  0.60764  1.0000
  C   C164      1.0  0.75792  0.54329  0.63124  1.0000
  C   C165      1.0  0.66209  0.56591  0.56026  1.0000
  C   C166      1.0  0.57612  0.35350  0.92726  1.0000
  H   H269      1.0  0.70562  0.43140  0.88476  1.0000
  H   H270      1.0  0.81285  0.47953  0.69378  1.0000
  C   C167      1.0  0.48730  0.52045  0.73082  1.0000
  H   H271      1.0  0.50614  0.58535  0.68058  1.0000
  C   C168      1.0  0.66106  0.49710  0.59347  1.0000
  H   H272      1.0  0.80399  0.45405  0.80115  1.0000
  H   H273      1.0  0.50883  0.51410  0.52785  1.0000
  H   H274      1.0  0.68622  0.41903  0.81150  1.0000
  C   C169      1.0  0.75364  0.65894  0.73519  1.0000
  C   C170      1.0  0.71586  0.47533  0.78555  1.0000
  C   C171      1.0  0.66125  0.44808  0.99814  1.0000
  C   C172      1.0  0.46563  0.61046  0.60859  1.0000
  H   H275      1.0  0.68228  0.54183  0.74301  1.0000
  H   H276      1.0  0.51038  0.48543  0.65050  1.0000
  H   H277      1.0  0.54844  0.56049  0.88785  1.0000
  H   H278      1.0  0.57800  0.45789  0.84543  1.0000
  H   H279      1.0  0.48383  0.57974  0.80363  1.0000
  H   H280      1.0  0.48250  0.40531  0.93641  1.0000
  H   H281      1.0  0.49983  0.58813  0.87501  1.0000
  H   H282      1.0  0.77850  0.55707  0.75146  1.0000
  H   H283      1.0  0.84808  0.55397  0.64940  1.0000
  H   H284      1.0  0.41997  0.54448  0.72631  1.0000
  S   S47       1.0  0.75702  0.37289  0.57435  1.0000
  S   S48       1.0  0.66069  0.33381  0.00385  1.0000
  C   C173      1.0  0.76507  0.34332  0.92934  1.0000
  H   H285      1.0  0.76558  0.47457  0.90100  1.0000
  S   S49       1.0  0.71352  0.64961  0.59737  1.0000
  H   H286      1.0  0.39340  0.35770  0.99185  1.0000
  H   H287      1.0  0.79571  0.45106  0.53621  1.0000
  C   C174      1.0  0.84941  0.55340  0.56062  1.0000
  H   H288      1.0  0.82168  0.48401  0.63202  1.0000
  Fe  Fe26      1.0  0.38609  0.33216  0.67396  1.0000
  C   C175      1.0  0.59465  0.33202  0.90150  1.0000
  H   H289      1.0  0.64328  0.65363  0.78385  1.0000
  H   H290      1.0  0.35812  0.34459  0.74173  1.0000
  C   C176      1.0  0.45203  0.66106  0.66104  1.0000
  H   H291      1.0  0.80478  0.59919  0.53194  1.0000
  C   C177      1.0  0.57456  0.66363  0.78734  1.0000
  C   C178      1.0  0.49160  0.66100  0.64287  1.0000
  H   H292      1.0  0.85256  0.50330  0.81654  1.0000
  C   C179      1.0  0.85547  0.37506  0.79254  1.0000
  H   H293      1.0  0.69561  0.66190  0.52646  1.0000
  H   H294      1.0  0.85584  0.59862  0.88748  1.0000
  S   S50       1.0  0.35653  0.61921  0.55538  1.0000
  S   S51       1.0  0.79119  0.66232  0.66957  1.0000
  H   H295      1.0  0.48586  0.75277  0.42386  1.0000
  H   H296      1.0  0.52064  0.98523  0.51245  1.0000
  Fe  Fe27      1.0  0.42357  0.73686  0.30141  1.0000
  H   H297      1.0  0.81202  0.85334  0.25455  1.0000
  C   C180      1.0  0.49469  0.87055  0.16050  1.0000
  H   H298      1.0  0.38857  0.90794  0.22472  1.0000
  C   C181      1.0  0.66565  0.78808  0.31250  1.0000
  S   S52       1.0  0.75985  0.81362  0.37471  1.0000
  H   H299      1.0  0.64623  0.73666  0.25167  1.0000
  C   C182      1.0  0.48745  0.69883  0.11714  1.0000
  H   H300      1.0  0.52193  0.92102  0.18148  1.0000
  H   H301      1.0  0.54242  0.96897  0.45373  1.0000
  H   H302      1.0  0.63137  0.68737  0.30583  1.0000
  C   C183      1.0  0.75278  0.87182  0.05675  1.0000
  Fe  Fe28      1.0  0.77366  0.96761  0.37028  1.0000
  H   H303      1.0  0.59271  0.71729  0.09524  1.0000
  H   H304      1.0  0.74260  0.93423  0.51059  1.0000
  C   C184      1.0  0.66613  0.82232  0.28632  1.0000
  S   S53       1.0  0.64683  0.84314  0.15218  1.0000
  H   H305      1.0  0.44968  0.83230  0.21695  1.0000
  H   H306      1.0  0.77777  0.68975  0.19706  1.0000
  C   C185      1.0  0.49093  0.90446  0.18487  1.0000
  N   N14       1.0  0.63081  0.67855  0.23304  1.0000
  C   C186      1.0  0.69614  0.85340  0.28693  1.0000
  C   C187      1.0  0.82062  0.81145  0.21655  1.0000
  H   H307      1.0  0.72647  0.78042  0.46866  1.0000
  H   H308      1.0  0.51768  0.81529  0.10435  1.0000
  C   C188      1.0  0.70862  0.72353  0.50071  1.0000
  H   H309      1.0  0.57427  0.76061  0.35027  1.0000
  S   S54       1.0  0.69755  0.92828  0.12070  1.0000
  H   H310      1.0  0.58548  0.75457  0.14700  1.0000
  S   S55       1.0  0.83145  0.93375  0.48752  1.0000
  H   H311      1.0  0.61655  0.78352  0.38849  1.0000
  H   H312      1.0  0.70313  0.72454  0.20406  1.0000
  Fe  Fe29      1.0  0.71522  0.86298  0.14284  1.0000
  H   H313      1.0  0.65069  0.97926  0.33717  1.0000
  C   C189      1.0  0.56223  0.71798  0.10953  1.0000
  C   C190      1.0  0.40578  0.85040  0.51420  1.0000
  H   H314      1.0  0.82737  0.71603  0.19483  1.0000
  C   C191      1.0  0.61455  0.93697  0.31307  1.0000
  N   N15       1.0  0.48149  0.88929  0.22278  1.0000
  H   H315      1.0  0.66094  0.73819  0.17296  1.0000
  H   H316      1.0  0.56763  0.77816  0.45801  1.0000
  C   C192      1.0  0.78420  0.85156  0.07846  1.0000
  C   C193      1.0  0.54854  0.79173  0.02159  1.0000
  C   C194      1.0  0.80934  0.69298  0.18283  1.0000
  H   H317      1.0  0.57703  0.89575  0.38772  1.0000
  C   C195      1.0  0.37307  0.72433  0.44391  1.0000
  H   H318      1.0  0.48757  0.78538  0.45808  1.0000
  C   C196      1.0  0.59744  0.66729  0.26167  1.0000
  C   C197      1.0  0.78489  0.71343  0.07122  1.0000
  H   H319      1.0  0.48957  0.83077  0.28576  1.0000
  H   H320      1.0  0.61297  0.92362  0.28831  1.0000
  H   H321      1.0  0.51450  0.87888  0.05947  1.0000
  H   H322      1.0  0.80111  0.97632  0.06208  1.0000
  H   H323      1.0  0.52293  0.84930  0.16650  1.0000
  H   H324      1.0  0.65567  0.82426  0.06647  1.0000
  H   H325      1.0  0.44658  0.94695  0.22894  1.0000
  H   H326      1.0  0.56830  0.74449  0.42589  1.0000
  S   S56       1.0  0.77060  0.82804  0.12060  1.0000
  C   C198      1.0  0.39520  0.92170  0.05655  1.0000
  H   H327      1.0  0.62565  0.85832  0.42887  1.0000
  H   H328      1.0  0.80214  0.90827  0.21281  1.0000
  H   H329      1.0  0.82534  0.76182  0.07899  1.0000
  H   H330      1.0  0.84898  0.77276  0.13584  1.0000
  S   S57       1.0  0.48749  0.70838  0.28921  1.0000
  Fe  Fe30      1.0  0.62985  0.91037  0.13499  1.0000
  H   H331      1.0  0.39719  0.81925  0.40001  1.0000
  H   H332      1.0  0.75976  0.94864  0.30057  1.0000
  H   H333      1.0  0.39553  0.98871  0.04547  1.0000
  C   C199      1.0  0.40812  0.76072  0.38013  1.0000
  H   H334      1.0  0.83026  0.73975  0.49635  1.0000
  H   H335      1.0  0.51823  0.87682  0.29204  1.0000
  H   H336      1.0  0.77951  0.84421  0.49682  1.0000
  Fe  Fe31      1.0  0.39655  0.90913  0.43658  1.0000
  H   H337      1.0  0.80475  0.80162  0.47908  1.0000
  C   C200      1.0  0.47275  0.92665  0.24155  1.0000
  H   H338      1.0  0.37574  0.85788  0.21462  1.0000
  H   H339      1.0  0.78238  0.72289  0.04281  1.0000
  C   C201      1.0  0.67148  0.74061  0.19960  1.0000
  S   S58       1.0  0.40671  0.75830  0.24627  1.0000
  H   H340      1.0  0.45382  0.71820  0.16194  1.0000
  H   H341      1.0  0.85148  0.77715  0.35970  1.0000
  C   C202      1.0  0.54332  0.88968  0.39644  1.0000
  H   H342      1.0  0.58800  0.72226  0.28894  1.0000
  H   H343      1.0  0.66669  0.82599  0.41239  1.0000
  H   H344      1.0  0.67757  0.73444  0.06539  1.0000
  C   C203      1.0  0.63301  0.82625  0.42295  1.0000
  H   H345      1.0  0.72966  0.98803  0.06919  1.0000
  C   C204      1.0  0.58681  0.83198  0.05896  1.0000
  C   C205      1.0  0.39850  0.95964  0.03471  1.0000
  C   C206      1.0  0.80546  0.82014  0.50100  1.0000
  C   C207      1.0  0.40094  0.88174  0.21119  1.0000
  Fe  Fe32      1.0  0.69610  0.94184  0.41667  1.0000
  H   H346      1.0  0.46065  0.91703  0.26869  1.0000
  H   H347      1.0  0.69592  0.88038  0.26733  1.0000
  H   H348      1.0  0.36487  0.90562  0.50760  1.0000
  S   S59       1.0  0.71834  0.92722  0.36446  1.0000
  C   C208      1.0  0.82687  0.84915  0.06622  1.0000
  H   H349      1.0  0.77806  0.74493  0.43134  1.0000
  Fe  Fe33      1.0  0.46875  0.72595  0.23404  1.0000
  H   H350      1.0  0.53722  0.83019  0.35341  1.0000
  C   C209      1.0  0.37741  0.76756  0.43726  1.0000
  H   H351      1.0  0.60619  0.74195  0.22053  1.0000
  C   C210      1.0  0.51943  0.73801  0.15812  1.0000
  H   H352      1.0  0.38258  0.68541  0.17489  1.0000
  C   C211      1.0  0.72582  0.85010  0.31360  1.0000
  S   S60       1.0  0.72342  0.87862  0.19643  1.0000
  C   C212      1.0  0.76288  0.97459  0.28027  1.0000
  C   C213      1.0  0.59924  0.68918  0.29445  1.0000
  S   S61       1.0  0.43108  0.86004  0.47289  1.0000
  S   S62       1.0  0.41040  0.97671  0.43546  1.0000
  N   N16       1.0  0.55147  0.83428  0.03290  1.0000
  H   H353      1.0  0.78283  0.73771  0.14220  1.0000
  H   H354      1.0  0.39948  0.99596  0.29940  1.0000
  S   S63       1.0  0.51678  0.75902  0.19716  1.0000
  S   S64       1.0  0.74818  0.98715  0.42049  1.0000
  H   H355      1.0  0.48352  0.85221  0.03310  1.0000
  C   C214      1.0  0.40622  0.71728  0.38758  1.0000
  S   S65       1.0  0.41928  0.72440  0.03376  1.0000
  C   C215      1.0  0.49493  0.81770  0.08277  1.0000
  C   C216      1.0  0.51066  0.84767  0.05092  1.0000
  H   H356      1.0  0.56437  0.67425  0.25177  1.0000
  H   H357      1.0  0.57699  0.67357  0.31479  1.0000
  H   H358      1.0  0.54767  0.76662  0.04415  1.0000
  H   H359      1.0  0.72351  0.99585  0.02402  1.0000
  C   C217      1.0  0.56641  0.96912  0.47327  1.0000
  C   C218      1.0  0.51125  0.95520  0.24298  1.0000
  C   C219      1.0  0.53878  0.84811  0.42074  1.0000
  C   C220      1.0  0.72526  0.81594  0.33984  1.0000
  H   H360      1.0  0.69875  0.69848  0.27307  1.0000
  H   H361      1.0  0.67428  0.95580  0.48395  1.0000
  H   H362      1.0  0.55384  0.85135  0.44582  1.0000
  S   S66       1.0  0.36755  0.98359  0.17556  1.0000
  C   C221      1.0  0.68649  0.66859  0.06342  1.0000
  H   H363      1.0  0.50376  0.84558  0.42709  1.0000
  C   C222      1.0  0.67922  0.71003  0.04886  1.0000
  C   C223      1.0  0.83968  0.84158  0.23924  1.0000
  Fe  Fe34      1.0  0.75794  0.87615  0.39308  1.0000
  H   H364      1.0  0.49550  0.80685  0.38045  1.0000
  H   H365      1.0  0.85136  0.83464  0.08325  1.0000
  H   H366      1.0  0.62700  0.91136  0.33248  1.0000
  Fe  Fe35      1.0  0.37149  0.67339  0.03872  1.0000
  C   C224      1.0  0.63712  0.72497  0.22751  1.0000
  S   S67       1.0  0.38695  0.92010  0.10155  1.0000
  H   H367      1.0  0.79403  0.98143  0.01631  1.0000
  H   H368      1.0  0.83568  0.83740  0.50030  1.0000
  H   H369      1.0  0.39728  0.85485  0.05924  1.0000
  H   H370      1.0  0.38046  0.67951  0.11183  1.0000
  H   H371      1.0  0.52672  0.98262  0.04963  1.0000
  C   C225      1.0  0.50493  0.76067  0.44552  1.0000
  C   C226      1.0  0.71396  0.68013  0.50612  1.0000
  H   H372      1.0  0.58239  0.80530  0.07993  1.0000
  H   H373      1.0  0.69513  0.75816  0.35935  1.0000
  H   H374      1.0  0.67738  0.96184  0.30082  1.0000
  H   H375      1.0  0.53230  0.91565  0.41089  1.0000
  S   S68       1.0  0.57351  0.93219  0.10247  1.0000
  Fe  Fe36      1.0  0.36767  0.98185  0.11817  1.0000
  H   H376      1.0  0.75774  0.72947  0.08385  1.0000
  H   H377      1.0  0.84979  0.88309  0.29577  1.0000
  H   H378      1.0  0.73194  0.94392  0.24235  1.0000
  H   H379      1.0  0.63767  0.79906  0.03185  1.0000
  C   C227      1.0  0.55843  0.97595  0.03897  1.0000
  H   H380      1.0  0.58190  0.94581  0.32242  1.0000
  H   H381      1.0  0.60727  0.83633  0.37147  1.0000
  H   H382      1.0  0.55018  0.88034  0.23072  1.0000
  H   H383      1.0  0.82799  0.92630  0.26667  1.0000
  H   H384      1.0  0.65130  0.92194  0.06066  1.0000
  C   C228      1.0  0.76646  0.68354  0.45834  1.0000
  C   C229      1.0  0.63326  0.82739  0.04450  1.0000
  H   H385      1.0  0.60245  0.97958  0.24978  1.0000
  H   H386      1.0  0.84596  0.79004  0.20767  1.0000
  C   C230      1.0  0.60299  0.81362  0.39548  1.0000
  C   C231      1.0  0.52684  0.69805  0.09875  1.0000
  Fe  Fe37      1.0  0.37859  0.69540  0.24777  1.0000
  C   C232      1.0  0.58813  0.95137  0.05949  1.0000
  H   H387      1.0  0.50597  0.73242  0.46524  1.0000
  H   H388      1.0  0.65887  0.98493  0.24318  1.0000
  S   S69       1.0  0.42234  0.78414  0.33827  1.0000
  Fe  Fe38      1.0  0.65368  0.86434  0.20441  1.0000
  C   C233      1.0  0.55148  0.77264  0.43404  1.0000
  N   N17       1.0  0.55602  0.80972  0.40627  1.0000
  Fe  Fe39      1.0  0.69994  0.94269  0.17504  1.0000
  S   S70       1.0  0.63050  0.93000  0.18805  1.0000
  H   H389      1.0  0.36718  0.79370  0.17406  1.0000
  H   H390      1.0  0.46630  0.92810  0.17421  1.0000
  C   C234      1.0  0.83799  0.86577  0.03203  1.0000
  H   H391      1.0  0.40663  0.79234  0.14014  1.0000
  C   C235      1.0  0.51968  0.86366  0.23741  1.0000
  C   C236      1.0  0.60982  0.96156  0.46500  1.0000
  C   C237      1.0  0.38866  0.69900  0.41955  1.0000
  H   H392      1.0  0.74932  0.87390  0.31384  1.0000
  H   H393      1.0  0.71972  0.87362  0.06606  1.0000
  H   H394      1.0  0.46515  0.85234  0.16065  1.0000
  Fe  Fe40      1.0  0.46857  0.67206  0.03704  1.0000
  H   H395      1.0  0.49959  0.88595  0.13338  1.0000
  C   C238      1.0  0.37508  0.80681  0.14684  1.0000
  H   H396      1.0  0.41753  0.69781  0.36853  1.0000
  C   C239      1.0  0.48393  0.71830  0.14724  1.0000
  C   C240      1.0  0.64570  0.97355  0.31021  1.0000
  C   C241      1.0  0.55813  0.73906  0.13866  1.0000
  C   C242      1.0  0.54018  0.76371  0.35900  1.0000
  H   H397      1.0  0.77856  0.68503  0.13599  1.0000
  H   H398      1.0  0.46009  0.68355  0.10863  1.0000
  H   H399      1.0  0.52051  0.76441  0.33561  1.0000
  H   H400      1.0  0.58426  0.68643  0.19254  1.0000
  C   C243      1.0  0.62877  0.94204  0.04534  1.0000
  H   H401      1.0  0.52255  0.89123  0.37361  1.0000
  C   C244      1.0  0.39941  0.88418  0.04251  1.0000
  H   H402      1.0  0.40482  0.89212  0.18290  1.0000
  H   H403      1.0  0.38030  0.84064  0.14444  1.0000
  N   N18       1.0  0.84082  0.71172  0.12018  1.0000
  S   S71       1.0  0.62520  0.95500  0.42228  1.0000
  S   S72       1.0  0.40222  0.91007  0.37856  1.0000
  C   C245      1.0  0.82831  0.72715  0.08319  1.0000
  H   H404      1.0  0.43434  0.85322  0.25542  1.0000
  C   C246      1.0  0.80131  0.70744  0.14398  1.0000
  H   H405      1.0  0.82262  0.96920  0.17157  1.0000
  H   H406      1.0  0.84493  0.96914  0.21312  1.0000
  C   C247      1.0  0.64073  0.96163  0.49035  1.0000
  H   H407      1.0  0.85379  0.71877  0.06428  1.0000
  H   H408      1.0  0.79652  0.79182  0.23233  1.0000
  Fe  Fe41      1.0  0.78574  0.93092  0.44454  1.0000
  C   C248      1.0  0.76027  0.72686  0.45227  1.0000
  H   H409      1.0  0.63240  0.80413  0.44738  1.0000
  H   H410      1.0  0.67661  0.77407  0.20099  1.0000
  C   C249      1.0  0.74774  0.97167  0.24714  1.0000
  H   H411      1.0  0.54650  0.82998  0.28460  1.0000
  H   H412      1.0  0.58579  0.86018  0.07233  1.0000
  H   H413      1.0  0.53093  0.73565  0.37699  1.0000
  C   C250      1.0  0.51778  0.84996  0.27717  1.0000
  S   S73       1.0  0.73100  0.88696  0.44543  1.0000
  H   H414      1.0  0.64311  0.85504  0.02621  1.0000
  Fe  Fe42      1.0  0.41004  0.97885  0.37756  1.0000
  H   H415      1.0  0.52100  0.97076  0.21677  1.0000
  C   C251      1.0  0.61345  0.66703  0.19984  1.0000
  H   H416      1.0  0.63705  0.67334  0.17769  1.0000
  C   C252      1.0  0.73089  0.74684  0.47319  1.0000
  C   C253      1.0  0.44267  0.86222  0.22739  1.0000
  S   S74       1.0  0.53192  0.67301  0.06183  1.0000
  H   H417      1.0  0.53920  0.93847  0.25579  1.0000
  C   C254      1.0  0.69554  0.78462  0.33905  1.0000
  H   H418      1.0  0.46404  0.83025  0.09284  1.0000
  C   C255      1.0  0.39529  0.78573  0.40546  1.0000
  H   H419      1.0  0.64245  0.76408  0.31218  1.0000
  H   H420      1.0  0.48870  0.78630  0.07598  1.0000
  C   C256      1.0  0.53079  0.80443  0.37477  1.0000
  S   S75       1.0  0.38799  0.67714  0.30466  1.0000
  S   S76       1.0  0.62916  0.82585  0.25294  1.0000
  H   H421      1.0  0.52388  0.83459  0.22526  1.0000
  H   H422      1.0  0.50159  0.98024  0.25872  1.0000
  H   H423      1.0  0.85342  0.66899  0.51010  1.0000
  H   H424      1.0  0.82682  0.89504  0.17387  1.0000
  S   S77       1.0  0.81564  0.91508  0.39448  1.0000
  C   C257      1.0  0.83372  0.90669  0.19877  1.0000
  C   C258      1.0  0.76393  0.88867  0.02249  1.0000
  C   C259      1.0  0.84631  0.95274  0.18978  1.0000
  C   C260      1.0  0.78897  0.99787  0.03954  1.0000
  H   H425      1.0  0.80409  0.82820  0.19372  1.0000
  H   H426      1.0  0.78051  0.67944  0.07627  1.0000
  C   C261      1.0  0.55411  0.97836  0.50648  1.0000
  H   H427      1.0  0.36591  0.78716  0.45633  1.0000
  H   H428      1.0  0.38563  0.66554  0.42480  1.0000
  H   H429      1.0  0.73412  0.85059  0.74185  1.0000
  N   N19       1.0  0.55642  0.75978  0.87489  1.0000
  C   C262      1.0  0.42369  0.78025  0.73725  1.0000
  H   H430      1.0  0.53959  0.90616  0.95657  1.0000
  H   H431      1.0  0.56576  0.89468  0.56563  1.0000
  H   H432      1.0  0.48141  0.70742  0.89818  1.0000
  H   H433      1.0  0.59083  0.82700  0.62318  1.0000
  H   H434      1.0  0.46877  0.92909  0.66172  1.0000
  Fe  Fe43      1.0  0.70420  0.90335  0.88137  1.0000
  C   C263      1.0  0.51698  0.78741  0.87834  1.0000
  C   C264      1.0  0.52764  0.82512  0.71846  1.0000
  C   C265      1.0  0.78865  0.78973  0.77085  1.0000
  H   H435      1.0  0.53798  0.74714  0.61837  1.0000
  C   C266      1.0  0.65849  0.85400  0.79020  1.0000
  C   C267      1.0  0.58521  0.98001  0.53146  1.0000
  S   S78       1.0  0.67865  0.96887  0.86693  1.0000
  S   S79       1.0  0.82073  0.90225  0.96651  1.0000
  H   H436      1.0  0.76457  0.86654  0.70392  1.0000
  S   S80       1.0  0.56916  0.92321  0.73406  1.0000
  H   H437      1.0  0.78149  0.75576  0.70509  1.0000
  C   C268      1.0  0.42573  0.86032  0.76813  1.0000
  S   S81       1.0  0.68698  0.84838  0.85611  1.0000
  C   C269      1.0  0.79382  0.80287  0.86518  1.0000
  H   H438      1.0  0.51279  0.80678  0.70022  1.0000
  H   H439      1.0  0.60383  0.80811  0.86617  1.0000
  C   C270      1.0  0.67448  0.72010  0.01300  1.0000
  H   H440      1.0  0.84481  0.73032  0.98378  1.0000
  C   C271      1.0  0.42923  0.82406  0.71707  1.0000
  Fe  Fe44      1.0  0.38418  0.67928  0.72672  1.0000
  H   H441      1.0  0.55301  0.80396  0.73102  1.0000
  H   H442      1.0  0.57146  0.81781  0.92409  1.0000
  H   H443      1.0  0.48046  0.91526  0.72257  1.0000
  C   C272      1.0  0.65232  0.86702  0.82288  1.0000
  S   S82       1.0  0.74363  0.87706  0.63359  1.0000
  C   C273      1.0  0.55860  0.77928  0.53630  1.0000
  H   H444      1.0  0.54493  0.84963  0.86445  1.0000
  C   C274      1.0  0.59675  0.77973  0.88447  1.0000
  H   H445      1.0  0.62831  0.82893  0.54772  1.0000
  C   C275      1.0  0.62033  0.69654  0.74069  1.0000
  H   H446      1.0  0.77608  0.73254  0.97943  1.0000
  H   H447      1.0  0.70240  0.75373  0.70747  1.0000
  H   H448      1.0  0.51958  0.79568  0.97026  1.0000
  H   H449      1.0  0.47317  0.88792  0.79919  1.0000
  H   H450      1.0  0.80846  0.80825  0.78618  1.0000
  C   C276      1.0  0.58434  0.71685  0.72481  1.0000
  H   H451      1.0  0.67126  0.95085  0.00001  1.0000
  C   C277      1.0  0.51784  0.83128  0.85752  1.0000
  H   H452      1.0  0.58067  0.70037  0.90049  1.0000
  C   C278      1.0  0.80647  0.88511  0.01001  1.0000
  H   H453      1.0  0.76316  0.78296  0.53676  1.0000
  H   H454      1.0  0.72332  0.98682  0.79682  1.0000
  H   H455      1.0  0.81964  0.82396  0.66371  1.0000
  C   C279      1.0  0.39307  0.81247  0.87784  1.0000
  H   H456      1.0  0.77975  0.78984  0.60867  1.0000
  H   H457      1.0  0.57926  0.89291  0.01128  1.0000
  S   S83       1.0  0.58965  0.74559  0.68357  1.0000
  C   C280      1.0  0.51037  0.81108  0.60556  1.0000
  C   C281      1.0  0.59215  0.91147  0.80167  1.0000
  C   C282      1.0  0.83191  0.90127  0.55587  1.0000
  H   H458      1.0  0.61381  0.90504  0.85427  1.0000
  H   H459      1.0  0.39140  0.86777  0.76165  1.0000
  H   H460      1.0  0.65253  0.97190  0.54289  1.0000
  C   C283      1.0  0.61900  0.89546  0.82879  1.0000
  C   C284      1.0  0.58927  0.77560  0.81165  1.0000
  H   H461      1.0  0.62388  0.77158  0.81787  1.0000
  C   C285      1.0  0.63269  0.87115  0.76272  1.0000
  C   C286      1.0  0.41759  0.81474  0.53679  1.0000
  N   N20       1.0  0.82772  0.75939  0.54809  1.0000
  C   C287      1.0  0.37451  0.87829  0.52504  1.0000
  C   C288      1.0  0.40727  0.95985  0.99895  1.0000
  H   H462      1.0  0.84096  0.98526  0.86098  1.0000
  Fe  Fe45      1.0  0.41578  0.98260  0.90829  1.0000
  C   C289      1.0  0.46303  0.89654  0.67386  1.0000
  C   C290      1.0  0.56307  0.86644  0.00229  1.0000
  C   C291      1.0  0.41214  0.92215  0.98514  1.0000
  H   H463      1.0  0.54359  0.88574  0.60872  1.0000
  H   H464      1.0  0.62813  0.80792  0.92412  1.0000
  S   S84       1.0  0.61913  0.91130  0.63961  1.0000
  S   S85       1.0  0.68485  0.94360  0.69425  1.0000
  C   C292      1.0  0.44059  0.89461  0.78885  1.0000
  H   H465      1.0  0.69734  0.79563  0.73274  1.0000
  H   H466      1.0  0.39652  0.83644  0.71003  1.0000
  C   C293      1.0  0.83415  0.81090  0.71942  1.0000
  H   H467      1.0  0.50421  0.86475  0.97133  1.0000
  H   H468      1.0  0.73955  0.90384  0.00567  1.0000
  C   C294      1.0  0.58867  0.81807  0.59656  1.0000
  C   C295      1.0  0.76201  0.92134  0.53224  1.0000
  S   S86       1.0  0.38782  0.68059  0.78400  1.0000
  Fe  Fe46      1.0  0.74745  0.98671  0.86771  1.0000
  H   H469      1.0  0.42471  0.91506  0.71566  1.0000
  C   C296      1.0  0.77231  0.79813  0.98188  1.0000
  C   C297      1.0  0.76290  0.78386  0.71152  1.0000
  C   C298      1.0  0.81765  0.97983  0.62932  1.0000
  C   C299      1.0  0.38439  0.73783  0.89028  1.0000
  H   H470      1.0  0.48044  0.79985  0.00513  1.0000
  H   H471      1.0  0.51052  0.79140  0.90605  1.0000
  H   H472      1.0  0.72203  0.74605  0.75058  1.0000
  N   N21       1.0  0.79536  0.76336  0.92791  1.0000
  H   H473      1.0  0.70788  0.91180  0.56828  1.0000
  H   H474      1.0  0.65792  0.82070  0.58666  1.0000
  C   C300      1.0  0.49732  0.89855  0.56853  1.0000
  C   C301      1.0  0.63990  0.95800  0.01089  1.0000
  H   H475      1.0  0.41143  0.98906  0.98230  1.0000
  C   C302      1.0  0.36902  0.83622  0.58182  1.0000
  H   H476      1.0  0.40852  0.77997  0.58780  1.0000
  S   S87       1.0  0.44569  0.69002  0.69569  1.0000
  S   S88       1.0  0.67895  0.67008  0.85604  1.0000
  H   H477      1.0  0.78300  0.82972  0.91237  1.0000
  H   H478      1.0  0.49801  0.75278  0.58461  1.0000
  H   H479      1.0  0.84785  0.77887  0.71826  1.0000
  H   H480      1.0  0.82673  0.67929  0.94915  1.0000
  H   H481      1.0  0.50493  0.75123  0.00074  1.0000
  H   H482      1.0  0.51302  0.86125  0.75930  1.0000
  C   C303      1.0  0.45508  0.89632  0.71334  1.0000
  H   H483      1.0  0.75633  0.80204  0.68571  1.0000
  S   S89       1.0  0.69549  0.73761  0.62915  1.0000
  H   H484      1.0  0.78206  0.83292  0.85087  1.0000
  H   H485      1.0  0.54454  0.72702  0.92694  1.0000
  C   C304      1.0  0.80671  0.91778  0.52787  1.0000
  H   H486      1.0  0.36488  0.98807  0.72886  1.0000
  C   C305      1.0  0.39958  0.77488  0.89964  1.0000
  H   H487      1.0  0.75971  0.82758  0.96731  1.0000
  H   H488      1.0  0.75601  0.79098  0.78345  1.0000
  H   H489      1.0  0.65184  0.70100  0.72858  1.0000
  Fe  Fe47      1.0  0.68971  0.92226  0.64196  1.0000
  H   H490      1.0  0.52935  0.74567  0.82691  1.0000
  C   C306      1.0  0.67619  0.68893  0.99146  1.0000
  C   C307      1.0  0.80816  0.76823  0.61229  1.0000
  H   H491      1.0  0.59400  0.76705  0.94204  1.0000
  Fe  Fe48      1.0  0.42099  0.71779  0.97696  1.0000
  H   H492      1.0  0.41129  0.85522  0.99613  1.0000
  H   H493      1.0  0.48244  0.75329  0.62897  1.0000
  H   H494      1.0  0.63118  0.86965  0.57509  1.0000
  H   H495      1.0  0.48787  0.77268  0.87012  1.0000
  C   C308      1.0  0.39929  0.80769  0.57049  1.0000
  H   H496      1.0  0.50680  0.90927  0.99458  1.0000
  Fe  Fe49      1.0  0.76528  0.92668  0.93337  1.0000
  H   H497      1.0  0.51841  0.82996  0.82922  1.0000
  C   C309      1.0  0.74246  0.90883  0.56485  1.0000
  S   S90       1.0  0.77322  0.92099  0.87674  1.0000
  C   C310      1.0  0.80745  0.74467  0.77778  1.0000
  H   H498      1.0  0.53351  0.76412  0.52306  1.0000
  H   H499      1.0  0.58605  0.76574  0.78560  1.0000
  S   S91       1.0  0.39356  0.97926  0.85467  1.0000
  H   H500      1.0  0.45477  0.76454  0.74464  1.0000
  H   H501      1.0  0.78815  0.97562  0.61486  1.0000
  N   N22       1.0  0.45226  0.85435  0.73573  1.0000
  C   C311      1.0  0.54371  0.71192  0.74098  1.0000
  H   H502      1.0  0.59359  0.78381  0.60081  1.0000
  H   H503      1.0  0.78991  0.93842  0.67246  1.0000
  H   H504      1.0  0.78121  0.77784  0.85176  1.0000
  C   C312      1.0  0.56136  0.74787  0.83850  1.0000
  C   C313      1.0  0.76872  0.76104  0.96126  1.0000
  H   H505      1.0  0.78764  0.87498  0.77934  1.0000
  C   C314      1.0  0.41078  0.97550  0.54801  1.0000
  H   H506      1.0  0.44059  0.79227  0.52811  1.0000
  H   H507      1.0  0.80461  0.99275  0.55836  1.0000
  Fe  Fe50      1.0  0.67617  0.70949  0.58249  1.0000
  H   H508      1.0  0.49417  0.81099  0.76813  1.0000
  H   H509      1.0  0.73411  0.75868  0.95578  1.0000
  C   C315      1.0  0.79065  0.72413  0.91144  1.0000
  H   H510      1.0  0.46946  0.88957  0.58622  1.0000
  C   C316      1.0  0.84053  0.83523  0.68272  1.0000
  C   C317      1.0  0.61050  0.98360  0.99076  1.0000
  C   C318      1.0  0.59973  0.90005  0.76852  1.0000
  H   H511      1.0  0.40211  0.78047  0.76045  1.0000
  H   H512      1.0  0.79251  0.71407  0.52534  1.0000
  H   H513      1.0  0.83176  0.87447  0.60969  1.0000
  Fe  Fe51      1.0  0.63532  0.70907  0.65311  1.0000
  C   C319      1.0  0.40754  0.88439  0.00684  1.0000
  H   H514      1.0  0.58673  0.85315  0.98429  1.0000
  C   C320      1.0  0.61551  0.67002  0.77207  1.0000
  S   S92       1.0  0.67769  0.74894  0.53034  1.0000
  H   H515      1.0  0.38154  0.96074  0.56046  1.0000
  H   H516      1.0  0.80299  0.74887  0.63786  1.0000
  H   H517      1.0  0.57991  0.80900  0.80941  1.0000
  C   C321      1.0  0.62822  0.83568  0.57492  1.0000
  H   H518      1.0  0.83490  0.86921  0.68262  1.0000
  C   C322      1.0  0.54014  0.87780  0.58195  1.0000
  C   C323      1.0  0.59674  0.79359  0.92094  1.0000
  H   H519      1.0  0.62517  0.75820  0.88230  1.0000
  C   C324      1.0  0.51310  0.69275  0.89234  1.0000
  H   H520      1.0  0.80582  0.80213  0.98941  1.0000
  C   C325      1.0  0.77693  0.79930  0.90334  1.0000
  H   H521      1.0  0.51735  0.67976  0.64973  1.0000
  Fe  Fe52      1.0  0.61609  0.97754  0.61377  1.0000
  C   C326      1.0  0.50788  0.76337  0.60907  1.0000
  H   H522      1.0  0.49145  0.87738  0.66758  1.0000
  C   C327      1.0  0.62841  0.97073  0.52368  1.0000
  C   C328      1.0  0.79030  0.88355  0.75072  1.0000
  H   H523      1.0  0.51343  0.81932  0.63232  1.0000
  H   H524      1.0  0.43994  0.92584  0.77326  1.0000
  S   S93       1.0  0.42640  0.77551  0.93852  1.0000
  C   C329      1.0  0.51136  0.78505  0.99794  1.0000
  C   C330      1.0  0.36941  0.81348  0.84773  1.0000
  H   H525      1.0  0.42540  0.83113  0.78687  1.0000
  H   H526      1.0  0.47805  0.82266  0.59696  1.0000
  H   H527      1.0  0.41825  0.89644  0.81155  1.0000
  S   S94       1.0  0.42559  0.92111  0.94119  1.0000
  H   H528      1.0  0.66956  0.75215  0.00166  1.0000
  H   H529      1.0  0.82934  0.80266  0.86278  1.0000
  H   H530      1.0  0.40816  0.76106  0.72000  1.0000
  C   C331      1.0  0.79650  0.68211  0.93492  1.0000
  H   H531      1.0  0.84986  0.66975  0.55594  1.0000
  H   H532      1.0  0.83762  0.78592  0.61427  1.0000
  H   H533      1.0  0.68357  0.83118  0.78616  1.0000
  C   C332      1.0  0.76759  0.89173  0.59271  1.0000
  H   H534      1.0  0.54363  0.85250  0.70388  1.0000
  H   H535      1.0  0.43314  0.98118  0.56837  1.0000
  C   C333      1.0  0.36182  0.73867  0.85941  1.0000
  H   H536      1.0  0.74124  0.79745  0.90265  1.0000
  N   N23       1.0  0.54529  0.83124  0.58171  1.0000
  Fe  Fe53      1.0  0.67859  0.97103  0.92440  1.0000
  H   H537      1.0  0.39000  0.70861  0.90676  1.0000
  Fe  Fe54      1.0  0.61383  0.93986  0.68888  1.0000
  H   H538      1.0  0.75792  0.72364  0.90051  1.0000
  H   H539      1.0  0.57685  0.71626  0.83921  1.0000
  H   H540      1.0  0.63806  0.86191  0.73711  1.0000
  H   H541      1.0  0.51385  0.68520  0.86534  1.0000
  C   C334      1.0  0.81226  0.88759  0.58817  1.0000
  H   H542      1.0  0.56836  0.75679  0.55876  1.0000
  C   C335      1.0  0.52595  0.88722  0.98019  1.0000
  H   H543      1.0  0.77388  0.91461  0.74485  1.0000
  H   H544      1.0  0.72441  0.67031  0.72265  1.0000
  C   C336      1.0  0.55062  0.72019  0.89986  1.0000
  H   H545      1.0  0.80761  0.72776  0.75489  1.0000
  H   H546      1.0  0.57839  0.78373  0.00705  1.0000
  H   H547      1.0  0.84113  0.74476  0.78645  1.0000
  H   H548      1.0  0.43424  0.88620  0.66152  1.0000
  H   H549      1.0  0.40498  0.84115  0.88496  1.0000
  H   H550      1.0  0.49971  0.93282  0.56761  1.0000
  H   H551      1.0  0.78061  0.72501  0.58240  1.0000
  C   C337      1.0  0.71877  0.76929  0.72699  1.0000
  C   C338      1.0  0.53873  0.68516  0.77225  1.0000
  H   H552      1.0  0.51591  0.72713  0.72837  1.0000
  S   S95       1.0  0.61346  0.68516  0.60537  1.0000
  C   C339      1.0  0.49616  0.83775  0.74692  1.0000
  H   H553      1.0  0.48780  0.84866  0.86378  1.0000
  H   H554      1.0  0.81390  0.72337  0.88905  1.0000
  H   H555      1.0  0.56655  0.93383  0.80605  1.0000
  N   N24       1.0  0.78835  0.80908  0.73334  1.0000
  H   H556      1.0  0.44536  0.81952  0.69190  1.0000
  S   S96       1.0  0.69785  0.90351  0.93893  1.0000
  S   S97       1.0  0.66970  0.70398  0.94676  1.0000
  H   H557      1.0  0.78791  0.72621  0.79849  1.0000
  C   C340      1.0  0.54114  0.82220  0.54487  1.0000
  C   C341      1.0  0.76770  0.85212  0.73134  1.0000
  H   H558      1.0  0.85536  0.82441  0.73730  1.0000
  H   H559      1.0  0.83982  0.98188  0.93303  1.0000
  H   H560      1.0  0.50688  0.82519  0.53743  1.0000
  C   C342      1.0  0.80519  0.96928  0.66827  1.0000
  Fe  Fe55      1.0  0.72602  0.67492  0.64675  1.0000
  H   H561      1.0  0.84033  0.95481  0.62237  1.0000
  H   H562      1.0  0.49072  0.89269  0.54175  1.0000
  S   S98       1.0  0.68738  0.98668  0.61211  1.0000
  H   H563      1.0  0.79537  0.81804  0.55513  1.0000
  C   C343      1.0  0.81253  0.73937  0.58370  1.0000
  H   H564      1.0  0.82453  0.88744  0.74242  1.0000
  S   S99       1.0  0.47398  0.66938  0.97996  1.0000
  C   C344      1.0  0.82539  0.72677  0.52397  1.0000
  H   H565      1.0  0.42660  0.95252  0.53252  1.0000
  S   S100      1.0  0.74547  0.99422  0.92415  1.0000
  H   H566      1.0  0.50699  0.68048  0.78419  1.0000
  S   S101      1.0  0.36865  0.67154  0.98141  1.0000
  H   H567      1.0  0.83476  0.71344  0.59400  1.0000
  H   H568      1.0  0.76858  0.67592  0.95330  1.0000
  C   C345      1.0  0.84206  0.77190  0.93266  1.0000
  C   C346      1.0  0.79646  0.79469  0.53670  1.0000
  H   H569      1.0  0.83375  0.96683  0.68485  1.0000
  H   H570      1.0  0.55800  0.84626  0.52643  1.0000
  H   H571      1.0  0.36286  0.84286  0.83169  1.0000
  H   H572      1.0  0.58663  0.78342  0.51780  1.0000
  C   C347      1.0  0.56974  0.99235  0.00478  1.0000
  H   H573      1.0  0.84617  0.80516  0.93623  1.0000
  S   S102      1.0  0.56971  0.99665  0.57121  1.0000
  H   H574      1.0  0.75242  0.79241  0.00628  1.0000
  H   H575      1.0  0.78138  0.99205  0.67717  1.0000
  H   H576      1.0  0.39341  0.01937  0.23586  1.0000
  H   H577      1.0  0.79979  0.03474  0.09519  1.0000
  H   H578      1.0  0.65707  0.30123  0.42395  1.0000
  H   H579      1.0  0.61635  0.03799  0.06514  1.0000
  H   H580      1.0  0.78947  0.22518  0.37593  1.0000
  H   H581      1.0  0.40736  0.14128  0.13375  1.0000
  H   H582      1.0  0.83593  0.01470  0.39826  1.0000
  C   C348      1.0  0.50346  0.09762  0.42771  1.0000
  H   H583      1.0  0.47776  0.09981  0.09826  1.0000
  H   H584      1.0  0.65314  0.07667  0.27525  1.0000
  C   C349      1.0  0.66621  0.04545  0.28620  1.0000
  S   S103      1.0  0.62685  0.28507  0.49869  1.0000
  H   H585      1.0  0.80431  0.07142  0.26484  1.0000
  H   H586      1.0  0.43606  0.12777  0.07501  1.0000
  C   C350      1.0  0.78437  0.06626  0.09182  1.0000
  H   H587      1.0  0.64603  0.04574  0.45134  1.0000
  H   H588      1.0  0.68060  0.18609  0.13359  1.0000
  H   H589      1.0  0.66342  0.18131  0.19687  1.0000
  C   C351      1.0  0.84495  0.16580  0.37074  1.0000
  C   C352      1.0  0.74740  0.08285  0.01868  1.0000
  H   H590      1.0  0.50381  0.25314  0.47708  1.0000
  C   C353      1.0  0.77330  0.04077  0.22679  1.0000
  H   H591      1.0  0.62919  0.05059  0.40678  1.0000
  C   C354      1.0  0.50823  0.27440  0.49670  1.0000
  S   S104      1.0  0.38891  0.25917  0.36968  1.0000
  C   C355      1.0  0.56780  0.32401  0.19510  1.0000
  H   H592      1.0  0.59029  0.07321  0.33717  1.0000
  S   S105      1.0  0.56237  0.27777  0.33187  1.0000
  H   H593      1.0  0.80361  0.08803  0.07349  1.0000
  Fe  Fe56      1.0  0.37511  0.23456  0.42567  1.0000
  C   C356      1.0  0.60698  0.14501  0.19445  1.0000
  H   H594      1.0  0.40206  0.18841  0.15393  1.0000
  C   C357      1.0  0.45279  0.28444  0.25354  1.0000
  H   H595      1.0  0.50011  0.22678  0.04870  1.0000
  N   N25       1.0  0.63227  0.01281  0.28729  1.0000
  H   H596      1.0  0.42928  0.10824  0.48217  1.0000
  H   H597      1.0  0.85169  0.16877  0.31337  1.0000
  H   H598      1.0  0.43381  0.12913  0.29857  1.0000
  H   H599      1.0  0.58101  0.05928  0.28163  1.0000
  H   H600      1.0  0.61068  0.12838  0.50896  1.0000
  H   H601      1.0  0.44521  0.26377  0.11357  1.0000
  H   H602      1.0  0.35675  0.31076  0.22840  1.0000
  C   C358      1.0  0.59025  0.12895  0.13731  1.0000
  S   S106      1.0  0.44623  0.07504  0.18778  1.0000
  C   C359      1.0  0.67887  0.05728  0.04277  1.0000
  C   C360      1.0  0.47052  0.12906  0.08064  1.0000
  H   H603      1.0  0.84574  0.31990  0.15105  1.0000
  H   H604      1.0  0.46256  0.22072  0.14357  1.0000
  H   H605      1.0  0.48979  0.12816  0.05620  1.0000
  S   S107      1.0  0.82140  0.26639  0.10286  1.0000
  C   C361      1.0  0.41904  0.03041  0.24992  1.0000
  C   C362      1.0  0.74261  0.12880  0.44269  1.0000
  C   C363      1.0  0.72483  0.15396  0.41425  1.0000
  S   S108      1.0  0.68651  0.24556  0.32860  1.0000
  H   H606      1.0  0.42485  0.29174  0.27047  1.0000
  H   H607      1.0  0.83590  0.06854  0.38207  1.0000
  H   H608      1.0  0.51831  0.27153  0.13286  1.0000
  C   C364      1.0  0.62890  0.00145  0.25100  1.0000
  H   H609      1.0  0.37928  0.12158  0.46240  1.0000
  H   H610      1.0  0.72200  0.04322  0.10368  1.0000
  C   C365      1.0  0.85036  0.04457  0.40179  1.0000
  H   H611      1.0  0.56541  0.29947  0.21791  1.0000
  H   H612      1.0  0.73568  0.31786  0.36051  1.0000
  S   S109      1.0  0.36270  0.26946  0.16581  1.0000
  C   C366      1.0  0.40752  0.19897  0.09621  1.0000
  H   H613      1.0  0.53802  0.26364  0.51036  1.0000
  H   H614      1.0  0.75784  0.09902  0.43926  1.0000
  C   C367      1.0  0.48186  0.07235  0.25079  1.0000
  S   S110      1.0  0.70944  0.17482  0.27599  1.0000
  H   H615      1.0  0.37127  0.00808  0.50804  1.0000
  Fe  Fe57      1.0  0.39310  0.04763  0.16162  1.0000
  C   C368      1.0  0.48211  0.25058  0.27329  1.0000
  H   H616      1.0  0.65979  0.00475  0.08226  1.0000
  Fe  Fe58      1.0  0.70075  0.24445  0.27216  1.0000
  S   S111      1.0  0.76387  0.17908  0.06035  1.0000
  C   C369      1.0  0.82039  0.24018  0.36691  1.0000
  H   H617      1.0  0.40469  0.21689  0.26517  1.0000
  H   H618      1.0  0.59454  0.18862  0.39649  1.0000
  C   C370      1.0  0.76400  0.25179  0.15792  1.0000
  C   C371      1.0  0.41411  0.15175  0.28139  1.0000
  C   C372      1.0  0.47724  0.19945  0.23090  1.0000
  H   H619      1.0  0.72134  0.23897  0.20282  1.0000
  C   C373      1.0  0.58425  0.03978  0.33619  1.0000
  C   C374      1.0  0.58325  0.30800  0.36074  1.0000
  H   H620      1.0  0.38921  0.22936  0.09374  1.0000
  H   H621      1.0  0.41484  0.14297  0.25472  1.0000
  H   H622      1.0  0.67997  0.06855  0.41680  1.0000
  C   C375      1.0  0.81816  0.30286  0.16200  1.0000
  H   H623      1.0  0.49537  0.07712  0.45214  1.0000
  H   H624      1.0  0.64314  0.08429  0.49835  1.0000
  C   C376      1.0  0.39365  0.17355  0.13111  1.0000
  Fe  Fe59      1.0  0.61789  0.23962  0.31501  1.0000
  H   H625      1.0  0.69331  0.03869  0.26824  1.0000
  H   H626      1.0  0.68633  0.23454  0.45541  1.0000
  H   H627      1.0  0.53870  0.18829  0.28179  1.0000
  H   H628      1.0  0.51864  0.29020  0.41831  1.0000
  H   H629      1.0  0.81814  0.15564  0.38927  1.0000
  H   H630      1.0  0.52006  0.27052  0.08727  1.0000
  S   S112      1.0  0.63870  0.15185  0.07873  1.0000
  C   C377      1.0  0.57712  0.08675  0.47836  1.0000
  H   H631      1.0  0.73384  0.11502  0.01929  1.0000
  C   C378      1.0  0.58917  0.02971  0.29844  1.0000
  C   C379      1.0  0.62679  0.11022  0.42879  1.0000
  C   C380      1.0  0.51630  0.21935  0.21039  1.0000
  H   H632      1.0  0.35807  0.17118  0.13197  1.0000
  H   H633      1.0  0.40848  0.22301  0.02345  1.0000
  H   H634      1.0  0.69007  0.21128  0.39735  1.0000
  H   H635      1.0  0.39790  0.06920  0.46506  1.0000
  H   H636      1.0  0.38045  0.14892  0.29160  1.0000
  H   H637      1.0  0.47296  0.27673  0.39648  1.0000
  C   C381      1.0  0.51289  0.32017  0.47992  1.0000
  C   C382      1.0  0.45513  0.03248  0.30413  1.0000
  H   H638      1.0  0.54118  0.16691  0.02055  1.0000
  Fe  Fe60      1.0  0.69036  0.17616  0.33206  1.0000
  H   H639      1.0  0.78221  0.08606  0.02193  1.0000
  C   C383      1.0  0.71927  0.17963  0.48040  1.0000
  H   H640      1.0  0.55966  0.06134  0.41767  1.0000
  C   C384      1.0  0.45561  0.31327  0.43820  1.0000
  S   S113      1.0  0.70000  0.25710  0.07764  1.0000
  H   H641      1.0  0.62038  0.02528  0.19651  1.0000
  C   C385      1.0  0.81477  0.25987  0.32868  1.0000
  C   C386      1.0  0.44902  0.05781  0.23240  1.0000
  H   H642      1.0  0.77700  0.06661  0.20619  1.0000
  Fe  Fe61      1.0  0.69289  0.19410  0.06134  1.0000
  H   H643      1.0  0.46958  0.16146  0.33907  1.0000
  C   C387      1.0  0.39251  0.22447  0.51546  1.0000
  C   C388      1.0  0.65241  0.16987  0.14445  1.0000
  C   C389      1.0  0.78314  0.01051  0.28676  1.0000
  H   H644      1.0  0.44449  0.17767  0.02534  1.0000
  H   H645      1.0  0.53873  0.15937  0.46231  1.0000
  H   H646      1.0  0.78350  0.27729  0.32640  1.0000
  C   C390      1.0  0.70212  0.20512  0.45191  1.0000
  C   C391      1.0  0.83759  0.19553  0.44008  1.0000
  H   H647      1.0  0.44793  0.21080  0.21635  1.0000
  C   C392      1.0  0.61438  0.29046  0.38387  1.0000
  N   N26       1.0  0.72707  0.05285  0.04728  1.0000
  H   H648      1.0  0.75269  0.12165  0.49788  1.0000
  H   H649      1.0  0.55103  0.03333  0.34619  1.0000
  S   S114      1.0  0.63157  0.24549  0.25796  1.0000
  H   H650      1.0  0.47973  0.15920  0.51097  1.0000
  C   C393      1.0  0.73672  0.06519  0.08231  1.0000
  H   H651      1.0  0.50558  0.20440  0.33845  1.0000
  H   H652      1.0  0.55741  0.11037  0.39145  1.0000
  H   H653      1.0  0.52605  0.15206  0.34021  1.0000
  H   H654      1.0  0.51634  0.25838  0.26695  1.0000
  H   H655      1.0  0.49139  0.12986  0.42951  1.0000
  S   S115      1.0  0.59597  0.13858  0.23926  1.0000
  H   H656      1.0  0.42718  0.31511  0.50259  1.0000
  C   C394      1.0  0.76760  0.28502  0.21004  1.0000
  H   H657      1.0  0.64596  0.06112  0.21931  1.0000
  H   H658      1.0  0.65025  0.05576  0.09574  1.0000
  H   H659      1.0  0.60635  0.28796  0.13400  1.0000
  H   H660      1.0  0.55677  0.31075  0.17233  1.0000
  H   H661      1.0  0.50982  0.25305  0.20232  1.0000
  H   H662      1.0  0.47825  0.25506  0.30116  1.0000
  H   H663      1.0  0.82251  0.26689  0.38204  1.0000
  C   C395      1.0  0.42783  0.19702  0.28155  1.0000
  C   C396      1.0  0.39680  0.09663  0.47937  1.0000
  Fe  Fe62      1.0  0.77084  0.24497  0.07045  1.0000
  H   H664      1.0  0.53740  0.17888  0.39737  1.0000
  H   H665      1.0  0.55717  0.21899  0.41900  1.0000
  H   H666      1.0  0.42607  0.02070  0.50444  1.0000
  C   C397      1.0  0.73953  0.14147  0.47581  1.0000
  H   H667      1.0  0.44043  0.27561  0.22927  1.0000
  S   S116      1.0  0.62003  0.17019  0.32441  1.0000
  H   H668      1.0  0.66431  0.06166  0.34017  1.0000
  H   H669      1.0  0.53798  0.22533  0.11683  1.0000
  S   S117      1.0  0.74854  0.29228  0.25160  1.0000
  C   C398      1.0  0.80226  0.30817  0.19528  1.0000
  C   C399      1.0  0.56933  0.15710  0.44682  1.0000
  Fe  Fe63      1.0  0.63808  0.17598  0.26782  1.0000
  C   C400      1.0  0.55206  0.09504  0.41860  1.0000
  C   C401      1.0  0.48441  0.06023  0.28657  1.0000
  H   H670      1.0  0.58832  0.05265  0.22528  1.0000
  C   C402      1.0  0.78873  0.04349  0.25989  1.0000
  H   H671      1.0  0.62091  0.30867  0.09037  1.0000
  H   H672      1.0  0.62958  0.12770  0.40216  1.0000
  H   H673      1.0  0.74965  0.22945  0.14377  1.0000
  H   H674      1.0  0.39458  0.18247  0.07575  1.0000
  H   H675      1.0  0.50888  0.07283  0.30083  1.0000
  H   H676      1.0  0.59403  0.17086  0.46160  1.0000
  C   C403      1.0  0.68724  0.05107  0.32067  1.0000
  H   H677      1.0  0.82551  0.12423  0.33493  1.0000
  C   C404      1.0  0.64587  0.06609  0.42604  1.0000
  H   H678      1.0  0.51657  0.17245  0.09162  1.0000
  C   C405      1.0  0.74827  0.25688  0.19142  1.0000
  C   C406      1.0  0.58035  0.12655  0.17291  1.0000
  H   H679      1.0  0.71161  0.07566  0.31521  1.0000
  H   H680      1.0  0.83456  0.16115  0.44377  1.0000
  H   H681      1.0  0.84048  0.05289  0.42768  1.0000
  H   H682      1.0  0.44304  0.28401  0.45266  1.0000
  S   S118      1.0  0.72626  0.31736  0.49711  1.0000
  H   H683      1.0  0.57028  0.11359  0.12091  1.0000
  H   H684      1.0  0.54612  0.21513  0.22537  1.0000
  H   H685      1.0  0.63570  0.30971  0.19131  1.0000
  C   C407      1.0  0.62041  0.03769  0.22182  1.0000
  H   H686      1.0  0.50532  0.09323  0.23739  1.0000
  C   C408      1.0  0.50544  0.17791  0.28883  1.0000
  N   N27       1.0  0.58125  0.11231  0.44307  1.0000
  H   H687      1.0  0.80558  0.21084  0.43508  1.0000
  C   C409      1.0  0.46698  0.23548  0.11620  1.0000
  C   C410      1.0  0.70459  0.19212  0.41890  1.0000
  H   H688      1.0  0.54474  0.09173  0.49041  1.0000
  C   C411      1.0  0.50079  0.17425  0.32883  1.0000
  H   H689      1.0  0.70510  0.02260  0.33205  1.0000
  H   H690      1.0  0.62435  0.25814  0.38453  1.0000
  H   H691      1.0  0.79660  0.17259  0.33014  1.0000
  H   H692      1.0  0.47136  0.31316  0.24583  1.0000
  H   H693      1.0  0.66847  0.09070  0.03769  1.0000
  C   C412      1.0  0.65020  0.03754  0.07347  1.0000
  C   C413      1.0  0.42461  0.20044  0.50075  1.0000
  H   H694      1.0  0.36872  0.24154  0.49930  1.0000
  H   H695      1.0  0.72188  0.09647  0.08489  1.0000
  H   H696      1.0  0.81408  0.23687  0.31025  1.0000
  H   H697      1.0  0.64869  0.12573  0.44470  1.0000
  S   S119      1.0  0.40009  0.04300  0.10468  1.0000
  C   C414      1.0  0.63252  0.31466  0.40643  1.0000
  H   H698      1.0  0.50485  0.14584  0.28181  1.0000
  H   H699      1.0  0.80985  0.02508  0.03574  1.0000
  S   S120      1.0  0.42795  0.19828  0.45576  1.0000
  N   N28       1.0  0.45518  0.20618  0.09105  1.0000
  H   H700      1.0  0.45554  0.26160  0.05279  1.0000
  S   S121      1.0  0.80044  0.01508  0.32847  1.0000
  N   N29       1.0  0.47309  0.20628  0.26861  1.0000
  C   C415      1.0  0.56451  0.18701  0.41267  1.0000
  H   H701      1.0  0.52231  0.20445  0.18648  1.0000
  H   H702      1.0  0.48263  0.15572  0.12732  1.0000
  C   C416      1.0  0.82904  0.15827  0.33504  1.0000
  H   H703      1.0  0.56276  0.00890  0.29388  1.0000
  C   C417      1.0  0.64269  0.16717  0.18023  1.0000
  C   C418      1.0  0.42223  0.01748  0.28588  1.0000
  H   H704      1.0  0.81727  0.32966  0.20988  1.0000
  S   S122      1.0  0.46199  0.01664  0.34855  1.0000
  C   C419      1.0  0.61015  0.09513  0.50523  1.0000
  H   H705      1.0  0.42185  0.20548  0.30820  1.0000
  C   C420      1.0  0.51360  0.25113  0.11263  1.0000
  H   H706      1.0  0.55258  0.10952  0.18379  1.0000
  H   H707      1.0  0.48544  0.08609  0.40682  1.0000
  C   C421      1.0  0.79920  0.27459  0.14337  1.0000
  C   C422      1.0  0.48675  0.30194  0.40898  1.0000
  C   C423      1.0  0.48215  0.16660  0.09879  1.0000
  H   H708      1.0  0.57949  0.05303  0.47607  1.0000
  H   H709      1.0  0.47937  0.16554  0.22855  1.0000
  C   C424      1.0  0.62640  0.15035  0.12312  1.0000
  S   S123      1.0  0.72589  0.13576  0.37380  1.0000
  H   H710      1.0  0.78574  0.07750  0.11756  1.0000
  C   C425      1.0  0.46491  0.22780  0.05477  1.0000
  C   C426      1.0  0.60883  0.31735  0.11576  1.0000
  H   H711      1.0  0.60464  0.02043  0.35508  1.0000
  H   H712      1.0  0.36486  0.06295  0.03174  1.0000
  C   C427      1.0  0.74042  0.00799  0.04524  1.0000
  C   C428      1.0  0.37200  0.08889  0.51451  1.0000
  H   H713      1.0  0.42755  0.32894  0.42477  1.0000
  Fe  Fe64      1.0  0.70261  0.27870  0.02063  1.0000
  C   C429      1.0  0.44260  0.21186  0.02448  1.0000
  H   H714      1.0  0.54114  0.32158  0.46143  1.0000
  H   H715      1.0  0.54432  0.31776  0.02203  1.0000
  H   H716      1.0  0.57689  0.20910  0.01869  1.0000
  C   C430      1.0  0.75242  0.00500  0.22053  1.0000
  H   H717      1.0  0.49046  0.32902  0.38843  1.0000
  H   H718      1.0  0.84003  0.28254  0.31977  1.0000
  H   H719      1.0  0.84832  0.20388  0.46522  1.0000
  H   H720      1.0  0.84630  0.18930  0.24716  1.0000
  H   H721      1.0  0.84657  0.24321  0.25192  1.0000
  H   H722      1.0  0.84058  0.15650  0.19839  1.0000
  H   H723      1.0  0.66996  0.32661  0.13518  1.0000
  S   S124      1.0  0.73128  0.00286  0.17970  1.0000
  H   H724      1.0  0.47142  0.06748  0.51480  1.0000
  H   H725      1.0  0.85443  0.23068  0.19083  1.0000
  H   H726      1.0  0.66910  0.04345  0.01961  1.0000
  C   C431      1.0  0.39351  0.25253  0.80538  1.0000
  H   H727      1.0  0.85103  0.22285  0.88878  1.0000
  C   C432      1.0  0.60419  0.02700  0.77071  1.0000
  H   H728      1.0  0.82373  0.10406  0.57908  1.0000
  H   H729      1.0  0.82708  0.32664  0.90500  1.0000
  H   H730      1.0  0.57324  0.15655  0.55617  1.0000
  H   H731      1.0  0.60117  0.07714  0.53071  1.0000
  H   H732      1.0  0.55760  0.09237  0.99049  1.0000
  S   S125      1.0  0.68150  0.32285  0.81129  1.0000
  C   C433      1.0  0.55568  0.15591  0.63638  1.0000
  Fe  Fe65      1.0  0.61095  0.31193  0.82026  1.0000
  H   H733      1.0  0.68101  0.11985  0.91713  1.0000
  C   C434      1.0  0.77358  0.16174  0.86642  1.0000
  H   H734      1.0  0.49797  0.07125  0.95518  1.0000
  C   C435      1.0  0.74240  0.07208  0.98160  1.0000
  H   H735      1.0  0.44225  0.17716  0.83499  1.0000
  H   H736      1.0  0.45814  0.22525  0.99947  1.0000
  C   C436      1.0  0.42108  0.20339  0.57281  1.0000
  H   H737      1.0  0.73707  0.23699  0.93208  1.0000
  C   C437      1.0  0.37468  0.16889  0.97235  1.0000
  C   C438      1.0  0.76324  0.07839  0.72964  1.0000
  H   H738      1.0  0.60524  0.10242  0.91799  1.0000
  C   C439      1.0  0.78071  0.27121  0.63826  1.0000
  H   H739      1.0  0.54484  0.15583  0.78249  1.0000
  H   H740      1.0  0.54950  0.06322  0.93554  1.0000
  C   C440      1.0  0.78785  0.15479  0.90051  1.0000
  H   H741      1.0  0.70871  0.10959  0.83496  1.0000
  C   C441      1.0  0.79821  0.23390  0.57270  1.0000
  C   C442      1.0  0.80951  0.09994  0.60581  1.0000
  H   H742      1.0  0.65934  0.09733  0.85940  1.0000
  H   H743      1.0  0.47109  0.04172  0.66664  1.0000
  C   C443      1.0  0.47756  0.03719  0.72212  1.0000
  H   H744      1.0  0.63454  0.13418  0.67159  1.0000
  C   C444      1.0  0.45504  0.19989  0.81317  1.0000
  H   H745      1.0  0.83070  0.20288  0.63557  1.0000
  H   H746      1.0  0.77914  0.11905  0.60516  1.0000
  H   H747      1.0  0.51472  0.11796  0.81042  1.0000
  H   H748      1.0  0.80230  0.09350  0.77073  1.0000
  C   C445      1.0  0.67535  0.17978  0.64253  1.0000
  H   H749      1.0  0.78662  0.05444  0.64628  1.0000
  S   S126      1.0  0.38805  0.01085  0.65644  1.0000
  S   S127      1.0  0.46657  0.02940  0.89174  1.0000
  H   H750      1.0  0.75882  0.04200  0.97846  1.0000
  C   C446      1.0  0.65457  0.10598  0.59244  1.0000
  C   C447      1.0  0.48496  0.24545  0.87078  1.0000
  C   C448      1.0  0.77423  0.28697  0.67388  1.0000
  H   H751      1.0  0.68817  0.07975  0.78837  1.0000
  S   S128      1.0  0.42296  0.13591  0.92204  1.0000
  H   H752      1.0  0.83810  0.20955  0.69309  1.0000
  S   S129      1.0  0.69040  0.21683  0.00463  1.0000
  H   H753      1.0  0.48178  0.27090  0.51664  1.0000
  C   C449      1.0  0.46870  0.27535  0.79631  1.0000
  H   H754      1.0  0.68086  0.12869  0.72759  1.0000
  H   H755      1.0  0.78386  0.14056  0.84822  1.0000
  S   S130      1.0  0.42517  0.29828  0.94743  1.0000
  C   C450      1.0  0.56069  0.18877  0.00249  1.0000
  H   H756      1.0  0.61429  0.18650  0.66790  1.0000
  S   S131      1.0  0.71474  0.19472  0.52193  1.0000
  H   H757      1.0  0.36162  0.01805  0.58764  1.0000
  H   H758      1.0  0.84309  0.01840  0.52850  1.0000
  C   C451      1.0  0.51144  0.32661  0.01539  1.0000
  H   H759      1.0  0.62551  0.16824  0.78299  1.0000
  H   H760      1.0  0.55949  0.16107  0.90015  1.0000
  H   H761      1.0  0.70070  0.14820  0.76545  1.0000
  C   C452      1.0  0.41549  0.01446  0.69434  1.0000
  H   H762      1.0  0.67100  0.16011  0.94329  1.0000
  C   C453      1.0  0.54181  0.12194  0.79098  1.0000
  H   H763      1.0  0.37724  0.19849  0.95575  1.0000
  C   C454      1.0  0.71840  0.01860  0.74456  1.0000
  H   H764      1.0  0.62041  0.18724  0.97423  1.0000
  C   C455      1.0  0.85577  0.02398  0.58241  1.0000
  C   C456      1.0  0.63294  0.30869  0.90778  1.0000
  C   C457      1.0  0.58928  0.27727  0.67096  1.0000
  N   N30       1.0  0.43930  0.24387  0.81648  1.0000
  H   H765      1.0  0.60071  0.22041  0.60287  1.0000
  C   C458      1.0  0.44031  0.24987  0.85439  1.0000
  C   C459      1.0  0.59515  0.16482  0.98297  1.0000
  C   C460      1.0  0.85006  0.23072  0.63754  1.0000
  H   H766      1.0  0.37100  0.18943  0.82619  1.0000
  H   H767      1.0  0.58785  0.20878  0.54004  1.0000
  C   C461      1.0  0.45484  0.17778  0.52217  1.0000
  H   H768      1.0  0.47572  0.16085  0.57470  1.0000
  H   H769      1.0  0.68181  0.28893  0.94510  1.0000
  C   C462      1.0  0.60646  0.18970  0.59344  1.0000
  H   H770      1.0  0.47493  0.18715  0.76049  1.0000
  C   C463      1.0  0.77946  0.07215  0.76325  1.0000
  H   H771      1.0  0.36623  0.24484  0.56278  1.0000
  S   S132      1.0  0.67354  0.27508  0.74200  1.0000
  C   C464      1.0  0.73209  0.05203  0.72040  1.0000
  H   H772      1.0  0.48668  0.03366  0.55361  1.0000
  C   C465      1.0  0.76473  0.03948  0.78767  1.0000
  H   H773      1.0  0.84701  0.04404  0.88434  1.0000
  H   H774      1.0  0.64374  0.07114  0.73977  1.0000
  Fe  Fe66      1.0  0.61696  0.31082  0.54898  1.0000
  H   H775      1.0  0.63964  0.19143  0.58215  1.0000
  C   C466      1.0  0.45614  0.03207  0.69189  1.0000
  C   C467      1.0  0.56022  0.17512  0.92477  1.0000
  H   H776      1.0  0.51696  0.13127  0.97859  1.0000
  Fe  Fe67      1.0  0.67635  0.00733  0.66462  1.0000
  Fe  Fe68      1.0  0.41413  0.07690  0.89894  1.0000
  H   H777      1.0  0.64711  0.29157  0.88799  1.0000
  H   H778      1.0  0.61648  0.21801  0.92177  1.0000
  C   C468      1.0  0.65259  0.30728  0.94001  1.0000
  C   C469      1.0  0.44951  0.32089  0.98002  1.0000
  H   H779      1.0  0.84926  0.31413  0.65564  1.0000
  H   H780      1.0  0.49080  0.08813  0.55134  1.0000
  S   S133      1.0  0.62441  0.00569  0.94838  1.0000
  Fe  Fe69      1.0  0.38020  0.25738  0.63569  1.0000
  H   H781      1.0  0.42697  0.28131  0.85836  1.0000
  C   C470      1.0  0.49226  0.31007  0.98827  1.0000
  H   H782      1.0  0.80910  0.12834  0.90841  1.0000
  S   S134      1.0  0.48376  0.03494  0.79215  1.0000
  H   H783      1.0  0.67502  0.18267  0.73221  1.0000
  Fe  Fe70      1.0  0.60406  0.26738  0.75771  1.0000
  H   H784      1.0  0.71271  0.25010  0.87105  1.0000
  C   C471      1.0  0.63014  0.16303  0.65270  1.0000
  H   H785      1.0  0.40177  0.99956  0.78218  1.0000
  S   S135      1.0  0.39145  0.08251  0.84433  1.0000
  C   C472      1.0  0.62988  0.14424  0.76521  1.0000
  H   H786      1.0  0.79381  0.26937  0.69440  1.0000
  H   H787      1.0  0.67324  0.21327  0.63168  1.0000
  N   N31       1.0  0.57942  0.14433  0.95330  1.0000
  H   H788      1.0  0.55452  0.09483  0.67000  1.0000
  H   H789      1.0  0.50997  0.12944  0.67626  1.0000
  H   H790      1.0  0.69280  0.99950  0.73853  1.0000
  S   S136      1.0  0.70826  0.06315  0.67962  1.0000
  C   C473      1.0  0.58795  0.29329  0.63568  1.0000
  H   H791      1.0  0.62722  0.09408  0.96010  1.0000
  C   C474      1.0  0.57575  0.18828  0.56332  1.0000
  N   N32       1.0  0.83549  0.02260  0.61835  1.0000
  S   S137      1.0  0.37911  0.26404  0.69258  1.0000
  C   C475      1.0  0.47053  0.06365  0.54338  1.0000
  H   H792      1.0  0.73997  0.28341  0.68243  1.0000
  S   S138      1.0  0.73543  0.20743  0.81146  1.0000
  C   C476      1.0  0.55371  0.25702  0.68762  1.0000
  C   C477      1.0  0.65603  0.14277  0.92433  1.0000
  H   H793      1.0  0.51054  0.28888  0.97372  1.0000
  C   C478      1.0  0.46291  0.28430  0.75676  1.0000
  C   C479      1.0  0.55087  0.28961  0.61716  1.0000
  C   C480      1.0  0.79894  0.05422  0.61918  1.0000
  S   S139      1.0  0.39336  0.32473  0.61742  1.0000
  S   S140      1.0  0.77908  0.03719  0.83109  1.0000
  C   C481      1.0  0.41705  0.00836  0.75711  1.0000
  H   H794      1.0  0.52596  0.18245  0.93172  1.0000
  H   H795      1.0  0.58882  0.08521  0.73929  1.0000
  C   C482      1.0  0.61199  0.11253  0.61282  1.0000
  H   H796      1.0  0.51495  0.10683  0.91849  1.0000
  C   C483      1.0  0.80733  0.31708  0.92876  1.0000
  H   H797      1.0  0.61083  0.14125  0.00261  1.0000
  H   H798      1.0  0.38303  0.28491  0.80927  1.0000
  H   H799      1.0  0.56421  0.24196  0.92948  1.0000
  C   C484      1.0  0.67429  0.15069  0.74670  1.0000
  H   H800      1.0  0.50918  0.05038  0.72026  1.0000
  H   H801      1.0  0.61559  0.30850  0.62283  1.0000
  C   C485      1.0  0.58190  0.21785  0.91629  1.0000
  C   C486      1.0  0.67303  0.11045  0.83360  1.0000
  H   H802      1.0  0.40785  0.06729  0.97646  1.0000
  H   H803      1.0  0.75813  0.09606  0.96267  1.0000
  H   H804      1.0  0.79943  0.28401  0.92814  1.0000
  H   H805      1.0  0.56048  0.13939  0.69321  1.0000
  C   C487      1.0  0.73311  0.22320  0.87942  1.0000
  H   H806      1.0  0.53376  0.14642  0.61695  1.0000
  H   H807      1.0  0.60551  0.15308  0.74497  1.0000
  H   H808      1.0  0.78039  0.32075  0.67205  1.0000
  H   H809      1.0  0.59820  0.01036  0.74818  1.0000
  C   C488      1.0  0.39174  0.09496  0.98392  1.0000
  S   S141      1.0  0.41902  0.20378  0.61796  1.0000
  H   H810      1.0  0.80283  0.04891  0.54829  1.0000
  H   H811      1.0  0.74395  0.32748  0.95050  1.0000
  C   C489      1.0  0.39102  0.22631  0.55143  1.0000
  H   H812      1.0  0.48122  0.25037  0.89852  1.0000
  H   H813      1.0  0.66334  0.14380  0.82845  1.0000
  S   S142      1.0  0.55707  0.23321  0.73068  1.0000
  C   C490      1.0  0.45772  0.02592  0.75474  1.0000
  C   C491      1.0  0.61477  0.07268  0.75705  1.0000
  H   H814      1.0  0.65141  0.07888  0.57804  1.0000
  S   S143      1.0  0.36542  0.02992  0.92019  1.0000
  H   H815      1.0  0.58543  0.10146  0.59813  1.0000
  C   C492      1.0  0.39886  0.01547  0.52353  1.0000
  C   C493      1.0  0.74729  0.19655  0.85555  1.0000
  H   H816      1.0  0.83200  0.03341  0.94458  1.0000
  N   N33       1.0  0.82605  0.27009  0.62299  1.0000
  H   H817      1.0  0.68182  0.09884  0.61016  1.0000
  H   H818      1.0  0.77406  0.10432  0.71117  1.0000
  C   C494      1.0  0.51609  0.25450  0.66937  1.0000
  N   N34       1.0  0.60203  0.15509  0.62337  1.0000
  H   H819      1.0  0.57922  0.22893  0.88809  1.0000
  S   S144      1.0  0.67751  0.28150  0.57204  1.0000
  H   H820      1.0  0.49044  0.19697  0.81650  1.0000
  H   H821      1.0  0.77107  0.04576  0.60454  1.0000
  H   H822      1.0  0.83069  0.22905  0.82906  1.0000
  H   H823      1.0  0.84092  0.22724  0.76736  1.0000
  H   H824      1.0  0.46464  0.30619  0.80606  1.0000
  H   H825      1.0  0.37216  0.08622  0.71663  1.0000
  H   H826      1.0  0.41970  0.22703  0.87086  1.0000
  H   H827      1.0  0.41991  0.09926  0.56652  1.0000
  C   C495      1.0  0.82276  0.27015  0.58426  1.0000
  H   H828      1.0  0.48885  0.30494  0.74493  1.0000
  H   H829      1.0  0.57594  0.07163  0.82235  1.0000
  H   H830      1.0  0.75931  0.29172  0.62042  1.0000
  C   C496      1.0  0.61599  0.11895  0.93935  1.0000
  H   H831      1.0  0.84961  0.15499  0.75194  1.0000
  C   C497      1.0  0.39515  0.13310  0.96234  1.0000
  C   C498      1.0  0.54532  0.12801  0.67096  1.0000
  C   C499      1.0  0.45279  0.17894  0.55814  1.0000
  C   C500      1.0  0.82433  0.02087  0.55304  1.0000
  H   H832      1.0  0.65334  0.05280  0.81923  1.0000
  H   H833      1.0  0.58948  0.12223  0.82896  1.0000
  H   H834      1.0  0.53289  0.10653  0.76860  1.0000
  H   H835      1.0  0.63126  0.00987  0.78464  1.0000
  H   H836      1.0  0.50313  0.26574  0.80007  1.0000
  Fe  Fe71      1.0  0.43955  0.03064  0.83885  1.0000
  S   S145      1.0  0.79774  0.17531  0.96528  1.0000
  H   H837      1.0  0.46492  0.25598  0.74387  1.0000
  N   N35       1.0  0.62188  0.10111  0.78402  1.0000
  C   C501      1.0  0.52633  0.08772  0.94247  1.0000
  H   H838      1.0  0.48570  0.26857  0.61988  1.0000
  H   H839      1.0  0.48837  0.23903  0.68212  1.0000
  H   H840      1.0  0.76660  0.23973  0.64098  1.0000
  H   H841      1.0  0.69483  0.17745  0.66621  1.0000
  N   N36       1.0  0.38804  0.05360  0.54094  1.0000
  H   H842      1.0  0.57458  0.02422  0.78731  1.0000
  C   C502      1.0  0.58314  0.10294  0.80814  1.0000
  H   H843      1.0  0.69314  0.16227  0.62385  1.0000
  Fe  Fe72      1.0  0.68465  0.25715  0.79879  1.0000
  C   C503      1.0  0.77533  0.18227  0.92406  1.0000
  H   H844      1.0  0.85502  0.26905  0.57153  1.0000
  H   H845      1.0  0.41767  0.19515  0.76527  1.0000
  H   H846      1.0  0.70832  0.07154  0.97433  1.0000
  H   H847      1.0  0.43211  0.30119  0.75055  1.0000
  H   H848      1.0  0.38993  0.25202  0.77718  1.0000
  Fe  Fe73      1.0  0.76162  0.20779  0.00465  1.0000
  C   C504      1.0  0.54516  0.11432  0.96813  1.0000
  H   H849      1.0  0.61343  0.08898  0.63631  1.0000
  S   S146      1.0  0.55029  0.30645  0.57250  1.0000
  C   C505      1.0  0.36016  0.22254  0.82419  1.0000
  H   H850      1.0  0.50727  0.26936  0.85825  1.0000
  C   C506      1.0  0.51456  0.27120  0.63417  1.0000
  H   H851      1.0  0.61827  0.27966  0.68492  1.0000
  S   S147      1.0  0.61565  0.24447  0.81357  1.0000
  H   H852      1.0  0.54497  0.18815  0.63994  1.0000
  H   H853      1.0  0.64886  0.16364  0.90001  1.0000
  H   H854      1.0  0.42728  0.04717  0.58641  1.0000
  H   H855      1.0  0.49937  0.21381  0.87032  1.0000
  H   H856      1.0  0.44169  0.14840  0.78458  1.0000
  C   C507      1.0  0.65968  0.08444  0.80533  1.0000
  C   C508      1.0  0.42528  0.06683  0.56055  1.0000
  H   H857      1.0  0.76465  0.23229  0.58320  1.0000
  H   H858      1.0  0.85094  0.10018  0.99416  1.0000
  C   C509      1.0  0.44680  0.18250  0.77883  1.0000
  H   H859      1.0  0.54324  0.20067  0.57004  1.0000
  C   C510      1.0  0.74698  0.21586  0.91386  1.0000
  S   S148      1.0  0.60484  0.00512  0.66316  1.0000
  H   H860      1.0  0.66259  0.13197  0.57204  1.0000
  C   C511      1.0  0.36774  0.09258  0.01538  1.0000
  C   C512      1.0  0.39629  0.00170  0.72694  1.0000
  H   H861      1.0  0.53930  0.20895  0.98471  1.0000
  H   H862      1.0  0.80727  0.29970  0.57197  1.0000
  H   H863      1.0  0.37097  0.11905  0.52539  1.0000
  H   H864      1.0  0.79634  0.23899  0.54390  1.0000
  H   H865      1.0  0.82669  0.31781  0.95207  1.0000
  H   H866      1.0  0.81538  0.20348  0.57947  1.0000
  Fe  Fe74      1.0  0.69009  0.26075  0.52000  1.0000
  H   H867      1.0  0.83422  0.15482  0.79648  1.0000
  H   H868      1.0  0.83083  0.11295  0.62375  1.0000
  H   H869      1.0  0.54654  0.01126  0.98909  1.0000
  C   C513      1.0  0.73517  0.01187  0.77799  1.0000
  S   S149      1.0  0.77420  0.27261  0.01451  1.0000
  C   C514      1.0  0.84926  0.30899  0.62804  1.0000
  C   C515      1.0  0.63499  0.33095  0.96498  1.0000
  H   H870      1.0  0.85540  0.03563  0.66904  1.0000
  Fe  Fe75      1.0  0.36316  0.33099  0.93047  1.0000
  C   C516      1.0  0.85614  0.01118  0.93512  1.0000
  H   H871      1.0  0.35714  0.09294  0.59960  1.0000
  H   H872      1.0  0.33383  0.58509  0.18032  1.0000
  H   H873      1.0  0.09420  0.47789  0.51137  1.0000
  S   S150      1.0  0.99658  0.42568  0.41371  1.0000
  C   C517      1.0  0.18576  0.33369  0.31038  1.0000
  H   H874      1.0  0.24218  0.34916  0.27706  1.0000
  S   S151      1.0  0.97045  0.54662  0.41909  1.0000
  N   N37       1.0  0.87113  0.44679  0.10957  1.0000
  C   C518      1.0  0.15539  0.63704  0.34435  1.0000
  H   H875      1.0  0.94503  0.61230  0.25573  1.0000
  H   H876      1.0  0.91659  0.37951  0.50259  1.0000
  C   C519      1.0  0.12632  0.47650  0.26658  1.0000
  H   H877      1.0  0.20337  0.47530  0.39701  1.0000
  C   C520      1.0  0.18013  0.45221  0.22681  1.0000
  H   H878      1.0  0.91096  0.61769  0.35076  1.0000
  H   H879      1.0  0.92447  0.44991  0.45678  1.0000
  C   C521      1.0  0.05626  0.39342  0.48965  1.0000
  H   H880      1.0  0.34528  0.56660  0.23482  1.0000
  H   H881      1.0  0.99760  0.45390  0.22490  1.0000
  C   C522      1.0  0.99631  0.66463  0.13011  1.0000
  H   H882      1.0  0.94342  0.63144  0.40742  1.0000
  H   H883      1.0  0.16662  0.51411  0.51335  1.0000
  C   C523      1.0  0.89135  0.62161  0.37450  1.0000
  H   H884      1.0  0.89244  0.64782  0.42205  1.0000
  C   C524      1.0  0.89518  0.45836  0.47146  1.0000
  C   C525      1.0  0.00789  0.51962  0.16541  1.0000
  H   H885      1.0  0.86727  0.44270  0.30342  1.0000
  H   H886      1.0  0.33782  0.47415  0.18871  1.0000
  C   C526      1.0  0.21621  0.34307  0.50024  1.0000
  Fe  Fe76      1.0  0.01688  0.35019  0.16050  1.0000
  S   S152      1.0  0.03270  0.48042  0.07583  1.0000
  C   C527      1.0  0.13961  0.55626  0.12702  1.0000
  C   C528      1.0  0.88621  0.33434  0.43151  1.0000
  C   C529      1.0  0.30361  0.45777  0.07339  1.0000
  H   H887      1.0  0.05065  0.60465  0.42367  1.0000
  C   C530      1.0  0.96323  0.58202  0.20925  1.0000
  S   S153      1.0  0.01425  0.35816  0.10244  1.0000
  N   N38       1.0  0.16479  0.58219  0.14842  1.0000
  H   H888      1.0  0.99831  0.58598  0.08003  1.0000
  C   C531      1.0  0.98407  0.37064  0.28093  1.0000
  H   H889      1.0  0.92159  0.53897  0.12199  1.0000
  C   C532      1.0  0.88125  0.48522  0.12542  1.0000
  C   C533      1.0  0.23721  0.56241  0.11735  1.0000
  H   H890      1.0  0.89349  0.49300  0.46842  1.0000
  H   H891      1.0  0.11357  0.56039  0.43329  1.0000
  C   C534      1.0  0.20904  0.33648  0.04548  1.0000
  H   H892      1.0  0.28642  0.42823  0.49404  1.0000
  H   H893      1.0  0.04709  0.58773  0.28422  1.0000
  H   H894      1.0  0.33570  0.46056  0.23478  1.0000
  C   C535      1.0  0.31469  0.47340  0.39446  1.0000
  H   H895      1.0  0.93517  0.50702  0.20848  1.0000
  C   C536      1.0  0.29355  0.42528  0.46623  1.0000
  H   H896      1.0  0.34745  0.54060  0.15736  1.0000
  H   H897      1.0  0.21070  0.54904  0.37657  1.0000
  H   H898      1.0  0.98889  0.54480  0.15035  1.0000
  H   H899      1.0  0.85865  0.63387  0.36755  1.0000
  S   S154      1.0  0.32564  0.47002  0.11162  1.0000
  H   H900      1.0  0.21749  0.55768  0.09523  1.0000
  H   H901      1.0  0.27073  0.41567  0.36540  1.0000
  H   H902      1.0  0.25662  0.40517  0.14745  1.0000
  S   S155      1.0  0.16693  0.39007  0.18796  1.0000
  H   H903      1.0  0.23586  0.48279  0.35858  1.0000
  C   C537      1.0  0.16361  0.60221  0.21110  1.0000
  H   H904      1.0  0.23300  0.53732  0.41860  1.0000
  S   S156      1.0  0.11443  0.38812  0.10123  1.0000
  C   C538      1.0  0.30993  0.42558  0.02028  1.0000
  C   C539      1.0  0.15951  0.62775  0.13418  1.0000
  N   N39       1.0  0.98665  0.54289  0.22493  1.0000
  H   H905      1.0  0.26773  0.54643  0.38013  1.0000
  C   C540      1.0  0.95216  0.34420  0.23228  1.0000
  H   H906      1.0  0.05052  0.34692  0.03578  1.0000
  H   H907      1.0  0.94960  0.49395  0.10999  1.0000
  H   H908      1.0  0.98750  0.46243  0.26964  1.0000
  C   C541      1.0  0.14203  0.50864  0.13834  1.0000
  S   S157      1.0  0.07235  0.61878  0.04028  1.0000
  C   C542      1.0  0.09352  0.56450  0.45702  1.0000
  H   H909      1.0  0.18893  0.50285  0.25651  1.0000
  H   H910      1.0  0.10330  0.35482  0.29378  1.0000
  H   H911      1.0  0.32027  0.50257  0.40567  1.0000
  S   S158      1.0  0.07544  0.49041  0.39075  1.0000
  H   H912      1.0  0.04114  0.60845  0.46840  1.0000
  Fe  Fe77      1.0  0.06772  0.42169  0.40303  1.0000
  H   H913      1.0  0.12602  0.49290  0.11869  1.0000
  C   C543      1.0  0.23754  0.53202  0.39109  1.0000
  C   C544      1.0  0.08680  0.36664  0.47630  1.0000
  H   H914      1.0  0.21181  0.45439  0.21438  1.0000
  H   H915      1.0  0.14769  0.59301  0.23696  1.0000
  H   H916      1.0  0.06739  0.57902  0.24241  1.0000
  H   H917      1.0  0.32528  0.45304  0.34262  1.0000
  H   H918      1.0  0.91249  0.52383  0.08066  1.0000
  C   C545      1.0  0.26396  0.45615  0.44352  1.0000
  H   H919      1.0  0.16960  0.61054  0.33343  1.0000
  H   H920      1.0  0.94688  0.44246  0.24593  1.0000
  C   C546      1.0  0.98339  0.62912  0.11680  1.0000
  H   H921      1.0  0.19673  0.40851  0.39276  1.0000
  C   C547      1.0  0.91346  0.64841  0.39837  1.0000
  C   C548      1.0  0.90794  0.41553  0.11587  1.0000
  H   H922      1.0  0.19848  0.59585  0.21474  1.0000
  H   H923      1.0  0.93124  0.51522  0.25270  1.0000
  H   H924      1.0  0.95448  0.61364  0.12696  1.0000
  H   H925      1.0  0.03682  0.51340  0.14911  1.0000
  H   H926      1.0  0.02488  0.52029  0.26932  1.0000
  C   C549      1.0  0.91846  0.51148  0.10810  1.0000
  N   N40       1.0  0.27047  0.45733  0.40471  1.0000
  N   N41       1.0  0.12139  0.56056  0.48848  1.0000
  H   H927      1.0  0.04395  0.50700  0.21254  1.0000
  H   H928      1.0  0.15710  0.63618  0.20436  1.0000
  C   C550      1.0  0.23690  0.35991  0.11509  1.0000
  C   C551      1.0  0.24146  0.45500  0.03786  1.0000
  H   H929      1.0  0.14137  0.45201  0.49626  1.0000
  C   C552      1.0  0.95470  0.50866  0.23176  1.0000
  C   C553      1.0  0.12605  0.66371  0.32513  1.0000
  S   S159      1.0  0.11458  0.65437  0.28303  1.0000
  H   H930      1.0  0.12572  0.63892  0.13870  1.0000
  H   H931      1.0  0.30370  0.50594  0.34131  1.0000
  Fe  Fe78      1.0  0.99138  0.42020  0.35709  1.0000
  H   H932      1.0  0.13771  0.62606  0.48313  1.0000
  H   H933      1.0  0.32795  0.43248  0.46145  1.0000
  H   H934      1.0  0.86912  0.36497  0.09917  1.0000
  H   H935      1.0  0.32259  0.51255  0.21590  1.0000
  C   C554      1.0  0.09823  0.44637  0.25899  1.0000
  C   C555      1.0  0.98917  0.44008  0.03086  1.0000
  C   C556      1.0  0.14467  0.57662  0.18468  1.0000
  H   H936      1.0  0.30040  0.37409  0.13362  1.0000
  C   C557      1.0  0.02226  0.53232  0.20002  1.0000
  H   H937      1.0  0.20280  0.63166  0.08709  1.0000
  H   H938      1.0  0.29465  0.39373  0.40459  1.0000
  H   H939      1.0  0.23939  0.38454  0.09234  1.0000
  H   H940      1.0  0.22000  0.38666  0.43335  1.0000
  H   H941      1.0  0.88987  0.47667  0.15311  1.0000
  H   H942      1.0  0.88713  0.58984  0.38892  1.0000
  H   H943      1.0  0.11144  0.48229  0.03246  1.0000
  H   H944      1.0  0.20314  0.36245  0.12503  1.0000
  Fe  Fe79      1.0  0.00363  0.49393  0.39599  1.0000
  C   C558      1.0  0.26009  0.46684  0.06722  1.0000
  H   H945      1.0  0.26730  0.64343  0.34238  1.0000
  S   S160      1.0  0.31462  0.58341  0.48876  1.0000
  H   H946      1.0  0.17083  0.59589  0.45811  1.0000
  C   C559      1.0  0.26749  0.41441  0.39411  1.0000
  C   C560      1.0  0.16971  0.64024  0.09505  1.0000
  H   H947      1.0  0.99800  0.48015  0.47210  1.0000
  H   H948      1.0  0.22979  0.59218  0.16305  1.0000
  H   H949      1.0  0.12459  0.34447  0.35528  1.0000
  H   H950      1.0  0.34006  0.45087  0.40545  1.0000
  C   C561      1.0  0.98666  0.50646  0.48456  1.0000
  H   H951      1.0  0.01133  0.38309  0.29215  1.0000
  H   H952      1.0  0.91883  0.38489  0.44787  1.0000
  H   H953      1.0  0.20004  0.36913  0.04885  1.0000
  C   C562      1.0  0.18790  0.59228  0.51178  1.0000
  H   H954      1.0  0.01696  0.36545  0.23178  1.0000
  H   H955      1.0  0.21258  0.56752  0.50833  1.0000
  S   S161      1.0  0.04607  0.41205  0.16257  1.0000
  H   H956      1.0  0.91410  0.62891  0.21838  1.0000
  H   H957      1.0  0.26309  0.35289  0.16801  1.0000
  H   H958      1.0  0.20778  0.46188  0.03347  1.0000
  C   C563      1.0  0.99669  0.47805  0.04262  1.0000
  C   C564      1.0  0.88679  0.36607  0.51486  1.0000
  H   H959      1.0  0.24245  0.58457  0.03109  1.0000
  H   H960      1.0  0.98072  0.54379  0.03700  1.0000
  H   H961      1.0  0.25866  0.58895  0.10899  1.0000
  H   H962      1.0  0.04989  0.42405  0.47578  1.0000
  H   H963      1.0  0.28828  0.39237  0.46290  1.0000
  C   C565      1.0  0.11076  0.41973  0.23473  1.0000
  H   H964      1.0  0.98649  0.60640  0.19938  1.0000
  H   H965      1.0  0.87985  0.34568  0.29994  1.0000
  H   H966      1.0  0.17514  0.36719  0.30843  1.0000
  C   C566      1.0  0.11990  0.48011  0.49076  1.0000
  H   H967      1.0  0.86585  0.60520  0.11897  1.0000
  H   H968      1.0  0.90394  0.57941  0.24272  1.0000
  C   C567      1.0  0.00810  0.61351  0.09033  1.0000
  H   H969      1.0  0.14939  0.56123  0.09914  1.0000
  C   C568      1.0  0.86574  0.45641  0.07092  1.0000
  C   C569      1.0  0.98730  0.36057  0.24682  1.0000
  H   H970      1.0  0.24043  0.48191  0.08560  1.0000
  C   C570      1.0  0.16721  0.47957  0.25046  1.0000
  H   H971      1.0  0.19086  0.62507  0.39152  1.0000
  C   C571      1.0  0.16732  0.64518  0.37717  1.0000
  C   C572      1.0  0.97099  0.54263  0.46448  1.0000
  C   C573      1.0  0.91364  0.33817  0.25171  1.0000
  C   C574      1.0  0.34469  0.48568  0.21357  1.0000
  H   H972      1.0  0.04294  0.55956  0.19275  1.0000
  H   H973      1.0  0.06945  0.53952  0.45973  1.0000
  C   C575      1.0  0.23585  0.48532  0.38691  1.0000
  H   H974      1.0  0.29311  0.34632  0.06609  1.0000
  H   H975      1.0  0.06667  0.44393  0.27150  1.0000
  H   H976      1.0  0.02274  0.61540  0.24673  1.0000
  S   S162      1.0  0.93914  0.38015  0.34187  1.0000
  C   C576      1.0  0.26631  0.37305  0.14266  1.0000
  H   H977      1.0  0.08712  0.63341  0.44466  1.0000
  H   H978      1.0  0.88994  0.39914  0.40990  1.0000
  H   H979      1.0  0.94526  0.57626  0.18616  1.0000
  H   H980      1.0  0.93818  0.42860  0.10339  1.0000
  H   H981      1.0  0.89704  0.46449  0.05772  1.0000
  C   C577      1.0  0.97352  0.46471  0.24359  1.0000
  H   H982      1.0  0.87381  0.46215  0.23946  1.0000
  H   H983      1.0  0.08908  0.39637  0.22894  1.0000
  H   H984      1.0  0.22686  0.36050  0.39619  1.0000
  C   C578      1.0  0.15167  0.42264  0.21873  1.0000
  H   H985      1.0  0.26966  0.48727  0.45139  1.0000
  C   C579      1.0  0.15351  0.59493  0.48381  1.0000
  H   H986      1.0  0.10577  0.47817  0.46521  1.0000
  H   H987      1.0  0.91766  0.34796  0.11946  1.0000
  C   C580      1.0  0.32534  0.48185  0.35510  1.0000
  H   H988      1.0  0.14649  0.62756  0.07857  1.0000
  H   H989      1.0  0.21567  0.53963  0.16967  1.0000
  Fe  Fe80      1.0  0.06436  0.47961  0.33619  1.0000
  S   S163      1.0  0.99270  0.48922  0.34000  1.0000
  C   C581      1.0  0.97424  0.51421  0.02850  1.0000
  C   C582      1.0  0.91007  0.34917  0.28539  1.0000
  C   C583      1.0  0.04455  0.63456  0.07628  1.0000
  C   C584      1.0  0.14662  0.51966  0.48981  1.0000
  H   H990      1.0  0.14031  0.43546  0.02558  1.0000
  H   H991      1.0  0.98916  0.49075  0.16923  1.0000
  H   H992      1.0  0.94382  0.60460  0.46558  1.0000
  C   C585      1.0  0.94518  0.36556  0.30004  1.0000
  C   C586      1.0  0.22524  0.39179  0.40485  1.0000
  H   H993      1.0  0.18789  0.35443  0.48608  1.0000
  S   S164      1.0  0.06225  0.41009  0.34795  1.0000
  H   H994      1.0  0.91893  0.37456  0.07546  1.0000
  H   H995      1.0  0.98598  0.63292  0.35912  1.0000
  C   C587      1.0  0.90283  0.37367  0.10153  1.0000
  C   C588      1.0  0.88753  0.38076  0.43637  1.0000
  H   H996      1.0  0.17987  0.64710  0.14827  1.0000
  Fe  Fe81      1.0  0.04873  0.41744  0.10461  1.0000
  C   C589      1.0  0.95605  0.57657  0.48073  1.0000
  H   H997      1.0  0.89823  0.44785  0.49960  1.0000
  H   H998      1.0  0.91602  0.40919  0.14384  1.0000
  H   H999      1.0  0.23920  0.33586  0.02954  1.0000
  H   H1000     1.0  0.16965  0.52032  0.46710  1.0000
  H   H1001     1.0  0.14722  0.54357  0.19678  1.0000
  Fe  Fe82      1.0  0.10897  0.37693  0.15926  1.0000
  C   C590      1.0  0.03738  0.58501  0.25734  1.0000
  H   H1002     1.0  0.00753  0.41246  0.04064  1.0000
  H   H1003     1.0  0.10972  0.58483  0.18376  1.0000
  C   C591      1.0  0.21168  0.56891  0.15115  1.0000
  H   H1004     1.0  0.98079  0.55297  0.27904  1.0000
  H   H1005     1.0  0.17565  0.49617  0.13989  1.0000
  H   H1006     1.0  0.23007  0.44909  0.45184  1.0000
  H   H1007     1.0  0.10492  0.56626  0.12711  1.0000
  C   C592      1.0  0.06708  0.60544  0.44855  1.0000
  S   S165      1.0  0.11045  0.51055  0.29601  1.0000
  H   H1008     1.0  0.12450  0.49943  0.16341  1.0000
  C   C593      1.0  0.92989  0.60121  0.23336  1.0000
  C   C594      1.0  0.00617  0.54874  0.25883  1.0000
  S   S166      1.0  0.11409  0.38276  0.43692  1.0000
  C   C595      1.0  0.32869  0.43776  0.04960  1.0000
  H   H1009     1.0  0.25829  0.53405  0.12241  1.0000
  H   H1010     1.0  0.88103  0.66358  0.14818  1.0000
  H   H1011     1.0  0.20518  0.62208  0.50896  1.0000
  H   H1012     1.0  0.07708  0.62869  0.51111  1.0000
  H   H1013     1.0  0.18658  0.59547  0.02395  1.0000
  H   H1014     1.0  0.19677  0.33924  0.25322  1.0000
  C   C596      1.0  0.13698  0.64255  0.83837  1.0000
  C   C597      1.0  0.95807  0.43789  0.00601  1.0000
  H   H1015     1.0  0.22771  0.61706  0.88733  1.0000
  C   C598      1.0  0.22933  0.58381  0.89852  1.0000
  S   S167      1.0  0.22812  0.65322  0.70256  1.0000
  H   H1016     1.0  0.04378  0.61578  0.89255  1.0000
  C   C599      1.0  0.35460  0.38454  0.78200  1.0000
  H   H1017     1.0  0.08262  0.36828  0.78662  1.0000
  C   C600      1.0  0.92257  0.57464  0.89648  1.0000
  H   H1018     1.0  0.14913  0.35910  0.77137  1.0000
  C   C601      1.0  0.06124  0.49877  0.95524  1.0000
  C   C602      1.0  0.16130  0.35828  0.60961  1.0000
  H   H1019     1.0  0.10968  0.49436  0.80140  1.0000
  H   H1020     1.0  0.09987  0.50810  0.89485  1.0000
  H   H1021     1.0  0.15471  0.33763  0.70427  1.0000
  C   C603      1.0  0.21944  0.60147  0.01262  1.0000
  H   H1022     1.0  0.94634  0.65626  0.83195  1.0000
  S   S168      1.0  0.08787  0.42408  0.70005  1.0000
  H   H1023     1.0  0.08609  0.44238  0.01273  1.0000
  C   C604      1.0  0.20179  0.60872  0.65266  1.0000
  H   H1024     1.0  0.00598  0.42368  0.73625  1.0000
  H   H1025     1.0  0.85944  0.62119  0.78085  1.0000
  H   H1026     1.0  0.06512  0.54158  0.52018  1.0000
  S   S169      1.0  0.99263  0.42222  0.92097  1.0000
  H   H1027     1.0  0.25404  0.43391  0.67546  1.0000
  H   H1028     1.0  0.03509  0.54288  0.70932  1.0000
  H   H1029     1.0  0.86198  0.55947  0.92434  1.0000
  S   S170      1.0  0.86851  0.39791  0.67497  1.0000
  H   H1030     1.0  0.13903  0.39389  0.97792  1.0000
  H   H1031     1.0  0.15850  0.45721  0.88836  1.0000
  H   H1032     1.0  0.14068  0.51346  0.98123  1.0000
  Fe  Fe83      1.0  0.92133  0.43024  0.92644  1.0000
  C   C605      1.0  0.01548  0.45377  0.78147  1.0000
  C   C606      1.0  0.95277  0.58121  0.79848  1.0000
  H   H1033     1.0  0.33248  0.59333  0.96087  1.0000
  C   C607      1.0  0.93229  0.56847  0.83500  1.0000
  Fe  Fe84      1.0  0.32155  0.33344  0.61777  1.0000
  H   H1034     1.0  0.24414  0.47807  0.64327  1.0000
  H   H1035     1.0  0.98780  0.57337  0.79791  1.0000
  N   N42       1.0  0.04435  0.60737  0.65643  1.0000
  C   C608      1.0  0.09708  0.43458  0.94215  1.0000
  H   H1036     1.0  0.04247  0.47933  0.97583  1.0000
  C   C609      1.0  0.26166  0.45489  0.75279  1.0000
  C   C610      1.0  0.07111  0.44383  0.73801  1.0000
  S   S171      1.0  0.04575  0.43406  0.60951  1.0000
  S   S172      1.0  0.35038  0.40009  0.92630  1.0000
  H   H1037     1.0  0.19415  0.59956  0.96227  1.0000
  C   C611      1.0  0.99841  0.59333  0.65737  1.0000
  C   C612      1.0  0.08134  0.53574  0.64844  1.0000
  H   H1038     1.0  0.33669  0.53608  0.00910  1.0000
  S   S173      1.0  0.91141  0.45469  0.87077  1.0000
  H   H1039     1.0  0.13341  0.46699  0.74683  1.0000
  H   H1040     1.0  0.19758  0.57486  0.91041  1.0000
  C   C613      1.0  0.07082  0.65978  0.80785  1.0000
  H   H1041     1.0  0.86720  0.48390  0.60379  1.0000
  C   C614      1.0  0.13412  0.40187  0.94961  1.0000
  C   C615      1.0  0.10687  0.33723  0.85226  1.0000
  C   C616      1.0  0.13560  0.36990  0.57624  1.0000
  H   H1042     1.0  0.16957  0.61527  0.66211  1.0000
  H   H1043     1.0  0.18944  0.34708  0.80420  1.0000
  H   H1044     1.0  0.10414  0.53315  0.67002  1.0000
  S   S174      1.0  0.24118  0.41810  0.97896  1.0000
  Fe  Fe85      1.0  0.34326  0.62708  0.78890  1.0000
  C   C617      1.0  0.89223  0.39405  0.77679  1.0000
  C   C618      1.0  0.04471  0.47370  0.79979  1.0000
  H   H1045     1.0  0.31318  0.51887  0.97262  1.0000
  H   H1046     1.0  0.10343  0.59534  0.62750  1.0000
  H   H1047     1.0  0.23170  0.46665  0.76504  1.0000
  N   N43       1.0  0.10488  0.47888  0.94841  1.0000
  H   H1048     1.0  0.93753  0.54295  0.90360  1.0000
  S   S175      1.0  0.97359  0.46614  0.66545  1.0000
  C   C619      1.0  0.93405  0.47364  0.99332  1.0000
  C   C620      1.0  0.28729  0.52528  0.73635  1.0000
  H   H1049     1.0  0.12379  0.39719  0.86632  1.0000
  C   C621      1.0  0.07003  0.33713  0.79631  1.0000
  H   H1050     1.0  0.99631  0.55900  0.66280  1.0000
  H   H1051     1.0  0.10060  0.61139  0.55268  1.0000
  H   H1052     1.0  0.03820  0.34371  0.80856  1.0000
  H   H1053     1.0  0.22442  0.63540  0.01103  1.0000
  H   H1054     1.0  0.92520  0.41517  0.72815  1.0000
  H   H1055     1.0  0.26488  0.53956  0.93300  1.0000
  H   H1056     1.0  0.28610  0.45128  0.77337  1.0000
  C   C622      1.0  0.99036  0.59514  0.86549  1.0000
  H   H1057     1.0  0.09769  0.61115  0.69000  1.0000
  Fe  Fe86      1.0  0.00164  0.38126  0.60665  1.0000
  H   H1058     1.0  0.30418  0.60523  0.99843  1.0000
  S   S176      1.0  0.03661  0.65264  0.77466  1.0000
  H   H1059     1.0  0.16587  0.46666  0.97351  1.0000
  S   S177      1.0  0.99117  0.36605  0.66417  1.0000
  C   C623      1.0  0.94238  0.51193  0.00422  1.0000
  C   C624      1.0  0.24997  0.57720  0.61248  1.0000
  N   N44       1.0  0.94209  0.59530  0.86259  1.0000
  C   C625      1.0  0.10047  0.46352  0.75641  1.0000
  C   C626      1.0  0.89689  0.40041  0.74045  1.0000
  C   C627      1.0  0.08704  0.47916  0.78706  1.0000
  H   H1060     1.0  0.24756  0.52592  0.68012  1.0000
  S   S178      1.0  0.89328  0.47004  0.96430  1.0000
  H   H1061     1.0  0.99643  0.60929  0.91948  1.0000
  S   S179      1.0  0.02949  0.48794  0.84027  1.0000
  Fe  Fe87      1.0  0.90470  0.38747  0.86487  1.0000
  S   S180      1.0  0.94291  0.42253  0.59802  1.0000
  H   H1062     1.0  0.08024  0.33294  0.62910  1.0000
  H   H1063     1.0  0.86526  0.57787  0.57287  1.0000
  H   H1064     1.0  0.88312  0.50937  0.65871  1.0000
  H   H1065     1.0  0.03538  0.65267  0.61052  1.0000
  H   H1066     1.0  0.97592  0.60162  0.71092  1.0000
  H   H1067     1.0  0.13156  0.53556  0.92097  1.0000
  S   S181      1.0  0.34573  0.62147  0.73228  1.0000
  C   C628      1.0  0.87341  0.56929  0.89712  1.0000
  H   H1068     1.0  0.21872  0.55188  0.98057  1.0000
  H   H1069     1.0  0.92937  0.59138  0.91861  1.0000
  H   H1070     1.0  0.92412  0.53968  0.99410  1.0000
  C   C629      1.0  0.10890  0.63582  0.81236  1.0000
  C   C630      1.0  0.12375  0.50369  0.91598  1.0000
  H   H1071     1.0  0.07802  0.56579  0.94718  1.0000
  C   C631      1.0  0.13370  0.48059  0.97848  1.0000
  H   H1072     1.0  0.05588  0.58143  0.60845  1.0000
  H   H1073     1.0  0.07965  0.33413  0.87173  1.0000
  H   H1074     1.0  0.16691  0.62466  0.84142  1.0000
  H   H1075     1.0  0.99981  0.47661  0.53641  1.0000
  H   H1076     1.0  0.86452  0.54433  0.88195  1.0000
  S   S182      1.0  0.90907  0.36365  0.92157  1.0000
  C   C632      1.0  0.27875  0.61492  0.65612  1.0000
  H   H1077     1.0  0.21005  0.49958  0.70965  1.0000
  C   C633      1.0  0.16507  0.48563  0.90010  1.0000
  H   H1078     1.0  0.18896  0.37147  0.67499  1.0000
  H   H1079     1.0  0.21371  0.39246  0.53233  1.0000
  H   H1080     1.0  0.93437  0.60036  0.68058  1.0000
  H   H1081     1.0  0.19121  0.47949  0.91900  1.0000
  H   H1082     1.0  0.00174  0.65401  0.88575  1.0000
  C   C634      1.0  0.06239  0.60628  0.69210  1.0000
  H   H1083     1.0  0.09761  0.52001  0.62764  1.0000
  H   H1084     1.0  0.12532  0.37248  0.94011  1.0000
  H   H1085     1.0  0.27844  0.39461  0.73345  1.0000
  H   H1086     1.0  0.31432  0.50534  0.65426  1.0000
  Fe  Fe88      1.0  0.31844  0.56450  0.54644  1.0000
  H   H1087     1.0  0.01549  0.35397  0.97877  1.0000
  Fe  Fe89      1.0  0.32776  0.39385  0.87315  1.0000
  H   H1088     1.0  0.31755  0.58463  0.61942  1.0000
  H   H1089     1.0  0.24427  0.52757  0.78258  1.0000
  H   H1090     1.0  0.14226  0.34776  0.55722  1.0000
  H   H1091     1.0  0.93824  0.56305  0.77975  1.0000
  H   H1092     1.0  0.06978  0.42111  0.95880  1.0000
  H   H1093     1.0  0.01145  0.40180  0.53193  1.0000
  H   H1094     1.0  0.17380  0.58699  0.53854  1.0000
  C   C635      1.0  0.95804  0.57499  0.51676  1.0000
  C   C636      1.0  0.07964  0.60259  0.53242  1.0000
  H   H1095     1.0  0.35183  0.50248  0.88019  1.0000
  C   C637      1.0  0.92419  0.63888  0.85157  1.0000
  C   C638      1.0  0.04250  0.34102  0.53908  1.0000
  H   H1096     1.0  0.10444  0.35459  0.66242  1.0000
  H   H1097     1.0  0.04694  0.59957  0.54477  1.0000
  C   C639      1.0  0.03458  0.38089  0.52136  1.0000
  Fe  Fe90      1.0  0.98547  0.47367  0.60795  1.0000
  H   H1098     1.0  0.88194  0.37862  0.54002  1.0000
  C   C640      1.0  0.11245  0.38460  0.84314  1.0000
  C   C641      1.0  0.26284  0.64394  0.94415  1.0000
  C   C642      1.0  0.00817  0.62007  0.89265  1.0000
  N   N45       1.0  0.26357  0.59742  0.95546  1.0000
  H   H1099     1.0  0.11714  0.61279  0.79527  1.0000
  C   C643      1.0  0.30783  0.53989  0.99271  1.0000
  H   H1100     1.0  0.94712  0.61469  0.78880  1.0000
  H   H1101     1.0  0.15789  0.38565  0.62409  1.0000
  C   C644      1.0  0.02854  0.43930  0.75030  1.0000
  H   H1102     1.0  0.11248  0.54359  0.54400  1.0000
  H   H1103     1.0  0.87626  0.53239  0.55328  1.0000
  H   H1104     1.0  0.32579  0.37096  0.79433  1.0000
  H   H1105     1.0  0.98274  0.44959  0.79130  1.0000
  S   S183      1.0  0.25739  0.54844  0.57749  1.0000
  C   C645      1.0  0.98745  0.50442  0.52088  1.0000
  S   S184      1.0  0.97802  0.53870  0.58157  1.0000
  C   C646      1.0  0.25083  0.54579  0.75673  1.0000
  C   C647      1.0  0.07151  0.58159  0.63387  1.0000
  H   H1106     1.0  0.98432  0.60104  0.63114  1.0000
  H   H1107     1.0  0.94282  0.53553  0.84320  1.0000
  H   H1108     1.0  0.08106  0.40050  0.83660  1.0000
  H   H1109     1.0  0.04881  0.63307  0.70460  1.0000
  C   C648      1.0  0.31807  0.46934  0.70690  1.0000
  C   C649      1.0  0.24175  0.49535  0.69617  1.0000
  H   H1110     1.0  0.22200  0.41124  0.72964  1.0000
  Fe  Fe91      1.0  0.28310  0.38307  0.94375  1.0000
  C   C650      1.0  0.26618  0.43395  0.01457  1.0000
  H   H1111     1.0  0.22092  0.55142  0.74187  1.0000
  H   H1112     1.0  0.05215  0.51794  0.65655  1.0000
  C   C651      1.0  0.86443  0.38834  0.72013  1.0000
  C   C652      1.0  0.96718  0.61173  0.68360  1.0000
  C   C653      1.0  0.23704  0.62362  0.66823  1.0000
  N   N46       1.0  0.27668  0.48554  0.72235  1.0000
  C   C654      1.0  0.05541  0.56633  0.71838  1.0000
  C   C655      1.0  0.04419  0.65178  0.63821  1.0000
  H   H1113     1.0  0.32935  0.40982  0.00216  1.0000
  Fe  Fe92      1.0  0.93557  0.41152  0.65592  1.0000
  H   H1114     1.0  0.04111  0.50052  0.93180  1.0000
  C   C656      1.0  0.29612  0.66017  0.91540  1.0000
  H   H1115     1.0  0.26820  0.66100  0.96662  1.0000
  H   H1116     1.0  0.30604  0.62670  0.66770  1.0000
  H   H1117     1.0  0.85904  0.63806  0.71663  1.0000
  H   H1118     1.0  0.23554  0.56573  0.87640  1.0000
  H   H1119     1.0  0.04003  0.57464  0.74284  1.0000
  Fe  Fe93      1.0  0.97964  0.35812  0.90955  1.0000
  C   C657      1.0  0.20824  0.58528  0.62498  1.0000
  H   H1120     1.0  0.04158  0.33836  0.74584  1.0000
  H   H1121     1.0  0.32926  0.64890  0.92138  1.0000
  H   H1122     1.0  0.18097  0.57371  0.61301  1.0000
  H   H1123     1.0  0.10064  0.37203  0.58166  1.0000
  H   H1124     1.0  0.02727  0.55456  0.96837  1.0000
  H   H1125     1.0  0.13624  0.39296  0.82177  1.0000
  C   C658      1.0  0.22298  0.58625  0.97656  1.0000
  H   H1126     1.0  0.94753  0.60180  0.52900  1.0000
  H   H1127     1.0  0.96455  0.64619  0.67921  1.0000
  H   H1128     1.0  0.89703  0.56814  0.83110  1.0000
  S   S185      1.0  0.97457  0.37689  0.85225  1.0000
  C   C659      1.0  0.06110  0.54289  0.96626  1.0000
  H   H1129     1.0  0.19587  0.35666  0.60151  1.0000
  H   H1130     1.0  0.29694  0.57877  0.90991  1.0000
  H   H1131     1.0  0.26137  0.57677  0.76196  1.0000
  H   H1132     1.0  0.28007  0.52943  0.00976  1.0000
  H   H1133     1.0  0.92846  0.64135  0.57771  1.0000
  C   C660      1.0  0.09439  0.55995  0.52160  1.0000
  C   C661      1.0  0.97390  0.53910  0.53681  1.0000
  H   H1134     1.0  0.95184  0.40829  0.99740  1.0000
  C   C662      1.0  0.25112  0.41082  0.74539  1.0000
  C   C663      1.0  0.23570  0.46371  0.67022  1.0000
  Fe  Fe94      1.0  0.03084  0.42201  0.66661  1.0000
  Fe  Fe95      1.0  0.28814  0.66496  0.73013  1.0000
  Fe  Fe96      1.0  0.98203  0.44184  0.86469  1.0000
  C   C664      1.0  0.18395  0.33893  0.68708  1.0000
  H   H1135     1.0  0.23067  0.65526  0.93481  1.0000
  H   H1136     1.0  0.91706  0.40370  0.79252  1.0000
  C   C665      1.0  0.33755  0.49751  0.67534  1.0000
  S   S186      1.0  0.28315  0.37552  0.57904  1.0000
  S   S187      1.0  0.31525  0.34694  0.67275  1.0000
  H   H1137     1.0  0.16513  0.41126  0.93678  1.0000
  H   H1138     1.0  0.89321  0.63743  0.83816  1.0000
  H   H1139     1.0  0.08689  0.55103  0.72564  1.0000
  H   H1140     1.0  0.00593  0.60823  0.84046  1.0000
  H   H1141     1.0  0.20115  0.45592  0.67011  1.0000
  H   H1142     1.0  0.89542  0.54714  0.62221  1.0000
  H   H1143     1.0  0.17722  0.50869  0.87844  1.0000
  C   C666      1.0  0.86852  0.53092  0.63728  1.0000
  H   H1144     1.0  0.34311  0.46411  0.72701  1.0000
  H   H1145     1.0  0.08700  0.43410  0.91494  1.0000
  H   H1146     1.0  0.24370  0.39142  0.77059  1.0000
  H   H1147     1.0  0.07456  0.54249  0.99244  1.0000
  H   H1148     1.0  0.00340  0.56255  0.87119  1.0000
  S   S188      1.0  0.25917  0.38280  0.88989  1.0000
  C   C667      1.0  0.26677  0.34948  0.54531  1.0000
  H   H1149     1.0  0.35029  0.52656  0.68275  1.0000
  C   C668      1.0  0.11637  0.45905  0.01402  1.0000
  H   H1150     1.0  0.14523  0.40110  0.56339  1.0000
  H   H1151     1.0  0.29707  0.54969  0.71485  1.0000
  H   H1152     1.0  0.31527  0.52001  0.75391  1.0000
  C   C669      1.0  0.26579  0.57376  0.92456  1.0000
  C   C670      1.0  0.28523  0.59174  0.62828  1.0000
  C   C671      1.0  0.30285  0.58603  0.97679  1.0000
  H   H1153     1.0  0.31485  0.43835  0.69851  1.0000
  H   H1154     1.0  0.28836  0.65184  0.88961  1.0000
  C   C672      1.0  0.23065  0.36445  0.52649  1.0000
  H   H1155     1.0  0.89289  0.33199  0.52144  1.0000
  S   S189      1.0  0.34708  0.44098  0.82848  1.0000
  H   H1156     1.0  0.91098  0.33895  0.62302  1.0000
  S   S190      1.0  0.34694  0.56568  0.82229  1.0000
  H   H1157     1.0  0.11386  0.66110  0.62510  1.0000
  C   C673      1.0  0.16813  0.33382  0.78636  1.0000
  H   H1158     1.0  0.93214  0.65813  0.90474  1.0000
  H   H1159     1.0  0.88890  0.66330  0.62910  1.0000
  C   C674      1.0  0.12567  0.78517  0.11210  1.0000
  H   H1160     1.0  0.08667  0.87827  0.35515  1.0000
  H   H1161     1.0  0.90300  0.78009  0.37781  1.0000
  Fe  Fe97      1.0  0.07971  0.77895  0.19714  1.0000
  C   C675      1.0  0.91108  0.96914  0.41820  1.0000
  C   C676      1.0  0.03334  0.68498  0.11670  1.0000
  Fe  Fe98      1.0  0.11913  0.72933  0.45841  1.0000
  H   H1162     1.0  0.20555  0.98961  0.34965  1.0000
  C   C677      1.0  0.93172  0.88811  0.17791  1.0000
  H   H1163     1.0  0.18663  0.87297  0.05414  1.0000
  H   H1164     1.0  0.88341  0.78088  0.49256  1.0000
  C   C678      1.0  0.03065  0.96431  0.28502  1.0000
  H   H1165     1.0  0.22554  0.95123  0.41048  1.0000
  H   H1166     1.0  0.35372  0.81078  0.09491  1.0000
  H   H1167     1.0  0.95882  0.72562  0.33974  1.0000
  C   C679      1.0  0.03498  0.84129  0.03419  1.0000
  C   C680      1.0  0.28179  0.79302  0.16412  1.0000
  C   C681      1.0  0.15095  0.98158  0.02262  1.0000
  H   H1168     1.0  0.25665  0.78532  0.04874  1.0000
  H   H1169     1.0  0.25582  0.86467  0.10987  1.0000
  H   H1170     1.0  0.28753  0.68132  0.30894  1.0000
  H   H1171     1.0  0.96643  0.93741  0.28311  1.0000
  S   S191      1.0  0.32491  0.91910  0.43793  1.0000
  H   H1172     1.0  0.23067  0.68117  0.32173  1.0000
  C   C682      1.0  0.21506  0.96549  0.43402  1.0000
  H   H1173     1.0  0.10953  0.92756  0.50662  1.0000
  S   S192      1.0  0.30799  0.67227  0.06775  1.0000
  H   H1174     1.0  0.02347  0.94040  0.05708  1.0000
  C   C683      1.0  0.15891  0.81250  0.05650  1.0000
  H   H1175     1.0  0.15723  0.92971  0.40411  1.0000
  H   H1176     1.0  0.87495  0.93256  0.29070  1.0000
  H   H1177     1.0  0.98938  0.93028  0.32590  1.0000
  H   H1178     1.0  0.08556  0.68627  0.07897  1.0000
  H   H1179     1.0  0.90289  0.92652  0.23456  1.0000
  H   H1180     1.0  0.03493  0.87829  0.30980  1.0000
  S   S193      1.0  0.16653  0.69012  0.43147  1.0000
  H   H1181     1.0  0.24763  0.69470  0.38049  1.0000
  H   H1182     1.0  0.88229  0.84476  0.17586  1.0000
  C   C684      1.0  0.88096  0.71610  0.37534  1.0000
  H   H1183     1.0  0.05059  0.79089  0.37819  1.0000
  H   H1184     1.0  0.85956  0.71409  0.39890  1.0000
  H   H1185     1.0  0.00830  0.89211  0.25567  1.0000
  H   H1186     1.0  0.04245  0.87004  0.20553  1.0000
  Fe  Fe99      1.0  0.01072  0.71588  0.19464  1.0000
  C   C685      1.0  0.14921  0.67951  0.39121  1.0000
  H   H1187     1.0  0.09488  0.90038  0.02359  1.0000
  H   H1188     1.0  0.08286  0.86152  0.23766  1.0000
  H   H1189     1.0  0.20994  0.79460  0.28662  1.0000
  H   H1190     1.0  0.12936  0.98018  0.21261  1.0000
  H   H1191     1.0  0.96832  0.97997  0.30758  1.0000
  H   H1192     1.0  0.24544  0.67333  0.18403  1.0000
  H   H1193     1.0  0.31232  0.78198  0.05795  1.0000
  H   H1194     1.0  0.22174  0.79980  0.34299  1.0000
  Fe  Fe100     1.0  0.05304  0.80043  0.45224  1.0000
  H   H1195     1.0  0.10480  0.88520  0.42143  1.0000
  H   H1196     1.0  0.18890  0.86491  0.42427  1.0000
  H   H1197     1.0  0.89818  0.76678  0.33415  1.0000
  H   H1198     1.0  0.32652  0.82381  0.32834  1.0000
  H   H1199     1.0  0.92200  0.86250  0.32301  1.0000
  H   H1200     1.0  0.24351  0.67027  0.12074  1.0000
  H   H1201     1.0  0.97619  0.69156  0.41761  1.0000
  N   N47       1.0  0.29548  0.80965  0.12737  1.0000
  H   H1202     1.0  0.92593  0.78094  0.12021  1.0000
  H   H1203     1.0  0.94903  0.90518  0.19575  1.0000
  H   H1204     1.0  0.11371  0.88592  0.46623  1.0000
  C   C686      1.0  0.06532  0.89460  0.30226  1.0000
  H   H1205     1.0  0.32587  0.87640  0.16184  1.0000
  C   C687      1.0  0.19895  0.89936  0.46873  1.0000
  C   C688      1.0  0.85790  0.91061  0.27660  1.0000
  N   N48       1.0  0.92292  0.69256  0.38299  1.0000
  H   H1206     1.0  0.91336  0.87795  0.25831  1.0000
  C   C689      1.0  0.06345  0.88586  0.22194  1.0000
  H   H1207     1.0  0.90919  0.69239  0.45677  1.0000
  C   C690      1.0  0.27948  0.98012  0.51255  1.0000
  C   C691      1.0  0.27264  0.92266  0.30894  1.0000
  Fe  Fe101     1.0  0.07487  0.70376  0.25203  1.0000
  H   H1208     1.0  0.27772  0.82584  0.30378  1.0000
  Fe  Fe102     1.0  0.33133  0.92602  0.37973  1.0000
  H   H1209     1.0  0.93009  0.73228  0.10374  1.0000
  C   C692      1.0  0.02249  0.80636  0.36615  1.0000
  H   H1210     1.0  0.06662  0.98241  0.46956  1.0000
  H   H1211     1.0  0.23182  0.74238  0.28735  1.0000
  C   C693      1.0  0.10099  0.94675  0.26021  1.0000
  C   C694      1.0  0.90746  0.75835  0.10788  1.0000
  H   H1212     1.0  0.17628  0.88059  0.48640  1.0000
  H   H1213     1.0  0.98056  0.83324  0.07340  1.0000
  C   C695      1.0  0.86862  0.74416  0.13217  1.0000
  C   C696      1.0  0.86704  0.67148  0.12205  1.0000
  H   H1214     1.0  0.12974  0.75255  0.06724  1.0000
  H   H1215     1.0  0.95803  0.88296  0.02281  1.0000
  S   S194      1.0  0.34441  0.70318  0.48118  1.0000
  C   C697      1.0  0.89793  0.85873  0.19675  1.0000
  C   C698      1.0  0.29466  0.88248  0.14922  1.0000
  H   H1216     1.0  0.94616  0.73249  0.45995  1.0000
  H   H1217     1.0  0.97074  0.93200  0.43134  1.0000
  H   H1218     1.0  0.87092  0.86319  0.02246  1.0000
  C   C699      1.0  0.26876  0.78910  0.10304  1.0000
  H   H1219     1.0  0.01516  0.78884  0.07227  1.0000
  H   H1220     1.0  0.17206  0.96239  0.04021  1.0000
  S   S195      1.0  0.12472  0.79823  0.45581  1.0000
  S   S196      1.0  0.12256  0.82758  0.16892  1.0000
  C   C700      1.0  0.28367  0.77039  0.38013  1.0000
  S   S197      1.0  0.96649  0.68330  0.16385  1.0000
  C   C701      1.0  0.34183  0.79660  0.12098  1.0000
  H   H1221     1.0  0.91612  0.83267  0.21211  1.0000
  C   C702      1.0  0.13724  0.78072  0.07752  1.0000
  H   H1222     1.0  0.01959  0.93723  0.22662  1.0000
  C   C703      1.0  0.27213  0.70399  0.35958  1.0000
  H   H1223     1.0  0.30107  0.95767  0.50227  1.0000
  H   H1224     1.0  0.10501  0.73229  0.38326  1.0000
  H   H1225     1.0  0.12373  0.92160  0.25347  1.0000
  H   H1226     1.0  0.97740  0.80315  0.03800  1.0000
  H   H1227     1.0  0.02677  0.77280  0.32179  1.0000
  H   H1228     1.0  0.04871  0.85650  0.10021  1.0000
  N   N49       1.0  0.27067  0.75062  0.34909  1.0000
  H   H1229     1.0  0.11719  0.95977  0.28127  1.0000
  H   H1230     1.0  0.02431  0.98888  0.26280  1.0000
  H   H1231     1.0  0.33725  0.94509  0.30188  1.0000
  C   C704      1.0  0.88690  0.89812  0.24655  1.0000
  H   H1232     1.0  0.04779  0.98043  0.30384  1.0000
  H   H1233     1.0  0.17863  0.75103  0.30310  1.0000
  S   S198      1.0  0.95667  0.80618  0.27830  1.0000
  H   H1234     1.0  0.91274  0.96308  0.39063  1.0000
  C   C705      1.0  0.22580  0.76624  0.33953  1.0000
  C   C706      1.0  0.30902  0.80919  0.30885  1.0000
  H   H1235     1.0  0.04682  0.90755  0.11276  1.0000
  N   N50       1.0  0.17952  0.94114  0.45418  1.0000
  H   H1236     1.0  0.20161  0.74979  0.35781  1.0000
  C   C707      1.0  0.97319  0.81691  0.31852  1.0000
  H   H1237     1.0  0.32893  0.81377  0.28442  1.0000
  H   H1238     1.0  0.87821  0.95690  0.17684  1.0000
  H   H1239     1.0  0.16717  0.88042  0.11550  1.0000
  H   H1240     1.0  0.91752  0.90970  0.15645  1.0000
  H   H1241     1.0  0.26971  0.75468  0.11017  1.0000
  Fe  Fe103     1.0  0.00642  0.77163  0.25021  1.0000
  C   C708      1.0  0.27387  0.67170  0.13289  1.0000
  S   S199      1.0  0.04836  0.73208  0.44923  1.0000
  H   H1242     1.0  0.95657  0.86910  0.16547  1.0000
  H   H1243     1.0  0.21542  0.77217  0.16176  1.0000
  C   C709      1.0  0.15900  0.85244  0.10501  1.0000
  H   H1244     1.0  0.08769  0.87020  0.29369  1.0000
  C   C710      1.0  0.26396  0.67672  0.33103  1.0000
  C   C711      1.0  0.16998  0.84827  0.07033  1.0000
  H   H1245     1.0  0.10863  0.76073  0.12810  1.0000
  S   S200      1.0  0.09989  0.98774  0.08000  1.0000
  C   C712      1.0  0.94945  0.69329  0.34970  1.0000
  S   S201      1.0  0.07786  0.77203  0.25543  1.0000
  H   H1246     1.0  0.96222  0.74191  0.39658  1.0000
  H   H1247     1.0  0.11603  0.91983  0.33173  1.0000
  H   H1248     1.0  0.30399  0.69374  0.37069  1.0000
  H   H1249     1.0  0.06152  0.92861  0.34823  1.0000
  H   H1250     1.0  0.28314  0.83195  0.05482  1.0000
  H   H1251     1.0  0.29112  0.81958  0.50469  1.0000
  C   C713      1.0  0.10831  0.90612  0.44151  1.0000
  C   C714      1.0  0.99978  0.81552  0.05561  1.0000
  H   H1252     1.0  0.94620  0.88106  0.37869  1.0000
  C   C715      1.0  0.16430  0.96512  0.48332  1.0000
  H   H1253     1.0  0.26288  0.72631  0.42576  1.0000
  H   H1254     1.0  0.86275  0.70205  0.35592  1.0000
  C   C716      1.0  0.05258  0.88998  0.09029  1.0000
  C   C717      1.0  0.13905  0.94152  0.51432  1.0000
  H   H1255     1.0  0.08520  0.90560  0.20388  1.0000
  H   H1256     1.0  0.31765  0.76191  0.38620  1.0000
  H   H1257     1.0  0.22651  0.90364  0.48546  1.0000
  C   C718      1.0  0.25844  0.96588  0.24232  1.0000
  H   H1258     1.0  0.98299  0.97324  0.37531  1.0000
  C   C719      1.0  0.11882  0.70558  0.37254  1.0000
  C   C720      1.0  0.30621  0.94423  0.29025  1.0000
  H   H1259     1.0  0.34451  0.76232  0.12064  1.0000
  H   H1260     1.0  0.89505  0.67462  0.10343  1.0000
  S   S202      1.0  0.00815  0.78514  0.19223  1.0000
  H   H1261     1.0  0.14409  0.99278  0.47319  1.0000
  C   C721      1.0  0.00926  0.79640  0.33418  1.0000
  H   H1262     1.0  0.19441  0.94315  0.24937  1.0000
  C   C722      1.0  0.02056  0.90588  0.06170  1.0000
  C   C723      1.0  0.28146  0.79807  0.06401  1.0000
  H   H1263     1.0  0.87687  0.96501  0.42647  1.0000
  C   C724      1.0  0.23316  0.79639  0.17272  1.0000
  H   H1264     1.0  0.93446  0.93652  0.46821  1.0000
  C   C725      1.0  0.94818  0.71207  0.40880  1.0000
  C   C726      1.0  0.27507  0.67388  0.16852  1.0000
  Fe  Fe104     1.0  0.33927  0.98701  0.43143  1.0000
  C   C727      1.0  0.88438  0.76265  0.36101  1.0000
  C   C728      1.0  0.03527  0.91213  0.24462  1.0000
  S   S203      1.0  0.27868  0.89914  0.35197  1.0000
  S   S204      1.0  0.08287  0.71023  0.19400  1.0000
  C   C729      1.0  0.05726  0.67011  0.08961  1.0000
  H   H1265     1.0  0.06676  0.83323  0.04611  1.0000
  H   H1266     1.0  0.29823  0.74788  0.29680  1.0000
  C   C730      1.0  0.30401  0.76208  0.32051  1.0000
  H   H1267     1.0  0.04289  0.71293  0.12644  1.0000
  H   H1268     1.0  0.12716  0.96829  0.42255  1.0000
  H   H1269     1.0  0.89757  0.77438  0.08222  1.0000
  C   C731      1.0  0.29918  0.96562  0.25677  1.0000
  H   H1270     1.0  0.21927  0.82755  0.16302  1.0000
  S   S205      1.0  0.00294  0.70273  0.25239  1.0000
  H   H1271     1.0  0.16667  0.67474  0.08900  1.0000
  C   C732      1.0  0.93652  0.93375  0.44006  1.0000
  C   C733      1.0  0.08347  0.90684  0.33591  1.0000
  H   H1272     1.0  0.21255  0.70005  0.50240  1.0000
  H   H1273     1.0  0.26767  0.77858  0.43369  1.0000
  C   C734      1.0  0.25704  0.75921  0.41419  1.0000
  H   H1274     1.0  0.24417  0.96475  0.44994  1.0000
  C   C735      1.0  0.22552  0.94334  0.26074  1.0000
  C   C736      1.0  0.96381  0.85741  0.36636  1.0000
  S   S206      1.0  0.95055  0.99150  0.20933  1.0000
  H   H1275     1.0  0.88232  0.73273  0.15795  1.0000
  C   C737      1.0  0.21178  0.76312  0.30204  1.0000
  H   H1276     1.0  0.93025  0.68347  0.32870  1.0000
  C   C738      1.0  0.11259  0.99836  0.03534  1.0000
  H   H1277     1.0  0.22582  0.84057  0.45543  1.0000
  H   H1278     1.0  0.32464  0.98340  0.24297  1.0000
  C   C739      1.0  0.98632  0.95163  0.30130  1.0000
  H   H1279     1.0  0.92236  0.90343  0.43700  1.0000
  H   H1280     1.0  0.01406  0.67697  0.37088  1.0000
  S   S207      1.0  0.33980  0.99507  0.37330  1.0000
  H   H1281     1.0  0.33622  0.74921  0.32889  1.0000
  C   C740      1.0  0.95019  0.84697  0.33482  1.0000
  N   N51       1.0  0.02671  0.88769  0.02798  1.0000
  C   C741      1.0  0.99998  0.83725  0.38193  1.0000
  H   H1282     1.0  0.24260  0.88416  0.42573  1.0000
  H   H1283     1.0  0.19216  0.97802  0.49493  1.0000
  C   C742      1.0  0.14382  0.93760  0.42947  1.0000
  S   S208      1.0  0.24611  0.99702  0.20297  1.0000
  C   C743      1.0  0.31170  0.67343  0.11245  1.0000
  C   C744      1.0  0.10743  0.69782  0.33933  1.0000
  H   H1284     1.0  0.07668  0.92248  0.44407  1.0000
  S   S209      1.0  0.01761  0.85242  0.42027  1.0000
  C   C745      1.0  0.13649  0.82110  0.12583  1.0000
  H   H1285     1.0  0.29337  0.91606  0.13851  1.0000
  N   N52       1.0  0.05808  0.92954  0.27301  1.0000
  H   H1286     1.0  0.89784  0.74535  0.43694  1.0000
  C   C746      1.0  0.35115  0.67764  0.12769  1.0000
  H   H1287     1.0  0.22755  0.79089  0.20136  1.0000
  H   H1288     1.0  0.26832  0.87785  0.16920  1.0000
  C   C747      1.0  0.92336  0.72083  0.44231  1.0000
  H   H1289     1.0  0.08451  0.71827  0.32467  1.0000
  C   C748      1.0  0.28888  0.85641  0.11927  1.0000
  H   H1290     1.0  0.23429  0.79868  0.10525  1.0000
  H   H1291     1.0  0.98753  0.90098  0.07310  1.0000
  S   S210      1.0  0.97726  0.99058  0.11050  1.0000
  H   H1292     1.0  0.20676  0.90447  0.30800  1.0000
  H   H1293     1.0  0.22214  0.76568  0.41069  1.0000
  C   C749      1.0  0.21479  0.87116  0.44161  1.0000
  H   H1294     1.0  0.31066  0.86922  0.09732  1.0000
  H   H1295     1.0  0.29843  0.80858  0.18345  1.0000
  C   C750      1.0  0.23264  0.92141  0.29376  1.0000
  H   H1296     1.0  0.08621  0.89542  0.08108  1.0000
  H   H1297     1.0  0.29148  0.75960  0.17004  1.0000
  H   H1298     1.0  0.28211  0.80503  0.37452  1.0000
  H   H1299     1.0  0.25578  0.73514  0.49682  1.0000
  H   H1300     1.0  0.86031  0.82236  0.25866  1.0000
  N   N53       1.0  0.86467  0.87730  0.21990  1.0000
  C   C751      1.0  0.35237  0.68068  0.16343  1.0000
  S   S211      1.0  0.03949  0.79486  0.50952  1.0000
  C   C752      1.0  0.31425  0.67868  0.18383  1.0000
  S   S212      1.0  0.31379  0.68549  0.22780  1.0000
  Fe  Fe105     1.0  0.11094  0.78748  0.51323  1.0000
  H   H1301     1.0  0.00893  0.67038  0.32657  1.0000
  H   H1302     1.0  0.07248  0.98086  0.21218  1.0000
  C   C753      1.0  0.09988  0.98239  0.22936  1.0000
  Fe  Fe106     1.0  0.04176  0.72605  0.50731  1.0000
  H   H1303     1.0  0.91185  0.81637  0.51392  1.0000
  C   C754      1.0  0.99175  0.66670  0.35225  1.0000
  H   H1304     1.0  0.97225  0.96083  0.01792  1.0000
  C   C755      1.0  0.24054  0.71063  0.51555  1.0000
  S   S213      1.0  0.06819  0.74169  0.01647  1.0000
  C   C756      1.0  0.26547  0.99498  0.82706  1.0000
  S   S214      1.0  0.93296  0.72379  0.75801  1.0000
  H   H1305     1.0  0.26214  0.67965  0.59937  1.0000
  H   H1306     1.0  0.98784  0.87973  0.98393  1.0000
  H   H1307     1.0  0.33479  0.68248  0.62321  1.0000
  H   H1308     1.0  0.98479  0.96361  0.86463  1.0000
  S   S215      1.0  0.32323  0.77934  0.80112  1.0000
  H   H1309     1.0  0.15959  0.91769  0.52979  1.0000
  C   C757      1.0  0.30923  0.84994  0.94083  1.0000
  H   H1310     1.0  0.17419  0.91877  0.93068  1.0000
  H   H1311     1.0  0.10915  0.79154  0.75802  1.0000
  H   H1312     1.0  0.31060  0.94243  0.76397  1.0000
  H   H1313     1.0  0.26732  0.83587  0.54404  1.0000
  C   C758      1.0  0.93481  0.97929  0.90350  1.0000
  H   H1314     1.0  0.31933  0.88460  0.87395  1.0000
  H   H1315     1.0  0.94320  0.94498  0.98354  1.0000
  H   H1316     1.0  0.15068  0.72857  0.70586  1.0000
  C   C759      1.0  0.87249  0.77511  0.55072  1.0000
  H   H1317     1.0  0.26953  0.91124  0.86859  1.0000
  C   C760      1.0  0.96177  0.78020  0.85768  1.0000
  H   H1318     1.0  0.86127  0.76838  0.90852  1.0000
  C   C761      1.0  0.09571  0.83302  0.65481  1.0000
  C   C762      1.0  0.07949  0.96591  0.61163  1.0000
  H   H1319     1.0  0.07395  0.78862  0.58281  1.0000
  H   H1320     1.0  0.30332  0.68998  0.56721  1.0000
  H   H1321     1.0  0.08239  0.98121  0.73109  1.0000
  C   C763      1.0  0.20542  0.74177  0.62283  1.0000
  C   C764      1.0  0.06513  0.90771  0.00851  1.0000
  H   H1322     1.0  0.12855  0.96410  0.53231  1.0000
  S   S216      1.0  0.17189  0.80829  0.01284  1.0000
  H   H1323     1.0  0.91878  0.95973  0.92569  1.0000
  N   N54       1.0  0.25916  0.74210  0.57078  1.0000
  H   H1324     1.0  0.88009  0.99802  0.58162  1.0000
  H   H1325     1.0  0.98171  0.95475  0.70304  1.0000
  H   H1326     1.0  0.87315  0.96956  0.81042  1.0000
  H   H1327     1.0  0.08140  0.70745  0.62371  1.0000
  H   H1328     1.0  0.22673  0.74766  0.70609  1.0000
  H   H1329     1.0  0.08680  0.86228  0.97350  1.0000
  H   H1330     1.0  0.20071  0.71132  0.75569  1.0000
  H   H1331     1.0  0.19978  0.98961  0.84619  1.0000
  H   H1332     1.0  0.17995  0.77616  0.83732  1.0000
  C   C765      1.0  0.09514  0.96251  0.71073  1.0000
  C   C766      1.0  0.91438  0.66664  0.88056  1.0000
  H   H1333     1.0  0.98793  0.94859  0.65812  1.0000
  C   C767      1.0  0.96666  0.94892  0.88787  1.0000
  C   C768      1.0  0.28414  0.70433  0.58737  1.0000
  Fe  Fe107     1.0  0.94249  0.75236  0.70274  1.0000
  H   H1334     1.0  0.16234  0.84204  0.80252  1.0000
  H   H1335     1.0  0.23454  0.88688  0.96389  1.0000
  C   C769      1.0  0.08773  0.69572  0.85628  1.0000
  H   H1336     1.0  0.10568  0.73213  0.73646  1.0000
  C   C770      1.0  0.90006  0.78401  0.51666  1.0000
  C   C771      1.0  0.07416  0.80974  0.63321  1.0000
  S   S217      1.0  0.23262  0.89912  0.75715  1.0000
  H   H1337     1.0  0.26603  0.79742  0.93755  1.0000
  H   H1338     1.0  0.92927  0.76319  0.51789  1.0000
  C   C772      1.0  0.15012  0.84947  0.60920  1.0000
  H   H1339     1.0  0.04431  0.79522  0.64207  1.0000
  N   N55       1.0  0.17631  0.77350  0.76253  1.0000
  H   H1340     1.0  0.00523  0.75173  0.89677  1.0000
  S   S218      1.0  0.90536  0.81649  0.80882  1.0000
  S   S219      1.0  0.10867  0.77575  0.93853  1.0000
  H   H1341     1.0  0.15069  0.87020  0.65954  1.0000
  H   H1342     1.0  0.22086  0.79423  0.58529  1.0000
  C   C773      1.0  0.22473  0.72739  0.54918  1.0000
  H   H1343     1.0  0.88623  0.72028  0.95204  1.0000
  H   H1344     1.0  0.30961  0.78585  0.96645  1.0000
  C   C774      1.0  0.28995  0.77030  0.54883  1.0000
  H   H1345     1.0  0.14910  0.94293  0.74347  1.0000
  H   H1346     1.0  0.91831  0.84674  0.92787  1.0000
  H   H1347     1.0  0.23120  0.84181  0.87817  1.0000
  H   H1348     1.0  0.25696  0.78838  0.72138  1.0000
  H   H1349     1.0  0.32007  0.96430  0.96611  1.0000
  C   C775      1.0  0.96388  0.79870  0.91606  1.0000
  H   H1350     1.0  0.32723  0.85954  0.96252  1.0000
  C   C776      1.0  0.22817  0.99788  0.55726  1.0000
  C   C777      1.0  0.96185  0.74034  0.61513  1.0000
  H   H1351     1.0  0.31379  0.78173  0.56548  1.0000
  S   S220      1.0  0.20065  0.98535  0.59708  1.0000
  H   H1352     1.0  0.02354  0.92146  0.68940  1.0000
  H   H1353     1.0  0.03005  0.70709  0.82713  1.0000
  H   H1354     1.0  0.28401  0.81576  0.88122  1.0000
  C   C778      1.0  0.28549  0.81038  0.95667  1.0000
  C   C779      1.0  0.20654  0.92062  0.91768  1.0000
  H   H1355     1.0  0.33065  0.89168  0.56627  1.0000
  H   H1356     1.0  0.22040  0.85576  0.93250  1.0000
  C   C780      1.0  0.97066  0.69349  0.57151  1.0000
  H   H1357     1.0  0.26282  0.77852  0.61362  1.0000
  H   H1358     1.0  0.04786  0.90114  0.95451  1.0000
  Fe  Fe108     1.0  0.13230  0.76049  0.99273  1.0000
  C   C781      1.0  0.92715  0.71730  0.63029  1.0000
  C   C782      1.0  0.08644  0.67575  0.63829  1.0000
  H   H1359     1.0  0.86651  0.89844  0.55240  1.0000
  H   H1360     1.0  0.92281  0.94801  0.82976  1.0000
  C   C783      1.0  0.12848  0.82666  0.58743  1.0000
  H   H1361     1.0  0.10206  0.91459  0.95980  1.0000
  S   S221      1.0  0.05822  0.68649  0.95253  1.0000
  H   H1362     1.0  0.19236  0.83040  0.72913  1.0000
  C   C784      1.0  0.23827  0.76601  0.59785  1.0000
  H   H1363     1.0  0.88761  0.76490  0.97463  1.0000
  H   H1364     1.0  0.22944  0.79820  0.68162  1.0000
  H   H1365     1.0  0.97102  0.76808  0.62546  1.0000
  H   H1366     1.0  0.20638  0.70181  0.56449  1.0000
  H   H1367     1.0  0.30386  0.91372  0.98496  1.0000
  H   H1368     1.0  0.33805  0.92381  0.92071  1.0000
  C   C785      1.0  0.24551  0.93568  0.78418  1.0000
  H   H1369     1.0  0.86646  0.94413  0.88811  1.0000
  N   N56       1.0  0.08216  0.98219  0.67500  1.0000
  H   H1370     1.0  0.00950  0.74696  0.57340  1.0000
  C   C786      1.0  0.13532  0.79183  0.77666  1.0000
  H   H1371     1.0  0.09520  0.68035  0.66496  1.0000
  C   C787      1.0  0.92848  0.80980  0.84985  1.0000
  C   C788      1.0  0.07535  0.89527  0.97207  1.0000
  H   H1372     1.0  0.26891  0.84783  0.84242  1.0000
  H   H1373     1.0  0.18252  0.93601  0.80904  1.0000
  C   C789      1.0  0.97962  0.77471  0.89077  1.0000
  H   H1374     1.0  0.29914  0.72023  0.63922  1.0000
  H   H1375     1.0  0.22030  0.71374  0.63786  1.0000
  H   H1376     1.0  0.23590  0.76237  0.83868  1.0000
  H   H1377     1.0  0.15924  0.79756  0.70971  1.0000
  H   H1378     1.0  0.87415  0.83045  0.67328  1.0000
  C   C790      1.0  0.26592  0.84471  0.87128  1.0000
  H   H1379     1.0  0.19257  0.76225  0.64170  1.0000
  C   C791      1.0  0.93061  0.82824  0.90828  1.0000
  H   H1380     1.0  0.19917  0.72545  0.82772  1.0000
  C   C792      1.0  0.13392  0.85236  0.64286  1.0000
  S   S222      1.0  0.01865  0.77496  0.77323  1.0000
  H   H1381     1.0  0.09300  0.99589  0.59954  1.0000
  C   C793      1.0  0.98337  0.72862  0.58550  1.0000
  H   H1382     1.0  0.99873  0.95709  0.97604  1.0000
  S   S223      1.0  0.14947  0.82418  0.54527  1.0000
  H   H1383     1.0  0.34969  0.71014  0.85230  1.0000
  C   C794      1.0  0.98642  0.89617  0.00738  1.0000
  S   S224      1.0  0.89727  0.73419  0.66480  1.0000
  H   H1384     1.0  0.24226  0.75994  0.77681  1.0000
  S   S225      1.0  0.01271  0.73602  0.69944  1.0000
  H   H1385     1.0  0.26456  0.81662  0.97924  1.0000
  C   C795      1.0  0.09072  0.80635  0.59953  1.0000
  Fe  Fe109     1.0  0.31448  0.88124  0.64510  1.0000
  H   H1386     1.0  0.25897  0.93725  0.55717  1.0000
  C   C796      1.0  0.28508  0.88331  0.88349  1.0000
  Fe  Fe110     1.0  0.02109  0.79852  0.71632  1.0000
  H   H1387     1.0  0.20221  0.91765  0.88992  1.0000
  H   H1388     1.0  0.09121  0.94188  0.59537  1.0000
  S   S226      1.0  0.33713  0.90199  0.69413  1.0000
  C   C797      1.0  0.29667  0.98174  0.80383  1.0000
  H   H1389     1.0  0.87120  0.80424  0.56308  1.0000
  H   H1390     1.0  0.33985  0.73565  0.60587  1.0000
  S   S227      1.0  0.28286  0.66658  0.78770  1.0000
  C   C798      1.0  0.13707  0.83740  0.78408  1.0000
  H   H1391     1.0  0.21851  0.95207  0.91956  1.0000
  C   C799      1.0  0.03420  0.99044  0.67585  1.0000
  H   H1392     1.0  0.31038  0.75331  0.53100  1.0000
  C   C800      1.0  0.28653  0.95250  0.78204  1.0000
  H   H1393     1.0  0.10574  0.84621  0.79605  1.0000
  H   H1394     1.0  0.03801  0.82862  0.00897  1.0000
  C   C801      1.0  0.88763  0.95162  0.83382  1.0000
  C   C802      1.0  0.85695  0.68916  0.53076  1.0000
  H   H1395     1.0  0.13063  0.94940  0.64680  1.0000
  H   H1396     1.0  0.29589  0.69479  0.91266  1.0000
  H   H1397     1.0  0.08352  0.92125  0.65774  1.0000
  H   H1398     1.0  0.99091  0.93744  0.90753  1.0000
  C   C803      1.0  0.09498  0.95306  0.64901  1.0000
  C   C804      1.0  0.06011  0.68952  0.82988  1.0000
  H   H1399     1.0  0.02304  0.97898  0.52424  1.0000
  H   H1400     1.0  0.88676  0.85614  0.86956  1.0000
  C   C805      1.0  0.22732  0.78133  0.70841  1.0000
  C   C806      1.0  0.86584  0.74488  0.96240  1.0000
  H   H1401     1.0  0.13477  0.68405  0.73501  1.0000
  Fe  Fe111     1.0  0.04552  0.75274  0.96203  1.0000
  H   H1402     1.0  0.04391  0.96738  0.61033  1.0000
  H   H1403     1.0  0.07944  0.71885  0.87325  1.0000
  Fe  Fe112     1.0  0.94747  0.78753  0.76994  1.0000
  H   H1404     1.0  0.06149  0.94221  0.00537  1.0000
  H   H1405     1.0  0.17930  0.86528  0.59996  1.0000
  H   H1406     1.0  0.89151  0.75236  0.56848  1.0000
  S   S228      1.0  0.24421  0.88666  0.65939  1.0000
  H   H1407     1.0  0.15721  0.93085  0.70026  1.0000
  C   C807      1.0  0.12625  0.67243  0.86033  1.0000
  Fe  Fe113     1.0  0.26701  0.91348  0.70562  1.0000
  C   C808      1.0  0.14388  0.95498  0.71572  1.0000
  H   H1408     1.0  0.08055  0.93150  0.71783  1.0000
  H   H1409     1.0  0.33566  0.84001  0.92354  1.0000
  H   H1410     1.0  0.92281  0.69923  0.87049  1.0000
  H   H1411     1.0  0.87438  0.92003  0.83510  1.0000
  H   H1412     1.0  0.14145  0.85936  0.75979  1.0000
  H   H1413     1.0  0.95018  0.92100  0.88183  1.0000
  C   C809      1.0  0.20603  0.75911  0.82451  1.0000
  S   S229      1.0  0.32679  0.72277  0.71931  1.0000
  C   C810      1.0  0.97511  0.94260  0.99572  1.0000
  S   S230      1.0  0.26608  0.97981  0.68007  1.0000
  C   C811      1.0  0.31601  0.71180  0.61541  1.0000
  H   H1414     1.0  0.17726  0.73298  0.60892  1.0000
  C   C812      1.0  0.93766  0.66911  0.58799  1.0000
  C   C813      1.0  0.91542  0.68138  0.61703  1.0000
  H   H1415     1.0  0.87929  0.66796  0.88675  1.0000
  H   H1416     1.0  0.16250  0.98376  0.70972  1.0000
  C   C814      1.0  0.30287  0.92581  0.92699  1.0000
  Fe  Fe114     1.0  0.33425  0.96606  0.66421  1.0000
  C   C815      1.0  0.25598  0.96871  0.54375  1.0000
  S   S231      1.0  0.98410  0.79119  0.95799  1.0000
  C   C816      1.0  0.91284  0.83367  0.87526  1.0000
  C   C817      1.0  0.21438  0.94874  0.80755  1.0000
  S   S232      1.0  0.07516  0.84002  0.69635  1.0000
  S   S233      1.0  0.15374  0.69500  0.98704  1.0000
  H   H1417     1.0  0.22314  0.80984  0.78472  1.0000
  S   S234      1.0  0.99487  0.67995  0.53316  1.0000
  C   C818      1.0  0.18682  0.79707  0.72723  1.0000
  H   H1418     1.0  0.89086  0.69870  0.52932  1.0000
  H   H1419     1.0  0.19194  0.97649  0.97758  1.0000
  S   S235      1.0  0.31672  0.94455  0.61468  1.0000
  H   H1420     1.0  0.23820  0.80509  0.51784  1.0000
  C   C819      1.0  0.21334  0.77689  0.78592  1.0000
  C   C820      1.0  0.29728  0.93928  0.96366  1.0000
  Fe  Fe115     1.0  0.12411  0.70827  0.93490  1.0000
  C   C821      1.0  0.00598  0.95135  0.68185  1.0000
  H   H1421     1.0  0.26448  0.95241  0.96777  1.0000
  H   H1422     1.0  0.12372  0.77247  0.80090  1.0000
  C   C822      1.0  0.87281  0.97038  0.86704  1.0000
  C   C823      1.0  0.13829  0.71837  0.73267  1.0000
  N   N57       1.0  0.28224  0.88548  0.92210  1.0000
  Fe  Fe116     1.0  0.24868  0.95210  0.63301  1.0000
  H   H1423     1.0  0.90159  0.96974  0.64362  1.0000
  H   H1424     1.0  0.29077  0.95240  0.90817  1.0000
  H   H1425     1.0  0.97330  0.76106  0.83846  1.0000
  C   C824      1.0  0.16965  0.72797  0.76036  1.0000
  Fe  Fe117     1.0  0.00427  0.71366  0.75606  1.0000
  C   C825      1.0  0.22411  0.97903  0.82849  1.0000
  C   C826      1.0  0.23606  0.88536  0.93542  1.0000
  Fe  Fe118     1.0  0.08700  0.67755  0.00507  1.0000
  C   C827      1.0  0.27015  0.80996  0.52795  1.0000
  S   S236      1.0  0.95117  0.81737  0.71435  1.0000
  H   H1426     1.0  0.15693  0.71203  0.78562  1.0000
  H   H1427     1.0  0.20019  0.75236  0.54198  1.0000
  S   S237      1.0  0.34631  0.82610  0.62417  1.0000
  Fe  Fe119     1.0  0.32763  0.72005  0.77733  1.0000
  S   S238      1.0  0.11242  0.71782  0.51656  1.0000
  C   C828      1.0  0.16221  0.98952  0.98720  1.0000
  H   H1428     1.0  0.26303  0.68344  0.52099  1.0000
  H   H1429     1.0  0.32823  0.99488  0.80199  1.0000
  H   H1430     1.0  0.93433  0.98821  0.76537  1.0000
  H   H1431     1.0  0.01930  0.67148  0.64973  1.0000
  C   C829      1.0  0.35376  0.77668  0.83846  1.0000
  S   S239      1.0  0.16083  0.68027  0.89302  1.0000
  C   C830      1.0  0.35590  0.87099  0.55869  1.0000
  H   H1432     1.0  0.91172  0.07496  0.39409  1.0000
  S   S240      1.0  0.04318  0.04467  0.15019  1.0000
  C   C831      1.0  0.24771  0.28427  0.13534  1.0000
  H   H1433     1.0  0.86389  0.10573  0.21216  1.0000
  C   C832      1.0  0.96743  0.21179  0.48590  1.0000
  H   H1434     1.0  0.99763  0.18466  0.44347  1.0000
  H   H1435     1.0  0.91418  0.06903  0.49267  1.0000
  C   C833      1.0  0.01986  0.08399  0.50010  1.0000
  N   N58       1.0  0.92429  0.01284  0.42123  1.0000
  C   C834      1.0  0.27556  0.29311  0.51022  1.0000
  H   H1436     1.0  0.17810  0.27296  0.14497  1.0000
  H   H1437     1.0  0.93851  0.13522  0.19830  1.0000
  H   H1438     1.0  0.00836  0.21338  0.24056  1.0000
  C   C835      1.0  0.20075  0.07129  0.26481  1.0000
  H   H1439     1.0  0.02588  0.17674  0.02625  1.0000
  C   C836      1.0  0.16184  0.04773  0.14740  1.0000
  H   H1440     1.0  0.93830  0.25749  0.37876  1.0000
  S   S241      1.0  0.30481  0.20174  0.31943  1.0000
  C   C837      1.0  0.90683  0.02761  0.26007  1.0000
  C   C838      1.0  0.98955  0.21322  0.45372  1.0000
  Fe  Fe120     1.0  0.03782  0.19473  0.37281  1.0000
  H   H1441     1.0  0.19034  0.21836  0.35343  1.0000
  C   C839      1.0  0.97129  0.08446  0.26539  1.0000
  H   H1442     1.0  0.99606  0.10654  0.26731  1.0000
  H   H1443     1.0  0.12893  0.16911  0.10689  1.0000
  H   H1444     1.0  0.89291  0.21107  0.26331  1.0000
  H   H1445     1.0  0.13042  0.24131  0.32351  1.0000
  C   C840      1.0  0.92604  0.24787  0.13400  1.0000
  C   C841      1.0  0.20667  0.28072  0.15891  1.0000
  C   C842      1.0  0.89961  0.04280  0.39545  1.0000
  H   H1446     1.0  0.21762  0.20060  0.45647  1.0000
  H   H1447     1.0  0.09831  0.01334  0.23877  1.0000
  C   C843      1.0  0.94741  0.24642  0.02688  1.0000
  C   C844      1.0  0.11867  0.14497  0.05916  1.0000
  N   N59       1.0  0.16468  0.17409  0.48911  1.0000
  H   H1448     1.0  0.18579  0.29495  0.38314  1.0000
  C   C845      1.0  0.91097  0.15485  0.20662  1.0000
  C   C846      1.0  0.91834  0.26148  0.35532  1.0000
  S   S242      1.0  0.12897  0.17682  0.26747  1.0000
  H   H1449     1.0  0.95765  0.23624  0.25071  1.0000
  H   H1450     1.0  0.22713  0.14841  0.47476  1.0000
  Fe  Fe121     1.0  0.01163  0.10204  0.12234  1.0000
  N   N60       1.0  0.85782  0.20960  0.37422  1.0000
  C   C847      1.0  0.19859  0.24064  0.33009  1.0000
  H   H1451     1.0  0.93629  0.18113  0.14272  1.0000
  C   C848      1.0  0.05427  0.01081  0.47825  1.0000
  H   H1452     1.0  0.16582  0.05664  0.17368  1.0000
  C   C849      1.0  0.86700  0.21687  0.24446  1.0000
  C   C850      1.0  0.14882  0.15337  0.08785  1.0000
  S   S243      1.0  0.10248  0.16357  0.36783  1.0000
  H   H1453     1.0  0.09781  0.22254  0.14525  1.0000
  C   C851      1.0  0.10435  0.17252  0.22811  1.0000
  C   C852      1.0  0.07625  0.14020  0.22578  1.0000
  C   C853      1.0  0.97178  0.01767  0.41340  1.0000
  C   C854      1.0  0.93475  0.08369  0.28741  1.0000
  C   C855      1.0  0.05644  0.13726  0.19428  1.0000
  S   S244      1.0  0.32824  0.07966  0.15880  1.0000
  S   S245      1.0  0.89545  0.05354  0.05004  1.0000
  C   C856      1.0  0.97308  0.20971  0.23915  1.0000
  H   H1454     1.0  0.89487  0.28762  0.35719  1.0000
  H   H1455     1.0  0.20040  0.10065  0.35704  1.0000
  H   H1456     1.0  0.91495  0.25054  0.10698  1.0000
  C   C857      1.0  0.09222  0.19919  0.16756  1.0000
  H   H1457     1.0  0.13998  0.02093  0.15030  1.0000
  H   H1458     1.0  0.06997  0.11739  0.24820  1.0000
  H   H1459     1.0  0.11976  0.19272  0.44768  1.0000
  H   H1460     1.0  0.13445  0.22674  0.20050  1.0000
  C   C858      1.0  0.31627  0.22422  0.27662  1.0000
  H   H1461     1.0  0.16138  0.07317  0.04695  1.0000
  H   H1462     1.0  0.01560  0.23847  0.04003  1.0000
  C   C859      1.0  0.19892  0.10371  0.23185  1.0000
  C   C860      1.0  0.04459  0.08584  0.46907  1.0000
  H   H1463     1.0  0.33364  0.28425  0.28913  1.0000
  H   H1464     1.0  0.29308  0.26564  0.50385  1.0000
  H   H1465     1.0  0.22684  0.29666  0.27701  1.0000
  C   C861      1.0  0.30252  0.27952  0.06774  1.0000
  H   H1466     1.0  0.32321  0.09795  0.30422  1.0000
  H   H1467     1.0  0.30220  0.16806  0.25639  1.0000
  C   C862      1.0  0.09519  0.32700  0.49433  1.0000
  C   C863      1.0  0.19792  0.01610  0.32927  1.0000
  H   H1468     1.0  0.97421  0.02713  0.35593  1.0000
  S   S246      1.0  0.09049  0.05057  0.41837  1.0000
  H   H1469     1.0  0.17955  0.31165  0.09373  1.0000
  H   H1470     1.0  0.87401  0.05562  0.30124  1.0000
  H   H1471     1.0  0.25974  0.01174  0.30565  1.0000
  H   H1472     1.0  0.93715  0.00305  0.47637  1.0000
  H   H1473     1.0  0.14556  0.25475  0.38723  1.0000
  H   H1474     1.0  0.00418  0.31777  0.43678  1.0000
  Fe  Fe122     1.0  0.30300  0.01503  0.16774  1.0000
  H   H1475     1.0  0.16722  0.10230  0.21981  1.0000
  S   S247      1.0  0.03659  0.16521  0.12662  1.0000
  H   H1476     1.0  0.00580  0.11226  0.50797  1.0000
  Fe  Fe123     1.0  0.04109  0.02042  0.09895  1.0000
  C   C864      1.0  0.21155  0.30818  0.08075  1.0000
  H   H1477     1.0  0.96888  0.24439  0.18944  1.0000
  S   S248      1.0  0.00304  0.13601  0.39057  1.0000
  C   C865      1.0  0.07437  0.29639  0.28822  1.0000
  H   H1478     1.0  0.05513  0.03505  0.02168  1.0000
  H   H1479     1.0  0.23342  0.14293  0.28637  1.0000
  H   H1480     1.0  0.90107  0.18987  0.41655  1.0000
  H   H1481     1.0  0.21887  0.12401  0.06250  1.0000
  C   C866      1.0  0.97529  0.05709  0.24039  1.0000
  H   H1482     1.0  0.26095  0.11757  0.32169  1.0000
  H   H1483     1.0  0.88185  0.00560  0.25826  1.0000
  H   H1484     1.0  0.96532  0.17961  0.25479  1.0000
  H   H1485     1.0  0.30551  0.25074  0.08663  1.0000
  H   H1486     1.0  0.98615  0.19204  0.18844  1.0000
  H   H1487     1.0  0.27496  0.28883  0.15207  1.0000
  H   H1488     1.0  0.88297  0.31385  0.45671  1.0000
  Fe  Fe124     1.0  0.06666  0.10455  0.38126  1.0000
  C   C867      1.0  0.88366  0.22866  0.20666  1.0000
  H   H1489     1.0  0.06951  0.18479  0.49601  1.0000
  Fe  Fe125     1.0  0.35582  0.31778  0.38290  1.0000
  C   C868      1.0  0.97090  0.28685  0.48217  1.0000
  H   H1490     1.0  0.07201  0.23864  0.47876  1.0000
  H   H1491     1.0  0.88632  0.32565  0.24054  1.0000
  C   C869      1.0  0.32642  0.21404  0.21610  1.0000
  C   C870      1.0  0.11295  0.20155  0.19877  1.0000
  H   H1492     1.0  0.21387  0.27515  0.07565  1.0000
  C   C871      1.0  0.05776  0.32437  0.01824  1.0000
  S   S249      1.0  0.92950  0.11713  0.31905  1.0000
  Fe  Fe126     1.0  0.08411  0.15914  0.31312  1.0000
  C   C872      1.0  0.24750  0.04965  0.50881  1.0000
  H   H1493     1.0  0.14600  0.23481  0.46233  1.0000
  H   H1494     1.0  0.88826  0.20092  0.07291  1.0000
  H   H1495     1.0  0.16361  0.10705  0.32133  1.0000
  C   C873      1.0  0.27849  0.07701  0.26680  1.0000
  N   N61       1.0  0.17334  0.11632  0.10637  1.0000
  H   H1496     1.0  0.17604  0.01610  0.40492  1.0000
  H   H1497     1.0  0.19214  0.22533  0.51066  1.0000
  H   H1498     1.0  0.16896  0.07277  0.27840  1.0000
  S   S250      1.0  0.94429  0.08135  0.13480  1.0000
  H   H1499     1.0  0.91758  0.25630  0.04057  1.0000
  C   C874      1.0  0.34664  0.12824  0.02505  1.0000
  C   C875      1.0  0.19061  0.06418  0.06187  1.0000
  H   H1500     1.0  0.95045  0.07999  0.45634  1.0000
  Fe  Fe127     1.0  0.33307  0.07057  0.10255  1.0000
  H   H1501     1.0  0.00381  0.05693  0.22381  1.0000
  H   H1502     1.0  0.27942  0.10629  0.24833  1.0000
  Fe  Fe128     1.0  0.99415  0.13399  0.33418  1.0000
  H   H1503     1.0  0.13693  0.13804  0.03558  1.0000
  H   H1504     1.0  0.23460  0.08504  0.09627  1.0000
  N   N62       1.0  0.14732  0.30604  0.31660  1.0000
  C   C876      1.0  0.91483  0.02155  0.45800  1.0000
  C   C877      1.0  0.99336  0.28821  0.45016  1.0000
  H   H1505     1.0  0.87231  0.12941  0.16830  1.0000
  H   H1506     1.0  0.88903  0.22210  0.32298  1.0000
  S   S251      1.0  0.01440  0.07964  0.07030  1.0000
  H   H1507     1.0  0.03401  0.11301  0.19267  1.0000
  C   C878      1.0  0.98413  0.24427  0.05267  1.0000
  S   S252      1.0  0.05455  0.09653  0.32607  1.0000
  H   H1508     1.0  0.02376  0.01048  0.37582  1.0000
  H   H1509     1.0  0.24713  0.16479  0.10242  1.0000
  C   C879      1.0  0.98841  0.00628  0.37793  1.0000
  H   H1510     1.0  0.32517  0.19392  0.19607  1.0000
  H   H1511     1.0  0.17337  0.14014  0.15602  1.0000
  H   H1512     1.0  0.93170  0.14163  0.02542  1.0000
  H   H1513     1.0  0.12931  0.32572  0.26311  1.0000
  H   H1514     1.0  0.86033  0.32856  0.41396  1.0000
  C   C880      1.0  0.96206  0.21187  0.20074  1.0000
  H   H1515     1.0  0.20614  0.19813  0.11976  1.0000
  S   S253      1.0  0.34685  0.29484  0.43937  1.0000
  H   H1516     1.0  0.89385  0.14548  0.08312  1.0000
  C   C881      1.0  0.06175  0.04917  0.45811  1.0000
  H   H1517     1.0  0.98601  0.27490  0.06235  1.0000
  H   H1518     1.0  0.08242  0.26424  0.28288  1.0000
  C   C882      1.0  0.89219  0.17154  0.06140  1.0000
  C   C883      1.0  0.91468  0.20466  0.15361  1.0000
  H   H1519     1.0  0.11885  0.30634  0.48399  1.0000
  H   H1520     1.0  0.09428  0.29953  0.35479  1.0000
  C   C884      1.0  0.02919  0.00887  0.50899  1.0000
  S   S254      1.0  0.31099  0.20898  0.41628  1.0000
  C   C885      1.0  0.94336  0.02831  0.23808  1.0000
  C   C886      1.0  0.14199  0.08437  0.12275  1.0000
  C   C887      1.0  0.87142  0.20979  0.41123  1.0000
  H   H1521     1.0  0.05524  0.31048  0.26593  1.0000
  H   H1522     1.0  0.91005  0.27368  0.14596  1.0000
  H   H1523     1.0  0.17110  0.17736  0.07505  1.0000
  Fe  Fe129     1.0  0.32221  0.23907  0.36126  1.0000
  H   H1524     1.0  0.89327  0.08806  0.45109  1.0000
  S   S255      1.0  0.07991  0.31410  0.16244  1.0000
  H   H1525     1.0  0.11644  0.09956  0.13792  1.0000
  C   C888      1.0  0.89669  0.22033  0.35078  1.0000
  H   H1526     1.0  0.28010  0.05162  0.25013  1.0000
  H   H1527     1.0  0.20254  0.04017  0.25557  1.0000
  C   C889      1.0  0.23940  0.30812  0.49140  1.0000
  C   C890      1.0  0.90230  0.05582  0.28436  1.0000
  C   C891      1.0  0.08556  0.29027  0.02825  1.0000
  H   H1528     1.0  0.98111  0.05029  0.41406  1.0000
  C   C892      1.0  0.31318  0.19937  0.25016  1.0000
  C   C893      1.0  0.20589  0.09875  0.08201  1.0000
  H   H1529     1.0  0.24663  0.17253  0.14723  1.0000
  C   C894      1.0  0.93328  0.17016  0.03812  1.0000
  C   C895      1.0  0.86938  0.13601  0.19560  1.0000
  H   H1530     1.0  0.05303  0.29576  0.31173  1.0000
  C   C896      1.0  0.33110  0.26488  0.26871  1.0000
  C   C897      1.0  0.12754  0.31090  0.35193  1.0000
  S   S256      1.0  0.31500  0.12567  0.06354  1.0000
  S   S257      1.0  0.03139  0.25398  0.39604  1.0000
  H   H1531     1.0  0.88208  0.01124  0.46717  1.0000
  N   N63       1.0  0.91732  0.20010  0.19275  1.0000
  H   H1532     1.0  0.17497  0.03739  0.34093  1.0000
  H   H1533     1.0  0.34806  0.07935  0.26731  1.0000
  H   H1534     1.0  0.28001  0.27466  0.04723  1.0000
  H   H1535     1.0  0.18480  0.03469  0.07926  1.0000
  H   H1536     1.0  0.16045  0.25684  0.28480  1.0000
  C   C898      1.0  0.15768  0.26104  0.31285  1.0000
  H   H1537     1.0  0.12455  0.07043  0.10291  1.0000
  H   H1538     1.0  0.09548  0.12041  0.06796  1.0000
  H   H1539     1.0  0.05049  0.11569  0.45381  1.0000
  N   N64       1.0  0.23732  0.07500  0.28870  1.0000
  C   C899      1.0  0.14623  0.13147  0.49972  1.0000
  S   S258      1.0  0.30073  0.00892  0.11097  1.0000
  H   H1540     1.0  0.94056  0.27065  0.33276  1.0000
  H   H1541     1.0  0.23226  0.02550  0.40556  1.0000
  H   H1542     1.0  0.21640  0.05665  0.04317  1.0000
  H   H1543     1.0  0.91081  0.14961  0.23541  1.0000
  C   C900      1.0  0.11470  0.32276  0.28980  1.0000
  S   S259      1.0  0.10496  0.28071  0.07052  1.0000
  C   C901      1.0  0.15101  0.28872  0.38382  1.0000
  H   H1544     1.0  0.33819  0.08373  0.50788  1.0000
  Fe  Fe130     1.0  0.97627  0.02193  0.15846  1.0000
  H   H1545     1.0  0.87227  0.14338  0.37745  1.0000
  H   H1546     1.0  0.88016  0.24169  0.41567  1.0000
  H   H1547     1.0  0.95767  0.18220  0.49981  1.0000
  H   H1548     1.0  0.88156  0.19864  0.14580  1.0000
  S   S260      1.0  0.02246  0.19600  0.31692  1.0000
  C   C902      1.0  0.95802  0.24866  0.50008  1.0000
  C   C903      1.0  0.19057  0.15487  0.42887  1.0000
  Fe  Fe131     1.0  0.28426  0.27201  0.42459  1.0000
  H   H1549     1.0  0.92199  0.19510  0.35497  1.0000
  H   H1550     1.0  0.25798  0.04401  0.33888  1.0000
  C   C904      1.0  0.06392  0.16701  0.16528  1.0000
  H   H1551     1.0  0.25399  0.25312  0.12711  1.0000
  C   C905      1.0  0.91848  0.06739  0.46433  1.0000
  H   H1552     1.0  0.96491  0.31525  0.49355  1.0000
  C   C906      1.0  0.00250  0.25145  0.43579  1.0000
  H   H1553     1.0  0.89539  0.26106  0.20442  1.0000
  C   C907      1.0  0.13152  0.20400  0.47137  1.0000
  H   H1554     1.0  0.22095  0.14700  0.41497  1.0000
  C   C908      1.0  0.19674  0.13130  0.13561  1.0000
  H   H1555     1.0  0.97899  0.22073  0.07577  1.0000
  C   C909      1.0  0.09053  0.21216  0.49292  1.0000
  H   H1556     1.0  0.18745  0.15096  0.33305  1.0000
  H   H1557     1.0  0.19966  0.30949  0.17082  1.0000
  H   H1558     1.0  0.12363  0.12410  0.47992  1.0000
  H   H1559     1.0  0.17401  0.17991  0.41149  1.0000
  H   H1560     1.0  0.19345  0.03662  0.13764  1.0000
  H   H1561     1.0  0.21788  0.10595  0.14876  1.0000
  H   H1562     1.0  0.17233  0.10716  0.50045  1.0000
  H   H1563     1.0  0.96138  0.25213  0.13229  1.0000
  C   C910      1.0  0.20164  0.17029  0.46332  1.0000
  C   C911      1.0  0.21397  0.32888  0.27751  1.0000
  H   H1564     1.0  0.19972  0.03037  0.44343  1.0000
  H   H1565     1.0  0.17107  0.12645  0.43287  1.0000
  H   H1566     1.0  0.24484  0.08103  0.49554  1.0000
  H   H1567     1.0  0.90455  0.03455  0.36865  1.0000
  H   H1568     1.0  0.21172  0.25515  0.18067  1.0000
  H   H1569     1.0  0.22164  0.26263  0.33760  1.0000
  H   H1570     1.0  0.21612  0.22264  0.31137  1.0000
  C   C912      1.0  0.19390  0.11758  0.33080  1.0000
  H   H1571     1.0  0.20240  0.13605  0.23739  1.0000
  Fe  Fe132     1.0  0.95048  0.05196  0.08575  1.0000
  C   C913      1.0  0.32098  0.07402  0.28660  1.0000
  H   H1572     1.0  0.33466  0.28447  0.05467  1.0000
  C   C914      1.0  0.22580  0.16888  0.12520  1.0000
  C   C915      1.0  0.23274  0.11422  0.30564  1.0000
  N   N65       1.0  0.24653  0.31755  0.10420  1.0000
  C   C916      1.0  0.24039  0.03697  0.31591  1.0000
  H   H1573     1.0  0.22395  0.09649  0.21233  1.0000
  S   S261      1.0  0.22471  0.28489  0.45552  1.0000
  C   C917      1.0  0.20451  0.01192  0.42144  1.0000
  S   S262      1.0  0.29033  0.30044  0.36883  1.0000
  C   C918      1.0  0.28999  0.31808  0.08578  1.0000
  H   H1574     1.0  0.32650  0.04261  0.30132  1.0000
  H   H1575     1.0  0.13691  0.30028  0.40757  1.0000
  C   C919      1.0  0.27507  0.02071  0.49510  1.0000
  H   H1576     1.0  0.18205  0.00237  0.30850  1.0000
  H   H1577     1.0  0.86314  0.16654  0.04680  1.0000
  H   H1578     1.0  0.96083  0.16421  0.05567  1.0000
  S   S263      1.0  0.30347  0.03687  0.45624  1.0000
  H   H1579     1.0  0.31565  0.32022  0.10456  1.0000
  H   H1580     1.0  0.20720  0.32954  0.33286  1.0000
  C   C920      1.0  0.34428  0.27982  0.23433  1.0000
  C   C921      1.0  0.34270  0.25399  0.20819  1.0000
  H   H1581     1.0  0.09905  0.17380  0.05142  1.0000
  Fe  Fe133     1.0  0.08016  0.32800  0.10418  1.0000
  H   H1582     1.0  0.91696  0.32540  0.41866  1.0000
  H   H1583     1.0  0.18329  0.32533  0.03015  1.0000
  S   S264      1.0  0.95550  0.33149  0.18976  1.0000
  H   H1584     1.0  0.99095  0.99877  0.43380  1.0000
  C   C922      1.0  0.03821  0.32852  0.98583  1.0000
  C   C923      1.0  0.93563  0.20000  0.80934  1.0000
  H   H1585     1.0  0.25694  0.07428  0.65247  1.0000
  H   H1586     1.0  0.31618  0.11313  0.93311  1.0000
  H   H1587     1.0  0.13761  0.25401  0.62918  1.0000
  C   C924      1.0  0.09649  0.03065  0.97671  1.0000
  C   C925      1.0  0.06193  0.31669  0.76356  1.0000
  H   H1588     1.0  0.04930  0.15380  0.75383  1.0000
  S   S265      1.0  0.23977  0.26580  0.88075  1.0000
  H   H1589     1.0  0.09710  0.22142  0.51852  1.0000
  H   H1590     1.0  0.19267  0.09325  0.71053  1.0000
  C   C926      1.0  0.09787  0.24562  0.86757  1.0000
  H   H1591     1.0  0.22288  0.04549  0.71242  1.0000
  H   H1592     1.0  0.00049  0.07364  0.95254  1.0000
  H   H1593     1.0  0.16184  0.28342  0.82708  1.0000
  S   S266      1.0  0.10037  0.17010  0.63226  1.0000
  H   H1594     1.0  0.06676  0.06449  0.69552  1.0000
  N   N66       1.0  0.90183  0.00148  0.87947  1.0000
  C   C927      1.0  0.22870  0.22831  0.82338  1.0000
  C   C928      1.0  0.89512  0.05751  0.82571  1.0000
  H   H1595     1.0  0.09757  0.10042  0.53475  1.0000
  H   H1596     1.0  0.25256  0.18592  0.94586  1.0000
  H   H1597     1.0  0.07856  0.28333  0.53950  1.0000
  C   C929      1.0  0.23279  0.22445  0.78809  1.0000
  C   C930      1.0  0.90210  0.24864  0.95812  1.0000
  Fe  Fe134     1.0  0.30869  0.27816  0.68610  1.0000
  H   H1598     1.0  0.11768  0.23570  0.01243  1.0000
  Fe  Fe135     1.0  0.97983  0.10169  0.58180  1.0000
  C   C931      1.0  0.04694  0.29876  0.96336  1.0000
  H   H1599     1.0  0.31627  0.10331  0.56685  1.0000
  C   C932      1.0  0.89993  0.21448  0.98992  1.0000
  C   C933      1.0  0.34199  0.09432  0.73060  1.0000
  C   C934      1.0  0.14081  0.29923  0.80656  1.0000
  H   H1600     1.0  0.96582  0.18342  0.96425  1.0000
  H   H1601     1.0  0.89104  0.18513  0.98034  1.0000
  C   C935      1.0  0.86277  0.22675  0.67595  1.0000
  H   H1602     1.0  0.11575  0.04299  0.71563  1.0000
  H   H1603     1.0  0.02413  0.00934  0.65120  1.0000
  S   S267      1.0  0.11827  0.18273  0.79217  1.0000
  H   H1604     1.0  0.93046  0.16871  0.82460  1.0000
  H   H1605     1.0  0.04277  0.28222  0.84786  1.0000
  H   H1606     1.0  0.20244  0.07895  0.95640  1.0000
  H   H1607     1.0  0.90605  0.21215  0.87919  1.0000
  H   H1608     1.0  0.99016  0.19701  0.84345  1.0000
  C   C936      1.0  0.86926  0.03236  0.64269  1.0000
  H   H1609     1.0  0.31026  0.18026  0.68439  1.0000
  H   H1610     1.0  0.26583  0.07962  0.99832  1.0000
  Fe  Fe136     1.0  0.01684  0.10357  0.87824  1.0000
  H   H1611     1.0  0.99165  0.22810  0.97386  1.0000
  Fe  Fe137     1.0  0.03212  0.15852  0.61928  1.0000
  C   C937      1.0  0.90893  0.00235  0.64612  1.0000
  H   H1612     1.0  0.93432  0.01296  0.62637  1.0000
  C   C938      1.0  0.14465  0.19462  0.72376  1.0000
  H   H1613     1.0  0.28859  0.14263  0.66013  1.0000
  S   S268      1.0  0.29763  0.31405  0.95307  1.0000
  C   C939      1.0  0.87496  0.03039  0.89960  1.0000
  H   H1614     1.0  0.07547  0.04957  0.95895  1.0000
  C   C940      1.0  0.89686  0.31066  0.61538  1.0000
  H   H1615     1.0  0.07590  0.22020  0.87788  1.0000
  C   C941      1.0  0.89757  0.11222  0.95223  1.0000
  S   S269      1.0  0.01696  0.15890  0.56328  1.0000
  H   H1616     1.0  0.23900  0.05883  0.92673  1.0000
  H   H1617     1.0  0.29861  0.05491  0.96745  1.0000
  C   C942      1.0  0.28057  0.16420  0.67922  1.0000
  N   N67       1.0  0.09888  0.31265  0.82270  1.0000
  C   C943      1.0  0.25531  0.25374  0.76527  1.0000
  H   H1618     1.0  0.21228  0.17606  0.00102  1.0000
  C   C944      1.0  0.92424  0.28444  0.76098  1.0000
  C   C945      1.0  0.91175  0.06927  0.00684  1.0000
  H   H1619     1.0  0.33370  0.19403  0.01077  1.0000
  H   H1620     1.0  0.99384  0.23694  0.80787  1.0000
  H   H1621     1.0  0.33934  0.15851  0.88233  1.0000
  H   H1622     1.0  0.02764  0.08417  0.75215  1.0000
  S   S270      1.0  0.25629  0.24869  0.72090  1.0000
  H   H1623     1.0  0.02482  0.00981  0.69663  1.0000
  H   H1624     1.0  0.18524  0.13272  0.85607  1.0000
  H   H1625     1.0  0.19935  0.13116  0.76840  1.0000
  H   H1626     1.0  0.15723  0.19601  0.53985  1.0000
  C   C946      1.0  0.96782  0.07911  0.96158  1.0000
  C   C947      1.0  0.30310  0.07872  0.71271  1.0000
  H   H1627     1.0  0.91516  0.07288  0.80379  1.0000
  Fe  Fe138     1.0  0.10247  0.05783  0.88429  1.0000
  H   H1628     1.0  0.97787  0.12982  0.71423  1.0000
  H   H1629     1.0  0.18232  0.07822  0.76764  1.0000
  S   S271      1.0  0.30875  0.26542  0.63078  1.0000
  C   C948      1.0  0.29125  0.12273  0.91356  1.0000
  H   H1630     1.0  0.93500  0.31674  0.76136  1.0000
  C   C949      1.0  0.27420  0.28712  0.77801  1.0000
  S   S272      1.0  0.91790  0.13625  0.59006  1.0000
  C   C950      1.0  0.23651  0.08046  0.94676  1.0000
  C   C951      1.0  0.07239  0.31393  0.52544  1.0000
  H   H1631     1.0  0.95885  0.24330  0.84527  1.0000
  S   S273      1.0  0.02010  0.11261  0.82030  1.0000
  S   S274      1.0  0.00016  0.09798  0.63678  1.0000
  S   S275      1.0  0.01774  0.00350  0.79107  1.0000
  H   H1632     1.0  0.18078  0.24531  0.57776  1.0000
  H   H1633     1.0  0.87968  0.08282  0.83879  1.0000
  H   H1634     1.0  0.88412  0.03429  0.72787  1.0000
  H   H1635     1.0  0.10647  0.15141  0.54435  1.0000
  C   C952      1.0  0.92447  0.02868  0.85025  1.0000
  H   H1636     1.0  0.22530  0.18021  0.56270  1.0000
  C   C953      1.0  0.20728  0.15435  0.98175  1.0000
  S   S276      1.0  0.01983  0.30038  0.92439  1.0000
  H   H1637     1.0  0.22505  0.15705  0.71421  1.0000
  H   H1638     1.0  0.34144  0.12857  0.73020  1.0000
  H   H1639     1.0  0.88946  0.14209  0.78377  1.0000
  S   S277      1.0  0.34646  0.32643  0.87555  1.0000
  H   H1640     1.0  0.21651  0.17425  0.89691  1.0000
  H   H1641     1.0  0.88158  0.26384  0.86614  1.0000
  H   H1642     1.0  0.30868  0.18901  0.90970  1.0000
  H   H1643     1.0  0.90058  0.31328  0.58671  1.0000
  H   H1644     1.0  0.90393  0.28529  0.73789  1.0000
  C   C954      1.0  0.97727  0.19859  0.98629  1.0000
  H   H1645     1.0  0.04210  0.17179  0.98235  1.0000
  Fe  Fe139     1.0  0.27979  0.31543  0.89739  1.0000
  S   S278      1.0  0.97439  0.19816  0.63157  1.0000
  H   H1646     1.0  0.16786  0.19986  0.67048  1.0000
  H   H1647     1.0  0.95331  0.26450  0.75772  1.0000
  H   H1648     1.0  0.17831  0.27655  0.67390  1.0000
  H   H1649     1.0  0.86850  0.25669  0.68534  1.0000
  H   H1650     1.0  0.00448  0.13650  0.00459  1.0000
  C   C955      1.0  0.88333  0.09366  0.98503  1.0000
  H   H1651     1.0  0.94469  0.01025  0.83377  1.0000
  H   H1652     1.0  0.21618  0.13503  0.54223  1.0000
  C   C956      1.0  0.92808  0.08500  0.71841  1.0000
  H   H1653     1.0  0.21425  0.26312  0.60878  1.0000
  N   N68       1.0  0.94018  0.20738  0.01085  1.0000
  S   S279      1.0  0.11388  0.06279  0.82642  1.0000
  H   H1654     1.0  0.30281  0.04417  0.71962  1.0000
  H   H1655     1.0  0.28330  0.31733  0.82351  1.0000
  H   H1656     1.0  0.91294  0.28406  0.81583  1.0000
  H   H1657     1.0  0.24194  0.12293  0.85597  1.0000
  H   H1658     1.0  0.18844  0.32012  0.76653  1.0000
  H   H1659     1.0  0.13907  0.01754  0.65817  1.0000
  C   C957      1.0  0.21333  0.14023  0.90528  1.0000
  C   C958      1.0  0.30644  0.16399  0.89305  1.0000
  H   H1660     1.0  0.88244  0.06358  0.63388  1.0000
  H   H1661     1.0  0.89384  0.20898  0.67913  1.0000
  C   C959      1.0  0.98398  0.03360  0.76167  1.0000
  H   H1662     1.0  0.90460  0.28002  0.96609  1.0000
  H   H1663     1.0  0.89228  0.21451  0.74918  1.0000
  H   H1664     1.0  0.97590  0.04242  0.01180  1.0000
  N   N69       1.0  0.89320  0.22365  0.80354  1.0000
  H   H1665     1.0  0.25236  0.02985  0.98749  1.0000
  C   C960      1.0  0.11206  0.18027  0.74766  1.0000
  C   C961      1.0  0.18697  0.27227  0.59150  1.0000
  H   H1666     1.0  0.19646  0.29820  0.57152  1.0000
  H   H1667     1.0  0.09104  0.03934  0.63969  1.0000
  H   H1668     1.0  0.11779  0.08318  0.67947  1.0000
  H   H1669     1.0  0.27425  0.15872  0.73501  1.0000
  N   N70       1.0  0.14855  0.31894  0.63259  1.0000
  H   H1670     1.0  0.28572  0.17503  0.87085  1.0000
  H   H1671     1.0  0.34416  0.07888  0.75786  1.0000
  C   C962      1.0  0.94386  0.01908  0.75416  1.0000
  C   C963      1.0  0.20796  0.09775  0.77549  1.0000
  C   C964      1.0  0.07628  0.26583  0.97272  1.0000
  C   C965      1.0  0.14170  0.19017  0.68851  1.0000
  S   S280      1.0  0.03518  0.03563  0.88340  1.0000
  C   C966      1.0  0.35006  0.16635  0.00347  1.0000
  C   C967      1.0  0.10061  0.05468  0.69062  1.0000
  H   H1672     1.0  0.92206  0.00158  0.67244  1.0000
  H   H1673     1.0  0.07040  0.25345  0.81750  1.0000
  H   H1674     1.0  0.87954  0.22530  0.62143  1.0000
  H   H1675     1.0  0.29318  0.09868  0.89561  1.0000
  H   H1676     1.0  0.18063  0.13686  0.91769  1.0000
  S   S281      1.0  0.89581  0.11633  0.68868  1.0000
  C   C968      1.0  0.08523  0.02280  0.01232  1.0000
  C   C969      1.0  0.21209  0.11865  0.87229  1.0000
  H   H1677     1.0  0.20057  0.12350  0.99660  1.0000
  H   H1678     1.0  0.95042  0.19371  0.78393  1.0000
  H   H1679     1.0  0.20044  0.06838  0.65402  1.0000
  H   H1680     1.0  0.13583  0.32455  0.86677  1.0000
  C   C970      1.0  0.28895  0.31353  0.53747  1.0000
  S   S282      1.0  0.15084  0.02373  0.92015  1.0000
  H   H1681     1.0  0.22021  0.11933  0.65307  1.0000
  C   C971      1.0  0.35139  0.04276  0.56670  1.0000
  H   H1682     1.0  0.12781  0.23048  0.85831  1.0000
  C   C972      1.0  0.12278  0.12374  0.53571  1.0000
  Fe  Fe140     1.0  0.08853  0.12852  0.82590  1.0000
  H   H1683     1.0  0.05781  0.30034  0.68810  1.0000
  Fe  Fe141     1.0  0.94082  0.13732  0.64388  1.0000
  H   H1684     1.0  0.95489  0.27290  0.00638  1.0000
  H   H1685     1.0  0.10483  0.26236  0.88974  1.0000
  H   H1686     1.0  0.20285  0.06064  0.55050  1.0000
  H   H1687     1.0  0.07844  0.26348  0.66145  1.0000
  H   H1688     1.0  0.87187  0.22344  0.00618  1.0000
  C   C973      1.0  0.22083  0.16907  0.53725  1.0000
  S   S283      1.0  0.93040  0.24698  0.54024  1.0000
  H   H1689     1.0  0.04281  0.14878  0.69085  1.0000
  C   C974      1.0  0.13509  0.01402  0.96419  1.0000
  C   C975      1.0  0.91545  0.04517  0.73310  1.0000
  C   C976      1.0  0.97075  0.22137  0.82745  1.0000
  H   H1690     1.0  0.29102  0.31024  0.76033  1.0000
  H   H1691     1.0  0.32442  0.02951  0.55407  1.0000
  H   H1692     1.0  0.87596  0.13254  0.93601  1.0000
  H   H1693     1.0  0.31695  0.30210  0.55193  1.0000
  C   C977      1.0  0.22652  0.08616  0.66354  1.0000
  C   C978      1.0  0.26990  0.29109  0.81368  1.0000
  C   C979      1.0  0.07130  0.16116  0.70019  1.0000
  C   C980      1.0  0.87158  0.20910  0.77320  1.0000
  H   H1694     1.0  0.27657  0.09980  0.77561  1.0000
  C   C981      1.0  0.01437  0.16943  0.00125  1.0000
  C   C982      1.0  0.33243  0.07888  0.58517  1.0000
  S   S284      1.0  0.01800  0.32598  0.57974  1.0000
  H   H1695     1.0  0.20989  0.20616  0.84029  1.0000
  C   C983      1.0  0.95393  0.06149  0.99502  1.0000
  H   H1696     1.0  0.13647  0.27458  0.78960  1.0000
  C   C984      1.0  0.22379  0.03818  0.53965  1.0000
  H   H1697     1.0  0.25657  0.05143  0.76735  1.0000
  Fe  Fe142     1.0  0.34754  0.03099  0.86486  1.0000
  H   H1698     1.0  0.25869  0.18880  0.66611  1.0000
  N   N71       1.0  0.24729  0.12415  0.93093  1.0000
  H   H1699     1.0  0.31074  0.08321  0.68447  1.0000
  H   H1700     1.0  0.92870  0.24314  0.93940  1.0000
  C   C985      1.0  0.86328  0.21490  0.83489  1.0000
  C   C986      1.0  0.07518  0.16376  0.73577  1.0000
  C   C987      1.0  0.26520  0.06069  0.97668  1.0000
  H   H1701     1.0  0.86574  0.28594  0.79232  1.0000
  C   C988      1.0  0.89807  0.27014  0.79478  1.0000
  S   S285      1.0  0.95644  0.13055  0.89991  1.0000
  H   H1702     1.0  0.21499  0.30799  0.64743  1.0000
  H   H1703     1.0  0.27607  0.14575  0.97510  1.0000
  H   H1704     1.0  0.91651  0.28377  0.62749  1.0000
  H   H1705     1.0  0.33025  0.22515  0.80927  1.0000
  C   C989      1.0  0.25244  0.08578  0.76044  1.0000
  Fe  Fe143     1.0  0.04462  0.04644  0.82536  1.0000
  C   C990      1.0  0.25880  0.14485  0.71393  1.0000
  H   H1706     1.0  0.11890  0.28847  0.59340  1.0000
  N   N72       1.0  0.26003  0.09796  0.72180  1.0000
  C   C991      1.0  0.09571  0.26170  0.00504  1.0000
  H   H1707     1.0  0.14489  0.10929  0.55604  1.0000
  S   S286      1.0  0.98025  0.04228  0.55827  1.0000
  C   C992      1.0  0.93979  0.10534  0.94060  1.0000
  H   H1708     1.0  0.21790  0.19877  0.77855  1.0000
  C   C993      1.0  0.24806  0.15317  0.95816  1.0000
  C   C994      1.0  0.07545  0.27384  0.83774  1.0000
  C   C995      1.0  0.99627  0.07339  0.74705  1.0000
  H   H1709     1.0  0.11051  0.27846  0.69568  1.0000
  C   C996      1.0  0.22458  0.07960  0.70358  1.0000
  H   H1710     1.0  0.09231  0.31118  0.74895  1.0000
  C   C997      1.0  0.96843  0.09897  0.72539  1.0000
  S   S287      1.0  0.27749  0.03214  0.85381  1.0000
  H   H1711     1.0  0.30758  0.06619  0.60459  1.0000
  C   C998      1.0  0.87709  0.22975  0.86876  1.0000
  C   C999      1.0  0.10474  0.17391  0.67662  1.0000
  C   C1000     1.0  0.08764  0.28976  0.67505  1.0000
  H   H1712     1.0  0.17872  0.16638  0.96677  1.0000
  S   S288      1.0  0.08352  0.12540  0.88403  1.0000
  H   H1713     1.0  0.87020  0.04011  0.81455  1.0000
  C   C1001     1.0  0.86086  0.16249  0.77719  1.0000
  H   H1714     1.0  0.89391  0.05744  0.90428  1.0000
  H   H1715     1.0  0.08325  0.24290  0.95531  1.0000
  C   C1002     1.0  0.18218  0.30854  0.65978  1.0000
  H   H1716     1.0  0.20861  0.09149  0.80429  1.0000
  H   H1717     1.0  0.87171  0.24862  0.94396  1.0000
  H   H1718     1.0  0.04439  0.28723  0.76954  1.0000
  C   C1003     1.0  0.10426  0.02294  0.66430  1.0000
  H   H1719     1.0  0.17263  0.20851  0.73252  1.0000
  H   H1720     1.0  0.94720  0.04925  0.86090  1.0000
  C   C1004     1.0  0.14572  0.28301  0.61192  1.0000
  Fe  Fe144     1.0  0.95659  0.19340  0.57663  1.0000
  H   H1721     1.0  0.20573  0.08498  0.87846  1.0000
  C   C1005     1.0  0.24724  0.26145  0.83638  1.0000
  C   C1006     1.0  0.10494  0.32629  0.64914  1.0000
  H   H1722     1.0  0.25102  0.17555  0.52161  1.0000
  H   H1723     1.0  0.87451  0.05276  0.57520  1.0000
  H   H1724     1.0  0.85885  0.18081  0.84175  1.0000
  C   C1007     1.0  0.01211  0.04546  0.52004  1.0000
  C   C1008     1.0  0.18206  0.19276  0.51926  1.0000
  H   H1725     1.0  0.21174  0.32982  0.70393  1.0000
  H   H1726     1.0  0.95372  0.00237  0.91506  1.0000
  H   H1727     1.0  0.88124  0.00570  0.95502  1.0000
  H   H1728     1.0  0.35158  0.23097  0.85039  1.0000
