data_image0
_chemical_formula_structural       CHSFeS2FeS2FeSFeS3CHSFeS2C6H4C6H4C2H3C6H4NC4SH2CH8CFeH2CH2FeH4CH2SH6NC2H4CH4CH5CHFeH2CHSHSHCHCH6CHSH3FeS2FeS2FeSFeS3HSHFeS2H3C6H4C6H4C6H4CHCH2NSHC2H6C2H3NH2FeH2CH7CHCH8C5H3C4HCH10CHC2H4CSH2CH7CH2C3HFeCH2CH2CHN2CHC3HCHCH2NCH5SHNSCFeCSFeHC3SH2CHC2H2SCNC5HFeC2H4CSH3CH2CH4CH4CNCHCHC4H4SH5SH4CHC2H6CHCHC3HCH3C2H2CH2CH3CHCNFeCFeS2FeHSCS2CSH2SCFeSHSH8CFeHCH3C6H6CH3C2NCHCHCH2SHCH8CNC8H14CH5FeC2HNH8CH2SC2H3NH4CH2CFeCHC3HSFeHS2HSC5H2CH2SCH4CH2FeHCHCH9S2H2CH3CHC2H2CH2CH2CFeC2SH4C4HCSH4SFeCH4SFeCSCHS2C2HC2H3NC4HCH3C2HCH4CHCHCH2CH6FeCHCH7C2HSNH2C2HSHCH3SCH3C2FeHC2H2NH2CSH3CHC2HC2HC2H2CFeHSFeSH4S2HSH2SHFe2S2H6CH2C6H4C3HCH4CH3CH3C2H2CH2SC2FeH2CHSH2CH2NHC2H3CH2CHCHC3H3NH2SCHCHCH3C2FeHFeCFeHC5SH2CHCH2CFeCHNH3SCHC5H4CSC2HSHCH5C3H3SHCS2H4SCHNH4CH2CFeCHCH6CH2FeS2FeS2FeS2FeSFeS4CH2S2C7H3C6H5C2H2C6H4CH4CH4NCHCHNH4C2H2C2HNH3CH3CH4CH3CHCH4CH5FeCH3C2H2CH3CHCH2CHCH6CHCH4CH3CH2FeH3CFeS2FeS2FeSFeS3FeS2HSHCSHC6H4C6H4C6H4CHC2H4CH2CSH2FeH4CHNH4CH2CHCH2CH2CH4CH2FeHCHCH6CHCHCHN2H2C2H5C
_chemical_formula_sum              "C392 H672 S112 Fe56 N28"
_cell_length_a       34.238
_cell_length_b       34.14
_cell_length_c       47.063
_cell_angle_alpha    90.7146
_cell_angle_beta     90.4678
_cell_angle_gamma    90.0068

_space_group_name_H-M_alt    "P 1"
_space_group_IT_number       1

loop_
  _space_group_symop_operation_xyz
  'x, y, z'

loop_
  _atom_site_type_symbol
  _atom_site_label
  _atom_site_symmetry_multiplicity
  _atom_site_fract_x
  _atom_site_fract_y
  _atom_site_fract_z
  _atom_site_occupancy
  C   C1        1.0  0.05416  0.21397  0.02348  1.0000
  H   H1        1.0  0.14944  0.23812  0.07552  1.0000
  S   S1        1.0  0.47810  0.12378  0.22395  1.0000
  Fe  Fe1       1.0  0.27800  0.20762  0.15234  1.0000
  S   S2        1.0  0.24924  0.19774  0.10949  1.0000
  S   S3        1.0  0.30694  0.15537  0.17398  1.0000
  Fe  Fe2       1.0  0.23413  0.28688  0.16189  1.0000
  S   S4        1.0  0.20346  0.28272  0.11967  1.0000
  S   S5        1.0  0.21921  0.32934  0.19828  1.0000
  Fe  Fe3       1.0  0.19453  0.21959  0.12997  1.0000
  S   S6        1.0  0.13519  0.19202  0.12672  1.0000
  Fe  Fe4       1.0  0.26111  0.26154  0.10232  1.0000
  S   S7        1.0  0.28168  0.28445  0.05963  1.0000
  S   S8        1.0  0.22165  0.22465  0.17289  1.0000
  S   S9        1.0  0.29357  0.27079  0.14419  1.0000
  C   C2        1.0  0.12116  0.17334  0.05109  1.0000
  H   H2        1.0  0.02836  0.30946  0.27407  1.0000
  S   S10       1.0  0.07015  0.08325  0.26817  1.0000
  Fe  Fe5       1.0  0.04917  0.48792  0.23225  1.0000
  S   S11       1.0  0.08039  0.45449  0.19673  1.0000
  S   S12       1.0  0.06804  0.49554  0.27796  1.0000
  C   C3        1.0  0.17870  0.36198  0.19791  1.0000
  C   C4        1.0  0.15887  0.37102  0.17274  1.0000
  C   C5        1.0  0.12836  0.39876  0.17297  1.0000
  C   C6        1.0  0.11678  0.41736  0.19838  1.0000
  C   C7        1.0  0.13587  0.40756  0.22373  1.0000
  C   C8        1.0  0.16694  0.38035  0.22341  1.0000
  H   H3        1.0  0.16763  0.35730  0.15296  1.0000
  H   H4        1.0  0.11386  0.40612  0.15323  1.0000
  H   H5        1.0  0.12719  0.42141  0.24348  1.0000
  H   H6        1.0  0.18210  0.37357  0.24300  1.0000
  C   C9        1.0  0.13510  0.14951  0.14717  1.0000
  C   C10       1.0  0.17019  0.13014  0.15298  1.0000
  C   C11       1.0  0.17060  0.09786  0.17108  1.0000
  C   C12       1.0  0.13615  0.08548  0.18399  1.0000
  C   C13       1.0  0.10091  0.10455  0.17797  1.0000
  C   C14       1.0  0.10031  0.13622  0.15920  1.0000
  H   H7        1.0  0.19719  0.14025  0.14380  1.0000
  H   H8        1.0  0.19791  0.08317  0.17567  1.0000
  H   H9        1.0  0.07419  0.09500  0.18783  1.0000
  H   H10       1.0  0.07314  0.15121  0.15478  1.0000
  C   C15       1.0  0.25853  0.22101  0.02627  1.0000
  C   C16       1.0  0.27040  0.26019  0.02710  1.0000
  H   H11       1.0  0.14860  0.11850  0.06333  1.0000
  H   H12       1.0  0.25694  0.20469  0.04576  1.0000
  H   H13       1.0  0.19471  0.26655  0.25102  1.0000
  C   C17       1.0  0.43037  0.13203  0.21010  1.0000
  C   C18       1.0  0.42134  0.16872  0.19837  1.0000
  C   C19       1.0  0.38380  0.17650  0.18716  1.0000
  C   C20       1.0  0.35485  0.14759  0.18763  1.0000
  C   C21       1.0  0.36388  0.11099  0.19945  1.0000
  C   C22       1.0  0.40140  0.10319  0.21060  1.0000
  H   H14       1.0  0.44351  0.19124  0.19787  1.0000
  H   H15       1.0  0.37726  0.20477  0.17815  1.0000
  H   H16       1.0  0.34170  0.08844  0.19989  1.0000
  H   H17       1.0  0.40790  0.07487  0.21953  1.0000
  N   N1        1.0  0.16569  0.18743  0.24812  1.0000
  C   C23       1.0  0.15645  0.22036  0.26867  1.0000
  C   C24       1.0  0.14977  0.14972  0.25963  1.0000
  C   C25       1.0  0.14703  0.19448  0.21954  1.0000
  C   C26       1.0  0.20943  0.18531  0.24468  1.0000
  S   S13       1.0  0.13817  0.04739  0.20855  1.0000
  H   H18       1.0  0.16864  0.47656  0.27774  1.0000
  H   H19       1.0  0.20021  0.12835  0.28492  1.0000
  C   C27       1.0  0.22508  0.14999  0.22738  1.0000
  H   H20       1.0  0.09163  0.26380  0.02891  1.0000
  H   H21       1.0  0.17050  0.47601  0.18154  1.0000
  H   H22       1.0  0.15155  0.12562  0.24347  1.0000
  H   H23       1.0  0.11815  0.15284  0.26425  1.0000
  H   H24       1.0  0.15935  0.22095  0.20953  1.0000
  H   H25       1.0  0.15357  0.17002  0.20463  1.0000
  H   H26       1.0  0.22061  0.21191  0.23406  1.0000
  H   H27       1.0  0.22438  0.18500  0.26576  1.0000
  C   C28       1.0  0.16411  0.26226  0.25789  1.0000
  Fe  Fe6       1.0  0.08292  0.04031  0.23315  1.0000
  H   H28       1.0  0.38321  0.23234  0.01812  1.0000
  H   H29       1.0  0.17005  0.03340  0.28553  1.0000
  C   C29       1.0  0.16879  0.13522  0.28743  1.0000
  H   H30       1.0  0.17633  0.16024  0.07366  1.0000
  H   H31       1.0  0.17399  0.21742  0.28854  1.0000
  Fe  Fe7       1.0  0.50085  0.06692  0.24306  1.0000
  H   H32       1.0  0.14407  0.27037  0.24027  1.0000
  H   H33       1.0  0.21777  0.12144  0.23691  1.0000
  H   H34       1.0  0.25746  0.15180  0.22663  1.0000
  H   H35       1.0  0.21465  0.15010  0.20509  1.0000
  C   C30       1.0  0.08948  0.23420  0.03800  1.0000
  H   H36       1.0  0.17547  0.14388  0.03676  1.0000
  H   H37       1.0  0.04397  0.18855  0.03590  1.0000
  S   S14       1.0  0.51480  0.06553  0.28996  1.0000
  H   H38       1.0  0.08742  0.17079  0.22407  1.0000
  H   H39       1.0  0.09183  0.22234  0.23378  1.0000
  H   H40       1.0  0.18632  0.21791  0.05351  1.0000
  H   H41       1.0  0.24053  0.02437  0.24569  1.0000
  H   H42       1.0  0.10701  0.17795  0.07209  1.0000
  H   H43       1.0  0.14448  0.29568  0.04128  1.0000
  N   N2        1.0  0.12750  0.21199  0.03642  1.0000
  C   C31       1.0  0.15840  0.23436  0.05293  1.0000
  C   C32       1.0  0.02497  0.22065  0.28946  1.0000
  H   H44       1.0  0.16486  0.15642  0.30520  1.0000
  H   H45       1.0  0.13300  0.49632  0.23544  1.0000
  H   H46       1.0  0.03179  0.20385  0.30894  1.0000
  H   H47       1.0  0.03136  0.20074  0.27119  1.0000
  C   C33       1.0  0.15785  0.14797  0.05621  1.0000
  H   H48       1.0  0.51553  0.18421  0.25847  1.0000
  H   H49       1.0  0.19138  0.28842  0.05660  1.0000
  H   H50       1.0  0.03559  0.30754  0.31222  1.0000
  H   H51       1.0  0.12547  0.21903  0.27557  1.0000
  C   C34       1.0  0.16945  0.27512  0.04187  1.0000
  H   H52       1.0  0.04472  0.24609  0.28791  1.0000
  H   H53       1.0  0.10053  0.15444  0.03872  1.0000
  H   H54       1.0  0.09268  0.20697  0.19745  1.0000
  H   H55       1.0  0.08154  0.23974  0.06067  1.0000
  H   H56       1.0  0.20362  0.51287  0.16831  1.0000
  C   C35       1.0  0.10216  0.19887  0.21926  1.0000
  H   H57       1.0  0.15882  0.28361  0.27544  1.0000
  Fe  Fe8       1.0  0.06445  0.03015  0.29501  1.0000
  H   H58       1.0  0.15705  0.50463  0.15187  1.0000
  H   H59       1.0  0.02940  0.23498  0.02259  1.0000
  C   C36       1.0  0.16428  0.50512  0.23687  1.0000
  H   H60       1.0  0.18103  0.48045  0.22727  1.0000
  S   S15       1.0  0.02045  0.03431  0.21876  1.0000
  H   H61       1.0  0.50541  0.18446  0.30971  1.0000
  S   S16       1.0  0.09623  0.02681  0.33663  1.0000
  H   H62       1.0  0.15422  0.10759  0.29372  1.0000
  C   C37       1.0  0.17540  0.50571  0.26875  1.0000
  H   H63       1.0  0.34315  0.19994  0.01255  1.0000
  C   C38       1.0  0.17265  0.50580  0.17266  1.0000
  H   H64       1.0  0.51717  0.21455  0.21251  1.0000
  H   H65       1.0  0.20704  0.51080  0.27229  1.0000
  H   H66       1.0  0.18402  0.27313  0.02096  1.0000
  H   H67       1.0  0.23465  0.02220  0.29520  1.0000
  H   H68       1.0  0.01832  0.25779  0.33679  1.0000
  H   H69       1.0  0.15154  0.04163  0.60281  1.0000
  C   C39       1.0  0.12476  0.04160  0.61591  1.0000
  H   H70       1.0  0.10454  0.06334  0.60635  1.0000
  S   S17       1.0  0.04458  0.05840  0.66580  1.0000
  H   H71       1.0  0.13124  0.05247  0.63762  1.0000
  H   H72       1.0  0.51050  0.13408  0.67891  1.0000
  H   H73       1.0  0.02145  0.07096  0.60860  1.0000
  Fe  Fe9       1.0  0.25141  0.21975  0.89802  1.0000
  S   S18       1.0  0.29756  0.26374  0.88701  1.0000
  S   S19       1.0  0.23656  0.19950  0.94261  1.0000
  Fe  Fe10      1.0  0.23749  0.19741  0.83570  1.0000
  S   S20       1.0  0.28366  0.23846  0.82084  1.0000
  S   S21       1.0  0.20953  0.16568  0.79875  1.0000
  Fe  Fe11      1.0  0.31968  0.21649  0.85717  1.0000
  S   S22       1.0  0.38376  0.19863  0.85586  1.0000
  Fe  Fe12      1.0  0.25640  0.28113  0.85146  1.0000
  S   S23       1.0  0.24544  0.34104  0.83221  1.0000
  S   S24       1.0  0.27544  0.17189  0.86967  1.0000
  S   S25       1.0  0.20837  0.24070  0.86481  1.0000
  H   H74       1.0  0.31572  0.16824  0.97562  1.0000
  S   S26       1.0  0.43253  0.04729  0.78361  1.0000
  H   H75       1.0  0.12935  0.26601  0.99302  1.0000
  Fe  Fe13      1.0  0.05441  0.46537  0.79058  1.0000
  S   S27       1.0  0.07811  0.42084  0.82196  1.0000
  S   S28       1.0  0.07402  0.47733  0.74604  1.0000
  H   H76       1.0  0.15612  0.22179  0.77070  1.0000
  H   H77       1.0  0.30663  0.14717  0.92352  1.0000
  H   H78       1.0  0.06049  0.20450  0.00140  1.0000
  C   C40       1.0  0.19794  0.36075  0.82837  1.0000
  C   C41       1.0  0.18947  0.38508  0.80523  1.0000
  C   C42       1.0  0.15258  0.40302  0.80244  1.0000
  C   C43       1.0  0.12428  0.39768  0.82332  1.0000
  C   C44       1.0  0.13264  0.37298  0.84626  1.0000
  C   C45       1.0  0.16915  0.35436  0.84868  1.0000
  H   H79       1.0  0.21155  0.38989  0.78932  1.0000
  H   H80       1.0  0.14612  0.42091  0.78421  1.0000
  H   H81       1.0  0.11084  0.36852  0.86243  1.0000
  H   H82       1.0  0.17544  0.33597  0.86671  1.0000
  C   C46       1.0  0.39732  0.15626  0.83609  1.0000
  C   C47       1.0  0.43656  0.14392  0.83593  1.0000
  C   C48       1.0  0.44806  0.11051  0.82011  1.0000
  C   C49       1.0  0.42026  0.08912  0.80439  1.0000
  C   C50       1.0  0.38109  0.10144  0.80469  1.0000
  C   C51       1.0  0.36964  0.13479  0.82041  1.0000
  H   H83       1.0  0.45812  0.16032  0.84807  1.0000
  H   H84       1.0  0.47825  0.10120  0.82016  1.0000
  H   H85       1.0  0.35943  0.08513  0.79257  1.0000
  H   H86       1.0  0.33941  0.14400  0.82027  1.0000
  C   C52       1.0  0.08745  0.11464  0.80642  1.0000
  C   C53       1.0  0.10739  0.12726  0.83102  1.0000
  C   C54       1.0  0.14461  0.14432  0.82898  1.0000
  C   C55       1.0  0.16170  0.14860  0.80232  1.0000
  C   C56       1.0  0.14101  0.13756  0.77774  1.0000
  C   C57       1.0  0.10379  0.12103  0.77979  1.0000
  H   H87       1.0  0.38535  0.14123  0.91835  1.0000
  H   H88       1.0  0.16050  0.15298  0.84802  1.0000
  H   H89       1.0  0.15389  0.14151  0.75705  1.0000
  H   H90       1.0  0.08768  0.11329  0.76072  1.0000
  C   C58       1.0  0.25106  0.22343  0.97459  1.0000
  H   H91       1.0  0.28299  0.31083  0.00186  1.0000
  C   C59       1.0  0.26388  0.26232  0.97526  1.0000
  H   H92       1.0  0.42961  0.19624  0.91134  1.0000
  H   H93       1.0  0.26574  0.27856  0.95572  1.0000
  N   N3        1.0  0.11480  0.26330  0.78821  1.0000
  S   S29       1.0  0.04317  0.08925  0.80899  1.0000
  H   H94       1.0  0.27112  0.08094  0.84191  1.0000
  C   C60       1.0  0.18548  0.27751  0.77250  1.0000
  C   C61       1.0  0.27355  0.28057  0.00143  1.0000
  H   H95       1.0  0.36337  0.27280  0.94350  1.0000
  H   H96       1.0  0.33510  0.10391  0.93195  1.0000
  H   H97       1.0  0.08367  0.29186  0.84049  1.0000
  H   H98       1.0  0.43621  0.09741  0.73091  1.0000
  H   H99       1.0  0.48919  0.21886  0.74255  1.0000
  H   H100      1.0  0.49147  0.18396  0.68166  1.0000
  C   C62       1.0  0.22361  0.05534  0.81684  1.0000
  C   C63       1.0  0.31693  0.12799  0.94077  1.0000
  H   H101      1.0  0.34942  0.24195  0.98997  1.0000
  H   H102      1.0  0.37983  0.25470  0.91012  1.0000
  H   H103      1.0  0.09459  0.12265  0.85166  1.0000
  N   N4        1.0  0.37121  0.17786  0.95483  1.0000
  H   H104      1.0  0.11974  0.32526  0.79648  1.0000
  H   H105      1.0  0.23740  0.50758  0.79460  1.0000
  Fe  Fe14      1.0  0.03497  0.03419  0.70917  1.0000
  H   H106      1.0  0.29054  0.11422  0.94996  1.0000
  H   H107      1.0  0.19024  0.50034  0.86682  1.0000
  C   C64       1.0  0.49658  0.11730  0.73804  1.0000
  H   H108      1.0  0.09209  0.20434  0.79080  1.0000
  H   H109      1.0  0.14020  0.48658  0.79956  1.0000
  H   H110      1.0  0.34709  0.19807  0.91497  1.0000
  H   H111      1.0  0.09438  0.29850  0.73702  1.0000
  H   H112      1.0  0.17956  0.30937  0.77385  1.0000
  H   H113      1.0  0.20199  0.26834  0.79172  1.0000
  H   H114      1.0  0.20376  0.08076  0.82049  1.0000
  C   C65       1.0  0.51739  0.16500  0.68444  1.0000
  H   H115      1.0  0.27043  0.09707  0.80618  1.0000
  C   C66       1.0  0.10019  0.30471  0.78466  1.0000
  H   H116      1.0  0.12372  0.33935  0.74967  1.0000
  H   H117      1.0  0.46287  0.18924  0.78649  1.0000
  H   H118      1.0  0.16982  0.46370  0.84404  1.0000
  H   H119      1.0  0.15366  0.28087  0.82277  1.0000
  H   H120      1.0  0.45501  0.15165  0.91613  1.0000
  H   H121      1.0  0.43593  0.15318  0.76562  1.0000
  H   H122      1.0  0.45953  0.18885  0.72117  1.0000
  H   H123      1.0  0.07084  0.30839  0.79439  1.0000
  C   C67       1.0  0.43666  0.17371  0.92734  1.0000
  C   C68       1.0  0.44886  0.18293  0.76561  1.0000
  C   C69       1.0  0.33865  0.15123  0.96434  1.0000
  C   C70       1.0  0.14783  0.25312  0.76839  1.0000
  C   C71       1.0  0.37825  0.24757  0.93307  1.0000
  H   H124      1.0  0.08587  0.22174  0.73805  1.0000
  H   H125      1.0  0.20936  0.09091  0.76923  1.0000
  H   H126      1.0  0.45122  0.13152  0.70448  1.0000
  C   C72       1.0  0.09790  0.32072  0.75407  1.0000
  C   C73       1.0  0.13031  0.25900  0.81816  1.0000
  C   C74       1.0  0.39958  0.15321  0.93797  1.0000
  C   C75       1.0  0.35387  0.20970  0.93667  1.0000
  H   H127      1.0  0.42427  0.20396  0.76347  1.0000
  C   C76       1.0  0.10035  0.26416  0.84225  1.0000
  H   H128      1.0  0.34967  0.12945  0.97995  1.0000
  H   H129      1.0  0.40916  0.12746  0.95059  1.0000
  H   H130      1.0  0.15365  0.05517  0.78958  1.0000
  H   H131      1.0  0.07234  0.34068  0.75246  1.0000
  H   H132      1.0  0.40271  0.16868  0.99427  1.0000
  H   H133      1.0  0.45492  0.18614  0.94475  1.0000
  H   H134      1.0  0.13929  0.25572  0.74579  1.0000
  H   H135      1.0  0.48819  0.10731  0.75961  1.0000
  H   H136      1.0  0.16224  0.23884  0.97157  1.0000
  H   H137      1.0  0.05716  0.24138  0.79847  1.0000
  C   C77       1.0  0.12973  0.50849  0.85745  1.0000
  H   H138      1.0  0.20510  0.27228  0.75416  1.0000
  C   C78       1.0  0.17097  0.49597  0.84789  1.0000
  C   C79       1.0  0.39091  0.19337  0.98150  1.0000
  H   H139      1.0  0.14424  0.22976  0.82087  1.0000
  H   H140      1.0  0.04256  0.20541  0.75461  1.0000
  H   H141      1.0  0.18790  0.48829  0.76190  1.0000
  H   H142      1.0  0.40870  0.24647  0.94076  1.0000
  C   C80       1.0  0.26585  0.07099  0.81964  1.0000
  S   S30       1.0  0.08342  0.03571  0.74127  1.0000
  H   H143      1.0  0.28800  0.04830  0.81465  1.0000
  H   H144      1.0  0.11159  0.22872  0.96882  1.0000
  C   C81       1.0  0.13511  0.23648  0.98428  1.0000
  H   H145      1.0  0.11624  0.26534  0.86293  1.0000
  H   H146      1.0  0.10725  0.50145  0.84117  1.0000
  H   H147      1.0  0.32514  0.21915  0.94527  1.0000
  H   H148      1.0  0.41690  0.21134  0.97700  1.0000
  H   H149      1.0  0.12176  0.49153  0.87655  1.0000
  H   H150      1.0  0.17153  0.19474  0.00616  1.0000
  H   H151      1.0  0.21928  0.03580  0.83530  1.0000
  C   C82       1.0  0.08210  0.23402  0.78437  1.0000
  H   H152      1.0  0.23980  0.17243  0.99980  1.0000
  H   H153      1.0  0.08012  0.23881  0.84324  1.0000
  C   C83       1.0  0.47744  0.18846  0.74079  1.0000
  C   C84       1.0  0.24896  0.20277  0.00016  1.0000
  C   C85       1.0  0.06413  0.22975  0.75442  1.0000
  H   H154      1.0  0.04758  0.25634  0.74841  1.0000
  Fe  Fe15      1.0  0.03570  0.04622  0.77276  1.0000
  C   C86       1.0  0.46139  0.10763  0.71821  1.0000
  H   H155      1.0  0.12434  0.17763  0.99746  1.0000
  H   H156      1.0  0.24845  0.47613  0.85508  1.0000
  C   C87       1.0  0.21116  0.04887  0.73511  1.0000
  H   H157      1.0  0.17938  0.04348  0.73289  1.0000
  H   H158      1.0  0.21698  0.46429  0.80789  1.0000
  C   C88       1.0  0.25677  0.49396  0.83653  1.0000
  H   H159      1.0  0.28278  0.47943  0.82713  1.0000
  N   N5        1.0  0.51050  0.15927  0.73925  1.0000
  N   N6        1.0  0.18720  0.51659  0.82229  1.0000
  C   C89       1.0  0.14034  0.20351  0.00634  1.0000
  H   H160      1.0  0.46916  0.08287  0.70381  1.0000
  C   C90       1.0  0.22401  0.49520  0.81386  1.0000
  C   C91       1.0  0.16991  0.02693  0.78942  1.0000
  C   C92       1.0  0.36479  0.21822  0.00135  1.0000
  H   H161      1.0  0.14738  0.51851  0.75297  1.0000
  C   C93       1.0  0.15719  0.51431  0.79854  1.0000
  H   H162      1.0  0.12662  0.02970  0.68307  1.0000
  C   C94       1.0  0.22309  0.06181  0.76539  1.0000
  H   H163      1.0  0.25509  0.06730  0.76448  1.0000
  H   H164      1.0  0.21803  0.07305  0.72037  1.0000
  N   N7        1.0  0.21337  0.03442  0.78925  1.0000
  C   C95       1.0  0.17252  0.51581  0.76780  1.0000
  H   H165      1.0  0.22840  0.02327  0.72777  1.0000
  H   H166      1.0  0.15435  0.02068  0.83446  1.0000
  H   H167      1.0  0.13753  0.81023  0.27508  1.0000
  H   H168      1.0  0.43709  0.84531  0.28773  1.0000
  H   H169      1.0  0.30152  0.94145  0.28500  1.0000
  S   S31       1.0  0.46222  0.97198  0.32184  1.0000
  H   H170      1.0  0.15816  0.52745  0.28104  1.0000
  N   N8        1.0  0.24100  0.96022  0.28447  1.0000
  S   S32       1.0  0.08113  0.98758  0.26073  1.0000
  C   C96       1.0  0.07428  0.85768  0.26128  1.0000
  Fe  Fe16      1.0  0.05118  0.55911  0.27283  1.0000
  C   C97       1.0  0.22493  0.92161  0.29460  1.0000
  S   S33       1.0  0.07948  0.61799  0.28429  1.0000
  Fe  Fe17      1.0  0.27938  0.82620  0.34222  1.0000
  H   H171      1.0  0.48929  0.83917  0.33031  1.0000
  C   C98       1.0  0.10414  0.97673  0.34139  1.0000
  C   C99       1.0  0.42126  0.94033  0.31791  1.0000
  C   C100      1.0  0.17919  0.62535  0.33296  1.0000
  S   S34       1.0  0.47899  0.00466  0.24050  1.0000
  H   H172      1.0  0.16387  0.72248  0.32226  1.0000
  H   H173      1.0  0.43317  0.81726  0.25506  1.0000
  C   C101      1.0  0.12109  0.89645  0.34096  1.0000
  H   H174      1.0  0.47826  0.92251  0.25231  1.0000
  C   C102      1.0  0.07762  0.95005  0.32944  1.0000
  C   C103      1.0  0.09356  0.87081  0.23355  1.0000
  H   H175      1.0  0.05084  0.96033  0.31975  1.0000
  H   H176      1.0  0.06514  0.88964  0.32045  1.0000
  S   S35       1.0  0.22871  0.79302  0.32247  1.0000
  C   C104      1.0  0.40505  0.93111  0.29129  1.0000
  N   N9        1.0  0.05529  0.81780  0.26131  1.0000
  C   C105      1.0  0.12057  0.63505  0.30417  1.0000
  C   C106      1.0  0.14672  0.60987  0.31785  1.0000
  C   C107      1.0  0.15020  0.57529  0.23692  1.0000
  C   C108      1.0  0.11973  0.78311  0.27525  1.0000
  C   C109      1.0  0.15939  0.69113  0.32107  1.0000
  H   H177      1.0  0.06910  0.75646  0.25549  1.0000
  Fe  Fe18      1.0  0.49650  0.00184  0.28668  1.0000
  C   C110      1.0  0.28823  0.95920  0.32782  1.0000
  C   C111      1.0  0.44669  0.81840  0.27659  1.0000
  H   H178      1.0  0.12227  0.56441  0.24593  1.0000
  H   H179      1.0  0.51060  0.84592  0.22700  1.0000
  H   H180      1.0  0.14180  0.57861  0.31699  1.0000
  H   H181      1.0  0.49657  0.79389  0.25623  1.0000
  C   C112      1.0  0.18567  0.66606  0.33465  1.0000
  S   S36       1.0  0.03658  0.55222  0.22619  1.0000
  H   H182      1.0  0.03170  0.77971  0.29363  1.0000
  H   H183      1.0  0.28119  0.92913  0.33483  1.0000
  H   H184      1.0  0.25865  0.57826  0.19476  1.0000
  C   C113      1.0  0.49145  0.81332  0.27498  1.0000
  H   H185      1.0  0.44747  0.88075  0.24407  1.0000
  H   H186      1.0  0.11638  0.89296  0.23873  1.0000
  C   C114      1.0  0.13876  0.61207  0.22002  1.0000
  H   H187      1.0  0.47468  0.90419  0.21693  1.0000
  H   H188      1.0  0.22580  0.55608  0.24195  1.0000
  H   H189      1.0  0.21403  0.95447  0.24240  1.0000
  H   H190      1.0  0.10917  0.84707  0.22227  1.0000
  C   C115      1.0  0.17698  0.00168  0.28378  1.0000
  H   H191      1.0  0.07167  0.88452  0.21919  1.0000
  H   H192      1.0  0.41638  0.94485  0.27250  1.0000
  H   H193      1.0  0.15456  0.98547  0.29570  1.0000
  H   H194      1.0  0.12159  0.52956  0.19343  1.0000
  C   C116      1.0  0.24287  0.96030  0.25244  1.0000
  N   N10       1.0  0.17089  0.54271  0.22099  1.0000
  C   C117      1.0  0.08586  0.91001  0.32960  1.0000
  H   H195      1.0  0.26173  0.93581  0.24472  1.0000
  C   C118      1.0  0.37417  0.89605  0.33989  1.0000
  H   H196      1.0  0.16790  0.58548  0.25557  1.0000
  C   C119      1.0  0.47554  0.89517  0.23954  1.0000
  C   C120      1.0  0.12717  0.67567  0.30587  1.0000
  C   C121      1.0  0.21428  0.54999  0.22017  1.0000
  C   C122      1.0  0.35861  0.88617  0.31320  1.0000
  H   H197      1.0  0.43415  0.79422  0.28922  1.0000
  H   H198      1.0  0.16431  0.92529  0.27767  1.0000
  H   H199      1.0  0.19929  0.60573  0.34347  1.0000
  H   H200      1.0  0.22889  0.61212  0.21480  1.0000
  S   S37       1.0  0.13226  0.84659  0.33710  1.0000
  H   H201      1.0  0.50079  0.79501  0.29325  1.0000
  H   H202      1.0  0.21692  0.92363  0.31746  1.0000
  H   H203      1.0  0.09608  0.86109  0.27878  1.0000
  H   H204      1.0  0.24773  0.89829  0.29328  1.0000
  H   H205      1.0  0.06221  0.81764  0.30730  1.0000
  S   S38       1.0  0.31996  0.85190  0.30879  1.0000
  H   H206      1.0  0.21340  0.99064  0.31961  1.0000
  H   H207      1.0  0.11122  0.77632  0.29734  1.0000
  H   H208      1.0  0.36243  0.89640  0.26818  1.0000
  H   H209      1.0  0.10704  0.69537  0.29547  1.0000
  C   C123      1.0  0.51125  0.86856  0.24424  1.0000
  H   H210      1.0  0.05193  0.82520  0.19973  1.0000
  C   C124      1.0  0.37430  0.90378  0.28894  1.0000
  C   C125      1.0  0.28248  0.96376  0.29544  1.0000
  H   H211      1.0  0.13903  0.75881  0.26810  1.0000
  H   H212      1.0  0.17391  0.99478  0.26090  1.0000
  H   H213      1.0  0.16309  0.62452  0.20786  1.0000
  H   H214      1.0  0.11361  0.60584  0.20560  1.0000
  H   H215      1.0  0.21136  0.58870  0.18239  1.0000
  H   H216      1.0  0.19681  0.89434  0.25696  1.0000
  C   C126      1.0  0.21797  0.99425  0.29641  1.0000
  H   H217      1.0  0.28936  0.00360  0.24393  1.0000
  C   C127      1.0  0.50698  0.87935  0.29627  1.0000
  H   H218      1.0  0.09607  0.78749  0.23330  1.0000
  C   C128      1.0  0.08411  0.78545  0.25502  1.0000
  C   C129      1.0  0.22848  0.58446  0.20210  1.0000
  C   C130      1.0  0.18909  0.90466  0.27865  1.0000
  H   H219      1.0  0.05259  0.88086  0.26626  1.0000
  C   C131      1.0  0.15316  0.53716  0.19173  1.0000
  H   H220      1.0  0.03965  0.77463  0.20680  1.0000
  H   H221      1.0  0.12894  0.63525  0.23513  1.0000
  H   H222      1.0  0.17873  0.87847  0.29014  1.0000
  C   C132      1.0  0.03957  0.81113  0.29080  1.0000
  C   C133      1.0  0.40552  0.92278  0.34218  1.0000
  H   H223      1.0  0.15335  0.56448  0.17931  1.0000
  H   H224      1.0  0.29531  0.99268  0.29015  1.0000
  C   C134      1.0  0.03021  0.80559  0.20929  1.0000
  H   H225      1.0  0.31954  0.96417  0.33316  1.0000
  H   H226      1.0  0.47749  0.89196  0.29395  1.0000
  C   C135      1.0  0.25799  0.99848  0.23914  1.0000
  H   H227      1.0  0.25528  0.99601  0.21563  1.0000
  H   H228      1.0  0.27124  0.98093  0.34027  1.0000
  H   H229      1.0  0.23055  0.52320  0.21345  1.0000
  C   C136      1.0  0.02129  0.81576  0.24061  1.0000
  H   H230      1.0  0.50013  0.88801  0.34166  1.0000
  C   C137      1.0  0.50940  0.86410  0.32692  1.0000
  N   N11       1.0  0.51590  0.84993  0.27303  1.0000
  Fe  Fe19      1.0  0.20388  0.79466  0.64365  1.0000
  C   C138      1.0  0.40729  0.87817  0.62507  1.0000
  Fe  Fe20      1.0  0.27114  0.76484  0.60737  1.0000
  S   S39       1.0  0.30366  0.74265  0.64589  1.0000
  S   S40       1.0  0.29959  0.75507  0.56424  1.0000
  Fe  Fe21      1.0  0.24505  0.71956  0.65993  1.0000
  H   H231      1.0  0.16920  0.96134  0.59851  1.0000
  S   S41       1.0  0.23463  0.65593  0.67215  1.0000
  C   C139      1.0  0.34534  0.88284  0.59924  1.0000
  S   S42       1.0  0.21404  0.73816  0.62002  1.0000
  S   S43       1.0  0.25787  0.82334  0.62738  1.0000
  C   C140      1.0  0.19182  0.93402  0.63639  1.0000
  S   S44       1.0  0.19429  0.78358  0.38680  1.0000
  H   H232      1.0  0.42322  0.82017  0.58732  1.0000
  H   H233      1.0  0.06142  0.61872  0.65346  1.0000
  S   S45       1.0  0.24100  0.86399  0.36970  1.0000
  C   C141      1.0  0.45019  0.88861  0.56887  1.0000
  Fe  Fe22      1.0  0.24715  0.81653  0.40251  1.0000
  S   S46       1.0  0.24604  0.83605  0.44909  1.0000
  H   H234      1.0  0.02642  0.64524  0.67520  1.0000
  S   S47       1.0  0.28933  0.78067  0.37616  1.0000
  H   H235      1.0  0.10693  0.70662  0.61709  1.0000
  H   H236      1.0  0.28847  0.88258  0.57829  1.0000
  H   H237      1.0  0.37989  0.82254  0.56683  1.0000
  H   H238      1.0  0.43552  0.86217  0.62685  1.0000
  H   H239      1.0  0.13808  0.64494  0.60612  1.0000
  H   H240      1.0  0.38687  0.80047  0.63036  1.0000
  H   H241      1.0  0.34266  0.91504  0.60254  1.0000
  H   H242      1.0  0.40067  0.92720  0.57700  1.0000
  C   C142      1.0  0.31855  0.87216  0.57375  1.0000
  Fe  Fe23      1.0  0.28660  0.79982  0.66687  1.0000
  H   H243      1.0  0.33203  0.86992  0.61852  1.0000
  C   C143      1.0  0.40604  0.89529  0.57368  1.0000
  H   H244      1.0  0.17317  0.67093  0.49245  1.0000
  H   H245      1.0  0.21203  0.63675  0.50044  1.0000
  H   H246      1.0  0.39184  0.88892  0.55279  1.0000
  C   C144      1.0  0.26024  0.81145  0.48047  1.0000
  C   C145      1.0  0.29207  0.78580  0.48116  1.0000
  C   C146      1.0  0.30348  0.76840  0.50693  1.0000
  C   C147      1.0  0.28335  0.77664  0.53224  1.0000
  C   C148      1.0  0.25155  0.80229  0.53157  1.0000
  C   C149      1.0  0.24025  0.81976  0.50582  1.0000
  H   H247      1.0  0.30854  0.78027  0.46202  1.0000
  H   H248      1.0  0.32840  0.74893  0.50735  1.0000
  H   H249      1.0  0.23595  0.80901  0.55092  1.0000
  H   H250      1.0  0.21594  0.84001  0.50554  1.0000
  H   H251      1.0  0.46388  0.91636  0.56189  1.0000
  H   H252      1.0  0.45494  0.86565  0.55230  1.0000
  C   C150      1.0  0.06141  0.92715  0.62586  1.0000
  H   H253      1.0  0.41779  0.92978  0.36289  1.0000
  H   H254      1.0  0.09997  0.99350  0.59260  1.0000
  H   H255      1.0  0.15909  0.98387  0.36349  1.0000
  C   C151      1.0  0.10453  0.00126  0.61548  1.0000
  C   C152      1.0  0.37287  0.79952  0.60905  1.0000
  N   N12       1.0  0.38771  0.87119  0.59660  1.0000
  C   C153      1.0  0.13414  0.65291  0.62887  1.0000
  H   H256      1.0  0.46631  0.88006  0.58828  1.0000
  C   C154      1.0  0.10585  0.93047  0.62095  1.0000
  H   H257      1.0  0.13206  0.74487  0.65401  1.0000
  C   C155      1.0  0.39185  0.82855  0.58853  1.0000
  H   H258      1.0  0.17876  0.61830  0.45871  1.0000
  H   H259      1.0  0.04456  0.94887  0.61344  1.0000
  S   S48       1.0  0.14505  0.82402  0.64371  1.0000
  H   H260      1.0  0.34113  0.80458  0.61107  1.0000
  C   C156      1.0  0.41480  0.92134  0.63345  1.0000
  H   H261      1.0  0.19840  0.59073  0.42970  1.0000
  H   H262      1.0  0.38754  0.93881  0.63352  1.0000
  H   H263      1.0  0.31634  0.84009  0.57031  1.0000
  H   H264      1.0  0.22292  0.93766  0.63042  1.0000
  H   H265      1.0  0.37652  0.76925  0.60051  1.0000
  H   H266      1.0  0.20646  0.68221  0.51997  1.0000
  H   H267      1.0  0.38918  0.86590  0.64227  1.0000
  H   H268      1.0  0.16215  0.66583  0.63629  1.0000
  C   C157      1.0  0.11991  0.97199  0.66246  1.0000
  N   N13       1.0  0.22173  0.68888  0.44720  1.0000
  C   C158      1.0  0.25046  0.71473  0.43206  1.0000
  C   C159      1.0  0.18150  0.70546  0.44173  1.0000
  C   C160      1.0  0.22529  0.64813  0.43444  1.0000
  C   C161      1.0  0.23238  0.68917  0.47836  1.0000
  C   C162      1.0  0.29361  0.70144  0.43291  1.0000
  C   C163      1.0  0.17283  0.74555  0.45591  1.0000
  C   C164      1.0  0.18975  0.62064  0.43680  1.0000
  C   C165      1.0  0.20426  0.66820  0.49855  1.0000
  H   H269      1.0  0.24222  0.71735  0.40925  1.0000
  H   H270      1.0  0.24997  0.74508  0.44068  1.0000
  H   H271      1.0  0.15807  0.68574  0.44903  1.0000
  H   H272      1.0  0.17616  0.70811  0.41840  1.0000
  H   H273      1.0  0.23119  0.64959  0.41118  1.0000
  H   H274      1.0  0.25080  0.63248  0.44378  1.0000
  H   H275      1.0  0.26123  0.67499  0.48182  1.0000
  H   H276      1.0  0.23709  0.71957  0.48660  1.0000
  H   H277      1.0  0.30586  0.70180  0.45477  1.0000
  H   H278      1.0  0.29784  0.67226  0.42279  1.0000
  H   H279      1.0  0.31134  0.72242  0.42061  1.0000
  H   H280      1.0  0.14264  0.75458  0.45017  1.0000
  H   H281      1.0  0.17440  0.74427  0.47942  1.0000
  H   H282      1.0  0.19228  0.76906  0.44847  1.0000
  C   C166      1.0  0.13854  0.96320  0.35422  1.0000
  H   H283      1.0  0.16578  0.62994  0.42231  1.0000
  H   H284      1.0  0.32767  0.88634  0.55383  1.0000
  H   H285      1.0  0.18321  0.90418  0.62916  1.0000
  H   H286      1.0  0.18277  0.99411  0.62581  1.0000
  H   H287      1.0  0.43679  0.93513  0.61959  1.0000
  Fe  Fe24      1.0  0.19154  0.82777  0.35238  1.0000
  C   C167      1.0  0.16717  0.96614  0.62193  1.0000
  C   C168      1.0  0.05363  0.71993  0.66043  1.0000
  H   H288      1.0  0.17402  0.91261  0.36318  1.0000
  N   N14       1.0  0.12493  0.96830  0.63071  1.0000
  H   H289      1.0  0.11091  0.92512  0.59784  1.0000
  H   H290      1.0  0.11900  0.90500  0.63186  1.0000
  H   H291      1.0  0.19480  0.58217  0.67581  1.0000
  H   H292      1.0  0.06221  0.75332  0.62086  1.0000
  H   H293      1.0  0.05386  0.92961  0.64868  1.0000
  H   H294      1.0  0.02979  0.70166  0.65103  1.0000
  H   H295      1.0  0.07366  0.78047  0.65302  1.0000
  H   H296      1.0  0.12880  0.62522  0.64026  1.0000
  C   C169      1.0  0.09980  0.68207  0.63150  1.0000
  H   H297      1.0  0.42694  0.92251  0.65544  1.0000
  H   H298      1.0  0.07352  0.66779  0.62191  1.0000
  S   S49       1.0  0.22670  0.68472  0.35387  1.0000
  C   C170      1.0  0.13847  0.85143  0.67511  1.0000
  C   C171      1.0  0.05399  0.75822  0.64334  1.0000
  H   H299      1.0  0.02419  0.77108  0.64335  1.0000
  H   H300      1.0  0.12550  0.94351  0.67285  1.0000
  H   H301      1.0  0.05152  0.89768  0.61854  1.0000
  N   N15       1.0  0.09145  0.69737  0.66105  1.0000
  H   H302      1.0  0.19057  0.93594  0.65990  1.0000
  H   H303      1.0  0.36241  0.88278  0.35874  1.0000
  H   H304      1.0  0.07589  0.85429  0.67031  1.0000
  H   H305      1.0  0.07481  0.00604  0.62425  1.0000
  C   C172      1.0  0.12507  0.72306  0.67051  1.0000
  H   H306      1.0  0.08894  0.97851  0.66767  1.0000
  H   H307      1.0  0.15227  0.70561  0.67286  1.0000
  C   C173      1.0  0.05641  0.63307  0.67435  1.0000
  Fe  Fe25      1.0  0.23509  0.75085  0.35822  1.0000
  C   C174      1.0  0.14716  0.92296  0.35382  1.0000
  H   H308      1.0  0.17166  0.01190  0.66831  1.0000
  C   C175      1.0  0.14439  0.00309  0.67874  1.0000
  C   C176      1.0  0.02490  0.87605  0.81546  1.0000
  C   C177      1.0  0.09558  0.88708  0.70719  1.0000
  H   H309      1.0  0.17183  0.97574  0.81780  1.0000
  S   S50       1.0  0.49756  0.89142  0.71480  1.0000
  Fe  Fe26      1.0  0.06370  0.54115  0.75723  1.0000
  H   H310      1.0  0.08022  0.67555  0.70333  1.0000
  S   S51       1.0  0.10198  0.59590  0.75530  1.0000
  S   S52       1.0  0.04789  0.52889  0.80266  1.0000
  H   H311      1.0  0.11577  0.64902  0.68427  1.0000
  S   S53       1.0  0.23085  0.77451  0.68444  1.0000
  C   C178      1.0  0.18467  0.66283  0.71809  1.0000
  C   C179      1.0  0.23720  0.99725  0.78724  1.0000
  C   C180      1.0  0.44769  0.87856  0.70995  1.0000
  C   C181      1.0  0.41767  0.90422  0.71762  1.0000
  C   C182      1.0  0.47825  0.79262  0.79141  1.0000
  H   H312      1.0  0.05141  0.85766  0.81281  1.0000
  H   H313      1.0  0.42469  0.93233  0.72725  1.0000
  C   C183      1.0  0.19867  0.63911  0.69599  1.0000
  H   H314      1.0  0.46103  0.82194  0.69167  1.0000
  H   H315      1.0  0.20165  0.97351  0.75017  1.0000
  S   S54       1.0  0.50080  0.00808  0.72687  1.0000
  C   C184      1.0  0.36863  0.85758  0.69971  1.0000
  H   H316      1.0  0.02626  0.78734  0.80776  1.0000
  H   H317      1.0  0.14261  0.55768  0.70754  1.0000
  H   H318      1.0  0.24001  0.98385  0.80864  1.0000
  H   H319      1.0  0.06653  0.89594  0.71328  1.0000
  C   C185      1.0  0.14023  0.61070  0.73271  1.0000
  H   H320      1.0  0.09445  0.76540  0.69885  1.0000
  H   H321      1.0  0.21236  0.56123  0.85062  1.0000
  Fe  Fe27      1.0  0.51699  0.94686  0.73869  1.0000
  H   H322      1.0  0.48937  0.84789  0.81143  1.0000
  C   C186      1.0  0.17064  0.86292  0.69170  1.0000
  H   H323      1.0  0.26601  0.52368  0.84354  1.0000
  C   C187      1.0  0.18389  0.60082  0.69273  1.0000
  H   H324      1.0  0.23689  0.57037  0.79581  1.0000
  H   H325      1.0  0.22833  0.61009  0.81886  1.0000
  H   H326      1.0  0.19621  0.69212  0.72109  1.0000
  H   H327      1.0  0.14518  0.66718  0.75349  1.0000
  H   H328      1.0  0.12400  0.99408  0.81007  1.0000
  H   H329      1.0  0.24645  0.94919  0.75704  1.0000
  H   H330      1.0  0.19043  0.89597  0.72835  1.0000
  H   H331      1.0  0.15965  0.01156  0.76994  1.0000
  H   H332      1.0  0.19160  0.54123  0.76390  1.0000
  S   S55       1.0  0.02645  0.96945  0.71207  1.0000
  S   S56       1.0  0.50385  0.95623  0.78496  1.0000
  H   H333      1.0  0.03151  0.90452  0.80549  1.0000
  H   H334      1.0  0.14601  0.76396  0.70292  1.0000
  C   C188      1.0  0.49879  0.81717  0.81491  1.0000
  H   H335      1.0  0.12806  0.53991  0.86346  1.0000
  H   H336      1.0  0.20666  0.94123  0.77996  1.0000
  H   H337      1.0  0.19099  0.59660  0.79325  1.0000
  C   C189      1.0  0.12789  0.89937  0.72339  1.0000
  H   H338      1.0  0.15349  0.99089  0.69957  1.0000
  C   C190      1.0  0.15446  0.58677  0.71078  1.0000
  C   C191      1.0  0.37841  0.89380  0.71244  1.0000
  H   H339      1.0  0.48855  0.80013  0.76986  1.0000
  H   H340      1.0  0.16708  0.57363  0.83617  1.0000
  C   C192      1.0  0.08753  0.66433  0.68173  1.0000
  H   H341      1.0  0.48579  0.80879  0.83561  1.0000
  H   H342      1.0  0.48110  0.76071  0.79493  1.0000
  C   C193      1.0  0.15588  0.64853  0.73649  1.0000
  H   H343      1.0  0.26761  0.00389  0.78057  1.0000
  H   H344      1.0  0.39149  0.80322  0.68328  1.0000
  C   C194      1.0  0.21356  0.58497  0.80805  1.0000
  Fe  Fe28      1.0  0.07067  0.97222  0.74723  1.0000
  C   C195      1.0  0.11985  0.74534  0.69900  1.0000
  C   C196      1.0  0.16533  0.88669  0.71588  1.0000
  S   S57       1.0  0.12238  0.93232  0.75199  1.0000
  H   H345      1.0  0.11785  0.72518  0.71719  1.0000
  H   H346      1.0  0.02222  0.81072  0.84122  1.0000
  H   H347      1.0  0.50883  0.87158  0.85835  1.0000
  H   H348      1.0  0.35546  0.91412  0.71817  1.0000
  C   C197      1.0  0.43798  0.84207  0.69753  1.0000
  C   C198      1.0  0.22143  0.96420  0.76742  1.0000
  C   C199      1.0  0.15474  0.00289  0.81455  1.0000
  C   C200      1.0  0.19491  0.55868  0.83063  1.0000
  H   H349      1.0  0.44648  0.79930  0.79173  1.0000
  C   C201      1.0  0.39862  0.83143  0.69266  1.0000
  S   S58       1.0  0.02690  0.98237  0.78163  1.0000
  H   H350      1.0  0.01986  0.88205  0.83826  1.0000
  H   H351      1.0  0.13515  0.53813  0.80084  1.0000
  H   H352      1.0  0.05798  0.60967  0.69058  1.0000
  H   H353      1.0  0.19983  0.85444  0.68553  1.0000
  S   S59       1.0  0.31864  0.84739  0.69247  1.0000
  Fe  Fe29      1.0  0.49119  0.01887  0.77354  1.0000
  C   C202      1.0  0.10088  0.86324  0.68301  1.0000
  H   H354      1.0  0.04387  0.72727  0.68238  1.0000
  H   H355      1.0  0.86242  0.47012  0.21691  1.0000
  H   H356      1.0  0.56043  0.13663  0.24316  1.0000
  H   H357      1.0  0.59178  0.13654  0.27271  1.0000
  S   S60       1.0  0.63665  0.06462  0.28917  1.0000
  Fe  Fe30      1.0  0.00407  0.48501  0.28738  1.0000
  C   C203      1.0  0.98138  0.23197  0.28825  1.0000
  S   S61       1.0  0.83985  0.32791  0.31859  1.0000
  C   C204      1.0  0.84215  0.49921  0.25540  1.0000
  H   H358      1.0  0.97482  0.24062  0.26596  1.0000
  S   S62       1.0  0.98637  0.47426  0.24206  1.0000
  S   S63       1.0  0.98398  0.44625  0.32367  1.0000
  C   C205      1.0  0.94491  0.41214  0.32163  1.0000
  C   C206      1.0  0.57670  0.21752  0.23074  1.0000
  H   H359      1.0  0.83541  0.06444  0.27517  1.0000
  C   C207      1.0  0.89466  0.37626  0.29528  1.0000
  C   C208      1.0  0.92641  0.40255  0.29585  1.0000
  H   H360      1.0  0.73722  0.03555  0.18465  1.0000
  H   H361      1.0  0.88026  0.36938  0.27528  1.0000
  H   H362      1.0  0.93644  0.41550  0.27637  1.0000
  N   N16       1.0  0.84781  0.50284  0.28723  1.0000
  C   C209      1.0  0.85270  0.05260  0.29324  1.0000
  C   C210      1.0  0.90415  0.14985  0.28703  1.0000
  C   C211      1.0  0.93889  0.12822  0.28640  1.0000
  C   C212      1.0  0.95425  0.11308  0.31157  1.0000
  H   H363      1.0  0.89858  0.28612  0.27507  1.0000
  C   C213      1.0  0.62172  0.14309  0.23340  1.0000
  H   H364      1.0  0.89210  0.16140  0.26753  1.0000
  H   H365      1.0  0.92328  0.04602  0.27062  1.0000
  H   H366      1.0  0.96068  0.30591  0.27596  1.0000
  C   C214      1.0  0.90005  0.14084  0.33799  1.0000
  C   C215      1.0  0.88468  0.04150  0.23470  1.0000
  H   H367      1.0  0.61555  0.19203  0.29511  1.0000
  C   C216      1.0  0.65091  0.10528  0.31075  1.0000
  H   H368      1.0  0.59457  0.11553  0.32933  1.0000
  H   H369      1.0  0.85788  0.17271  0.31318  1.0000
  H   H370      1.0  0.60203  0.27501  0.27132  1.0000
  H   H371      1.0  0.55624  0.21352  0.18676  1.0000
  C   C217      1.0  0.92379  0.25712  0.31276  1.0000
  H   H372      1.0  0.87429  0.07199  0.23799  1.0000
  C   C218      1.0  0.70255  0.15058  0.32631  1.0000
  H   H373      1.0  0.84918  0.43972  0.29104  1.0000
  C   C219      1.0  0.88116  0.35914  0.32038  1.0000
  H   H374      1.0  0.98160  0.09734  0.31140  1.0000
  H   H375      1.0  0.95723  0.32569  0.31013  1.0000
  C   C220      1.0  0.69000  0.11787  0.31011  1.0000
  H   H376      1.0  0.80203  0.46036  0.29446  1.0000
  H   H377      1.0  0.90784  0.23416  0.26977  1.0000
  H   H378      1.0  0.55599  0.19270  0.31726  1.0000
  H   H379      1.0  0.90827  0.04318  0.21867  1.0000
  H   H380      1.0  0.91524  0.02270  0.31869  1.0000
  H   H381      1.0  0.91120  0.28042  0.32657  1.0000
  Fe  Fe31      1.0  0.57472  0.04508  0.27726  1.0000
  C   C221      1.0  0.86512  0.46616  0.24025  1.0000
  H   H382      1.0  0.56878  0.24858  0.23516  1.0000
  C   C222      1.0  0.88481  0.15628  0.31284  1.0000
  H   H383      1.0  0.73260  0.16021  0.32534  1.0000
  H   H384      1.0  0.91780  0.22912  0.32383  1.0000
  H   H385      1.0  0.61706  0.15335  0.21138  1.0000
  H   H386      1.0  0.96548  0.20398  0.29141  1.0000
  H   H387      1.0  0.80244  0.02739  0.31630  1.0000
  H   H388      1.0  0.01650  0.35026  0.29713  1.0000
  H   H389      1.0  0.71067  0.10241  0.29682  1.0000
  C   C223      1.0  0.89879  0.25702  0.28527  1.0000
  C   C224      1.0  0.62455  0.12533  0.32823  1.0000
  H   H390      1.0  0.63823  0.21173  0.26512  1.0000
  S   S64       1.0  0.96284  0.12051  0.25409  1.0000
  N   N17       1.0  0.57786  0.19475  0.25794  1.0000
  H   H391      1.0  0.62592  0.11086  0.23210  1.0000
  H   H392      1.0  0.84023  0.04889  0.33909  1.0000
  C   C225      1.0  0.60378  0.25309  0.28844  1.0000
  C   C226      1.0  0.97356  0.30340  0.29763  1.0000
  H   H393      1.0  0.64914  0.15543  0.24240  1.0000
  S   S65       1.0  0.00036  0.02269  0.28727  1.0000
  H   H394      1.0  0.86802  0.25053  0.29089  1.0000
  C   C227      1.0  0.58627  0.15198  0.25244  1.0000
  H   H395      1.0  0.80828  0.03237  0.19023  1.0000
  H   H396      1.0  0.54552  0.17106  0.20583  1.0000
  H   H397      1.0  0.68849  0.02703  0.22907  1.0000
  S   S66       1.0  0.56193  0.04990  0.23062  1.0000
  C   C228      1.0  0.83776  0.46111  0.33238  1.0000
  H   H398      1.0  0.85318  0.43672  0.24479  1.0000
  H   H399      1.0  0.90691  0.48129  0.29229  1.0000
  H   H400      1.0  0.81066  0.49511  0.24990  1.0000
  C   C229      1.0  0.82430  0.05119  0.31854  1.0000
  C   C230      1.0  0.83340  0.46524  0.29999  1.0000
  Fe  Fe32      1.0  0.00741  0.07232  0.25688  1.0000
  H   H401      1.0  0.87484  0.07536  0.29866  1.0000
  C   C231      1.0  0.90172  0.02429  0.26227  1.0000
  C   C232      1.0  0.61003  0.21119  0.27667  1.0000
  H   H402      1.0  0.89676  0.46716  0.24530  1.0000
  H   H403      1.0  0.60605  0.21971  0.22085  1.0000
  N   N18       1.0  0.96722  0.26287  0.30905  1.0000
  H   H404      1.0  0.80794  0.07930  0.31968  1.0000
  H   H405      1.0  0.57776  0.25537  0.30220  1.0000
  C   C233      1.0  0.54697  0.20331  0.20798  1.0000
  S   S67       1.0  0.79994  0.22532  0.33662  1.0000
  H   H406      1.0  0.86896  0.45947  0.33884  1.0000
  H   H407      1.0  0.86113  0.02305  0.22549  1.0000
  H   H408      1.0  0.82451  0.43279  0.33869  1.0000
  C   C234      1.0  0.93462  0.11900  0.33727  1.0000
  H   H409      1.0  0.53983  0.14753  0.30046  1.0000
  C   C235      1.0  0.89061  0.50939  0.29368  1.0000
  C   C236      1.0  0.53858  0.19829  0.27195  1.0000
  H   H410      1.0  0.62937  0.26114  0.30202  1.0000
  C   C237      1.0  0.53539  0.17963  0.30153  1.0000
  C   C238      1.0  0.01606  0.31775  0.29507  1.0000
  H   H411      1.0  0.92812  0.51495  0.33114  1.0000
  C   C239      1.0  0.63710  0.15812  0.34443  1.0000
  C   C240      1.0  0.67607  0.17112  0.34339  1.0000
  H   H412      1.0  0.82238  0.48445  0.34438  1.0000
  H   H413      1.0  0.52940  0.22947  0.27388  1.0000
  C   C241      1.0  0.98603  0.25738  0.33784  1.0000
  Fe  Fe33      1.0  0.79143  0.23597  0.61858  1.0000
  H   H414      1.0  0.94375  0.28659  0.36658  1.0000
  S   S68       1.0  0.75608  0.25622  0.58048  1.0000
  Fe  Fe34      1.0  0.86230  0.18932  0.63483  1.0000
  S   S69       1.0  0.90704  0.15509  0.61021  1.0000
  H   H415      1.0  0.91131  0.10318  0.51885  1.0000
  H   H416      1.0  0.69328  0.15176  0.66608  1.0000
  H   H417      1.0  0.81834  0.32813  0.64757  1.0000
  H   H418      1.0  0.77231  0.34203  0.66151  1.0000
  S   S70       1.0  0.80041  0.17173  0.62556  1.0000
  S   S71       1.0  0.85416  0.25299  0.62501  1.0000
  H   H419      1.0  0.89461  0.34593  0.65425  1.0000
  S   S72       1.0  0.78921  0.20194  0.40417  1.0000
  H   H420      1.0  0.81765  0.10012  0.66074  1.0000
  H   H421      1.0  0.94632  0.40122  0.36665  1.0000
  S   S73       1.0  0.86213  0.25836  0.38470  1.0000
  H   H422      1.0  0.83877  0.13532  0.43169  1.0000
  Fe  Fe35      1.0  0.83664  0.20052  0.37172  1.0000
  Fe  Fe36      1.0  0.81186  0.26195  0.41527  1.0000
  S   S74       1.0  0.83350  0.28002  0.45950  1.0000
  S   S75       1.0  0.77252  0.29233  0.38366  1.0000
  H   H423      1.0  0.78583  0.06089  0.65108  1.0000
  H   H424      1.0  0.89035  0.35472  0.36551  1.0000
  H   H425      1.0  0.87198  0.09600  0.42758  1.0000
  H   H426      1.0  0.92023  0.15248  0.53257  1.0000
  H   H427      1.0  0.88175  0.20628  0.49355  1.0000
  H   H428      1.0  0.90079  0.16605  0.43617  1.0000
  C   C242      1.0  0.97089  0.10831  0.60990  1.0000
  H   H429      1.0  0.85434  0.40044  0.62860  1.0000
  H   H430      1.0  0.76689  0.33662  0.61008  1.0000
  C   C243      1.0  0.77775  0.25840  0.54645  1.0000
  C   C244      1.0  0.81833  0.25953  0.54341  1.0000
  C   C245      1.0  0.83475  0.26692  0.51672  1.0000
  C   C246      1.0  0.81099  0.27060  0.49241  1.0000
  C   C247      1.0  0.77046  0.26743  0.49513  1.0000
  C   C248      1.0  0.75391  0.26213  0.52216  1.0000
  H   H431      1.0  0.83710  0.25614  0.56178  1.0000
  H   H432      1.0  0.86610  0.26962  0.51486  1.0000
  H   H433      1.0  0.75183  0.27036  0.47659  1.0000
  H   H434      1.0  0.72248  0.26129  0.52429  1.0000
  C   C249      1.0  0.79030  0.39291  0.57213  1.0000
  C   C250      1.0  0.83877  0.34498  0.59079  1.0000
  C   C251      1.0  0.84830  0.10761  0.44134  1.0000
  H   H435      1.0  0.78401  0.10911  0.47879  1.0000
  C   C252      1.0  0.78160  0.36338  0.61874  1.0000
  H   H436      1.0  0.89539  0.11757  0.55342  1.0000
  H   H437      1.0  0.81163  0.19236  0.49593  1.0000
  H   H438      1.0  0.79536  0.34346  0.54166  1.0000
  H   H439      1.0  0.87758  0.32615  0.55676  1.0000
  C   C253      1.0  0.88967  0.19050  0.44955  1.0000
  H   H440      1.0  0.75528  0.37539  0.53524  1.0000
  H   H441      1.0  0.77723  0.13473  0.51240  1.0000
  H   H442      1.0  0.96750  0.10870  0.58703  1.0000
  C   C254      1.0  0.77249  0.36115  0.55235  1.0000
  H   H443      1.0  0.80943  0.41166  0.55898  1.0000
  H   H444      1.0  0.79588  0.46118  0.60441  1.0000
  H   H445      1.0  0.89586  0.06758  0.66342  1.0000
  C   C255      1.0  0.85893  0.14162  0.51986  1.0000
  C   C256      1.0  0.86322  0.11065  0.47251  1.0000
  H   H446      1.0  0.86201  0.20189  0.44068  1.0000
  H   H447      1.0  0.82243  0.31817  0.58429  1.0000
  C   C257      1.0  0.89900  0.12792  0.53130  1.0000
  H   H448      1.0  0.81208  0.17569  0.46081  1.0000
  H   H449      1.0  0.61649  0.17364  0.35775  1.0000
  S   S76       1.0  0.69003  0.21403  0.36262  1.0000
  C   C258      1.0  0.00590  0.08589  0.65160  1.0000
  C   C259      1.0  0.88655  0.17889  0.48098  1.0000
  Fe  Fe37      1.0  0.75378  0.23114  0.36998  1.0000
  H   H450      1.0  0.75402  0.15185  0.48096  1.0000
  H   H451      1.0  0.85650  0.42245  0.59497  1.0000
  C   C260      1.0  0.87036  0.35365  0.56845  1.0000
  H   H452      1.0  0.83278  0.46856  0.63098  1.0000
  S   S77       1.0  0.77469  0.24782  0.66429  1.0000
  H   H453      1.0  0.84947  0.08595  0.48403  1.0000
  H   H454      1.0  0.97874  0.22780  0.34615  1.0000
  C   C261      1.0  0.79707  0.35249  0.64851  1.0000
  H   H455      1.0  0.83766  0.11886  0.52637  1.0000
  H   H456      1.0  0.85524  0.33565  0.60997  1.0000
  N   N19       1.0  0.81158  0.37815  0.59811  1.0000
  H   H457      1.0  0.81021  0.37766  0.66020  1.0000
  C   C262      1.0  0.78127  0.13822  0.48920  1.0000
  C   C263      1.0  0.97505  0.28794  0.36090  1.0000
  H   H458      1.0  0.86083  0.37445  0.55198  1.0000
  H   H459      1.0  0.94300  0.40039  0.65228  1.0000
  H   H460      1.0  0.79163  0.43870  0.63897  1.0000
  C   C264      1.0  0.93458  0.38870  0.67259  1.0000
  H   H461      1.0  0.91629  0.16852  0.48676  1.0000
  H   H462      1.0  0.75765  0.38502  0.62181  1.0000
  C   C265      1.0  0.81595  0.16549  0.48281  1.0000
  H   H463      1.0  0.91116  0.21472  0.44785  1.0000
  C   C266      1.0  0.81209  0.44662  0.62183  1.0000
  H   H464      1.0  0.75230  0.34153  0.56373  1.0000
  C   C267      1.0  0.81592  0.06782  0.65861  1.0000
  C   C268      1.0  0.83554  0.41104  0.61086  1.0000
  C   C269      1.0  0.94492  0.12937  0.62705  1.0000
  H   H465      1.0  0.89503  0.10389  0.47226  1.0000
  H   H466      1.0  0.53916  0.17459  0.66857  1.0000
  H   H467      1.0  0.89734  0.36521  0.57882  1.0000
  N   N20       1.0  0.85607  0.14877  0.48824  1.0000
  H   H468      1.0  0.76574  0.41251  0.57836  1.0000
  H   H469      1.0  0.85104  0.16861  0.53221  1.0000
  S   S78       1.0  0.87637  0.14812  0.37047  1.0000
  C   C270      1.0  0.94966  0.12909  0.65665  1.0000
  H   H470      1.0  0.82394  0.08622  0.43948  1.0000
  C   C271      1.0  0.90716  0.35784  0.67363  1.0000
  H   H471      1.0  0.99176  0.28160  0.38064  1.0000
  C   C272      1.0  0.90038  0.36777  0.34604  1.0000
  H   H472      1.0  0.62672  0.12275  0.66759  1.0000
  H   H473      1.0  0.93015  0.14600  0.66994  1.0000
  H   H474      1.0  0.94661  0.10718  0.35672  1.0000
  C   C273      1.0  0.93204  0.39420  0.34662  1.0000
  C   C274      1.0  0.00143  0.08694  0.62210  1.0000
  Fe  Fe38      1.0  0.82164  0.28424  0.35244  1.0000
  H   H475      1.0  0.83630  0.05755  0.64192  1.0000
  Fe  Fe39      1.0  0.78923  0.18434  0.67176  1.0000
  C   C275      1.0  0.98010  0.10705  0.66896  1.0000
  Fe  Fe40      1.0  0.83892  0.26020  0.67118  1.0000
  H   H476      1.0  0.98279  0.31818  0.35466  1.0000
  C   C276      1.0  0.89688  0.11138  0.72966  1.0000
  C   C277      1.0  0.90257  0.49512  0.72840  1.0000
  C   C278      1.0  0.68801  0.02159  0.80671  1.0000
  C   C279      1.0  0.82315  0.04752  0.68728  1.0000
  C   C280      1.0  0.53609  0.16848  0.71422  1.0000
  S   S79       1.0  0.58995  0.06833  0.70478  1.0000
  H   H477      1.0  0.70240  0.04954  0.80113  1.0000
  H   H478      1.0  0.85560  0.50572  0.81913  1.0000
  C   C281      1.0  0.83012  0.51368  0.80574  1.0000
  H   H479      1.0  0.54072  0.19670  0.77010  1.0000
  C   C282      1.0  0.95118  0.40454  0.69767  1.0000
  H   H480      1.0  0.56166  0.14842  0.71330  1.0000
  H   H481      1.0  0.82477  0.06769  0.75223  1.0000
  C   C283      1.0  0.94060  0.38867  0.72373  1.0000
  Fe  Fe41      1.0  0.00947  0.47563  0.73507  1.0000
  C   C284      1.0  0.86588  0.03059  0.72708  1.0000
  H   H482      1.0  0.54831  0.19864  0.71652  1.0000
  N   N21       1.0  0.85417  0.46782  0.76545  1.0000
  H   H483      1.0  0.90409  0.34706  0.74520  1.0000
  H   H484      1.0  0.92602  0.10429  0.72108  1.0000
  H   H485      1.0  0.84816  0.02997  0.77141  1.0000
  S   S80       1.0  0.99085  0.45998  0.77894  1.0000
  C   C285      1.0  0.87478  0.42457  0.80851  1.0000
  H   H486      1.0  0.87904  0.44098  0.82885  1.0000
  C   C286      1.0  0.83499  0.03704  0.75043  1.0000
  C   C287      1.0  0.71396  0.12137  0.70302  1.0000
  C   C288      1.0  0.70378  0.09474  0.72436  1.0000
  C   C289      1.0  0.66601  0.07822  0.72529  1.0000
  C   C290      1.0  0.63799  0.08815  0.70480  1.0000
  H   H487      1.0  0.90619  0.43239  0.76942  1.0000
  H   H488      1.0  0.90537  0.47389  0.79224  1.0000
  H   H489      1.0  0.72525  0.08688  0.74027  1.0000
  H   H490      1.0  0.65860  0.05776  0.74175  1.0000
  C   C291      1.0  0.53478  0.16499  0.76601  1.0000
  S   S81       1.0  0.76209  0.14100  0.70281  1.0000
  C   C292      1.0  0.82024  0.48195  0.78310  1.0000
  C   C293      1.0  0.82118  0.40093  0.75360  1.0000
  H   H491      1.0  0.98429  0.10724  0.69173  1.0000
  S   S82       1.0  0.55288  0.03895  0.78160  1.0000
  H   H492      1.0  0.89137  0.48041  0.70883  1.0000
  C   C294      1.0  0.91250  0.35861  0.72484  1.0000
  H   H493      1.0  0.84496  0.41237  0.80766  1.0000
  H   H494      1.0  0.86411  0.42922  0.72923  1.0000
  H   H495      1.0  0.81073  0.38363  0.73485  1.0000
  H   H496      1.0  0.81809  0.45344  0.72880  1.0000
  H   H497      1.0  0.84301  0.38213  0.76436  1.0000
  C   C295      1.0  0.68588  0.13140  0.68262  1.0000
  C   C296      1.0  0.83977  0.43910  0.74308  1.0000
  C   C297      1.0  0.89550  0.34310  0.69986  1.0000
  H   H498      1.0  0.59675  0.16017  0.75400  1.0000
  H   H499      1.0  0.79883  0.05687  0.70144  1.0000
  H   H500      1.0  0.79547  0.40604  0.76727  1.0000
  S   S83       1.0  0.98409  0.44469  0.69572  1.0000
  H   H501      1.0  0.52088  0.09754  0.73174  1.0000
  C   C298      1.0  0.88661  0.45025  0.78308  1.0000
  S   S84       1.0  0.98775  0.04968  0.74000  1.0000
  S   S85       1.0  0.85733  0.30824  0.70285  1.0000
  H   H502      1.0  0.89351  0.09832  0.75095  1.0000
  H   H503      1.0  0.95415  0.39949  0.74305  1.0000
  H   H504      1.0  0.89501  0.39917  0.80972  1.0000
  H   H505      1.0  0.80575  0.45781  0.79438  1.0000
  S   S86       1.0  0.85263  0.19749  0.68152  1.0000
  C   C299      1.0  0.86387  0.09889  0.70901  1.0000
  H   H506      1.0  0.89581  0.14371  0.73267  1.0000
  N   N22       1.0  0.86206  0.05593  0.70127  1.0000
  H   H507      1.0  0.83595  0.10944  0.71823  1.0000
  H   H508      1.0  0.89560  0.03257  0.73681  1.0000
  H   H509      1.0  0.58605  0.14362  0.78893  1.0000
  H   H510      1.0  0.92392  0.05135  0.69263  1.0000
  C   C300      1.0  0.89546  0.04691  0.68152  1.0000
  H   H511      1.0  0.86763  0.11664  0.68961  1.0000
  H   H512      1.0  0.57317  0.11356  0.75892  1.0000
  C   C301      1.0  0.64813  0.11491  0.68357  1.0000
  Fe  Fe42      1.0  0.56365  0.02444  0.73556  1.0000
  C   C302      1.0  0.57484  0.14419  0.76672  1.0000
  H   H513      1.0  0.75516  0.04392  0.82945  1.0000
  C   C303      1.0  0.86998  0.50311  0.75017  1.0000
  H   H514      1.0  0.92680  0.47784  0.73757  1.0000
  H   H515      1.0  0.78026  0.02557  0.79912  1.0000
  H   H516      1.0  0.67710  0.02294  0.82882  1.0000
  H   H517      1.0  0.82604  0.04750  0.83496  1.0000
  H   H518      1.0  0.79691  0.49415  0.76913  1.0000
  H   H519      1.0  0.84611  0.51883  0.73878  1.0000
  C   C304      1.0  0.81067  0.01947  0.83898  1.0000
  H   H520      1.0  0.51866  0.15465  0.78497  1.0000
  H   H521      1.0  0.80481  0.51769  0.82010  1.0000
  Fe  Fe43      1.0  0.54188  0.98764  0.23254  1.0000
  S   S87       1.0  0.55803  0.98130  0.27836  1.0000
  S   S88       1.0  0.56120  0.94394  0.19863  1.0000
  Fe  Fe44      1.0  0.81657  0.85925  0.15707  1.0000
  S   S89       1.0  0.81076  0.82501  0.19692  1.0000
  S   S90       1.0  0.84431  0.91911  0.15857  1.0000
  Fe  Fe45      1.0  0.77389  0.79767  0.12129  1.0000
  S   S91       1.0  0.76485  0.75839  0.15914  1.0000
  S   S92       1.0  0.74655  0.78079  0.07858  1.0000
  Fe  Fe46      1.0  0.74894  0.81456  0.18242  1.0000
  S   S93       1.0  0.70341  0.82624  0.21654  1.0000
  Fe  Fe47      1.0  0.82760  0.77253  0.17030  1.0000
  S   S94       1.0  0.88099  0.73644  0.18364  1.0000
  S   S95       1.0  0.75379  0.85230  0.14406  1.0000
  S   S96       1.0  0.83738  0.80825  0.13089  1.0000
  S   S97       1.0  0.98851  0.92661  0.24339  1.0000
  C   C305      1.0  0.90170  0.75447  0.08039  1.0000
  H   H522      1.0  0.81750  0.60005  0.29733  1.0000
  H   H523      1.0  0.81913  0.72652  0.11233  1.0000
  S   S98       1.0  0.91754  0.56118  0.22179  1.0000
  S   S99       1.0  0.98909  0.54923  0.28644  1.0000
  C   C306      1.0  0.94995  0.92477  0.21851  1.0000
  C   C307      1.0  0.93738  0.95838  0.20440  1.0000
  C   C308      1.0  0.90514  0.95649  0.18575  1.0000
  C   C309      1.0  0.88576  0.92084  0.18086  1.0000
  C   C310      1.0  0.89900  0.88712  0.19445  1.0000
  C   C311      1.0  0.93072  0.88915  0.21343  1.0000
  C   C312      1.0  0.85546  0.95095  0.25609  1.0000
  H   H524      1.0  0.89530  0.98259  0.17504  1.0000
  H   H525      1.0  0.88501  0.85930  0.19026  1.0000
  H   H526      1.0  0.94020  0.86297  0.22417  1.0000
  C   C313      1.0  0.88946  0.68805  0.19579  1.0000
  C   C314      1.0  0.92785  0.67730  0.20323  1.0000
  C   C315      1.0  0.93676  0.63886  0.21172  1.0000
  C   C316      1.0  0.90737  0.61049  0.21258  1.0000
  C   C317      1.0  0.86888  0.62120  0.20527  1.0000
  C   C318      1.0  0.85987  0.65985  0.19710  1.0000
  H   H527      1.0  0.95095  0.69885  0.20226  1.0000
  H   H528      1.0  0.96647  0.63106  0.21725  1.0000
  H   H529      1.0  0.84594  0.59946  0.20581  1.0000
  H   H530      1.0  0.83022  0.66768  0.19148  1.0000
  H   H531      1.0  0.88660  0.68148  0.02277  1.0000
  C   C319      1.0  0.76916  0.78417  0.04487  1.0000
  C   C320      1.0  0.57560  0.81261  0.25247  1.0000
  H   H532      1.0  0.88707  0.94483  0.25655  1.0000
  H   H533      1.0  0.79676  0.65935  0.07049  1.0000
  C   C321      1.0  0.60073  0.91136  0.20404  1.0000
  C   C322      1.0  0.61815  0.90684  0.23081  1.0000
  C   C323      1.0  0.64937  0.88046  0.23437  1.0000
  C   C324      1.0  0.66425  0.85922  0.21110  1.0000
  C   C325      1.0  0.64723  0.86415  0.18427  1.0000
  C   C326      1.0  0.61530  0.88973  0.18085  1.0000
  H   H534      1.0  0.60753  0.92352  0.24879  1.0000
  H   H535      1.0  0.66235  0.87678  0.25520  1.0000
  H   H536      1.0  0.65821  0.84767  0.16623  1.0000
  H   H537      1.0  0.60204  0.89301  0.16006  1.0000
  C   C327      1.0  0.84175  0.98572  0.27503  1.0000
  H   H538      1.0  0.00488  0.84388  0.24080  1.0000
  H   H539      1.0  0.66675  0.95216  0.19538  1.0000
  H   H540      1.0  0.00001  0.79289  0.24717  1.0000
  H   H541      1.0  0.69331  0.91392  0.14760  1.0000
  C   C328      1.0  0.83189  0.57670  0.28453  1.0000
  H   H542      1.0  0.52684  0.90507  0.29487  1.0000
  H   H543      1.0  0.91530  0.74311  0.06064  1.0000
  H   H544      1.0  0.80790  0.98029  0.19349  1.0000
  H   H545      1.0  0.00284  0.80869  0.19661  1.0000
  N   N23       1.0  0.86526  0.69092  0.09436  1.0000
  C   C329      1.0  0.91658  0.96118  0.30767  1.0000
  H   H546      1.0  0.84321  0.63802  0.11387  1.0000
  C   C330      1.0  0.86381  0.68766  0.03890  1.0000
  H   H547      1.0  0.90896  0.56022  0.31974  1.0000
  N   N24       1.0  0.87251  0.01460  0.28497  1.0000
  H   H548      1.0  0.71901  0.76096  0.02237  1.0000
  H   H549      1.0  0.77601  0.91035  0.22900  1.0000
  H   H550      1.0  0.69322  0.94366  0.11683  1.0000
  H   H551      1.0  0.57564  0.82763  0.23169  1.0000
  C   C331      1.0  0.90288  0.64262  0.12687  1.0000
  C   C332      1.0  0.89531  0.72171  0.10199  1.0000
  H   H552      1.0  0.57717  0.86511  0.27822  1.0000
  H   H553      1.0  0.95232  0.98584  0.20792  1.0000
  C   C333      1.0  0.68345  0.97993  0.19660  1.0000
  C   C334      1.0  0.86389  0.66240  0.11865  1.0000
  H   H554      1.0  0.82294  0.80888  0.06052  1.0000
  N   N25       1.0  0.72420  0.97365  0.18534  1.0000
  H   H555      1.0  0.82368  0.73183  0.07561  1.0000
  H   H556      1.0  0.87464  0.77069  0.07551  1.0000
  H   H557      1.0  0.78330  0.66596  0.10742  1.0000
  C   C335      1.0  0.74094  0.93513  0.19505  1.0000
  H   H558      1.0  0.89689  0.61848  0.14187  1.0000
  H   H559      1.0  0.92466  0.70844  0.10499  1.0000
  H   H560      1.0  0.89640  0.93600  0.30487  1.0000
  C   C336      1.0  0.75112  0.93105  0.22684  1.0000
  H   H561      1.0  0.97662  0.82554  0.28731  1.0000
  H   H562      1.0  0.81880  0.00113  0.26250  1.0000
  H   H563      1.0  0.74984  0.96240  0.14381  1.0000
  H   H564      1.0  0.84619  0.95510  0.23367  1.0000
  C   C337      1.0  0.74872  0.77131  0.02044  1.0000
  H   H565      1.0  0.82023  0.57914  0.26253  1.0000
  H   H566      1.0  0.72038  0.91082  0.19007  1.0000
  H   H567      1.0  0.76735  0.92685  0.18273  1.0000
  C   C338      1.0  0.82544  0.70970  0.09248  1.0000
  H   H568      1.0  0.83681  0.67362  0.03038  1.0000
  C   C339      1.0  0.82583  0.79617  0.01539  1.0000
  H   H569      1.0  0.86361  0.58317  0.28437  1.0000
  H   H570      1.0  0.92243  0.77623  0.08973  1.0000
  H   H571      1.0  0.60670  0.80625  0.25762  1.0000
  H   H572      1.0  0.82641  0.97315  0.29360  1.0000
  C   C340      1.0  0.72159  0.97202  0.15322  1.0000
  H   H573      1.0  0.92255  0.66329  0.13845  1.0000
  H   H574      1.0  0.72603  0.91876  0.23859  1.0000
  H   H575      1.0  0.76098  0.95844  0.23726  1.0000
  H   H576      1.0  0.88796  0.73598  0.12268  1.0000
  H   H577      1.0  0.76468  0.69800  0.08104  1.0000
  Fe  Fe48      1.0  0.97549  0.53940  0.24020  1.0000
  C   C341      1.0  0.74982  0.00803  0.19336  1.0000
  H   H578      1.0  0.87361  0.99495  0.32867  1.0000
  H   H579      1.0  0.66005  0.95483  0.14480  1.0000
  H   H580      1.0  0.56317  0.82215  0.29649  1.0000
  C   C342      1.0  0.69012  0.94442  0.14031  1.0000
  C   C343      1.0  0.87629  0.66906  0.06749  1.0000
  H   H581      1.0  0.90845  0.66427  0.06684  1.0000
  H   H582      1.0  0.85256  0.67715  0.13819  1.0000
  C   C344      1.0  0.89406  0.00004  0.31088  1.0000
  H   H583      1.0  0.91802  0.62969  0.10828  1.0000
  H   H584      1.0  0.93829  0.96142  0.29039  1.0000
  H   H585      1.0  0.85983  0.71976  0.03925  1.0000
  C   C345      1.0  0.80744  0.79769  0.04206  1.0000
  H   H586      1.0  0.86294  0.63929  0.06738  1.0000
  C   C346      1.0  0.55833  0.83849  0.27647  1.0000
  H   H587      1.0  0.69473  0.97820  0.24320  1.0000
  H   H588      1.0  0.84078  0.92366  0.26294  1.0000
  C   C347      1.0  0.79097  0.68117  0.08752  1.0000
  H   H589      1.0  0.79524  0.00306  0.16013  1.0000
  C   C348      1.0  0.79259  0.00528  0.18355  1.0000
  H   H590      1.0  0.99714  0.83086  0.32210  1.0000
  H   H591      1.0  0.87909  0.52654  0.33940  1.0000
  H   H592      1.0  0.53690  0.88746  0.23978  1.0000
  H   H593      1.0  0.91965  0.99875  0.25600  1.0000
  H   H594      1.0  0.93334  0.95592  0.32758  1.0000
  H   H595      1.0  0.79112  0.52999  0.29223  1.0000
  C   C349      1.0  0.82240  0.53628  0.29725  1.0000
  H   H596      1.0  0.56049  0.78401  0.25035  1.0000
  C   C350      1.0  0.00307  0.83531  0.29919  1.0000
  H   H597      1.0  0.53963  0.85614  0.33314  1.0000
  H   H598      1.0  0.75101  0.01316  0.21662  1.0000
  H   H599      1.0  0.90360  0.52835  0.27717  1.0000
  H   H600      1.0  0.64780  0.99536  0.23303  1.0000
  C   C351      1.0  0.67924  0.99593  0.22725  1.0000
  H   H601      1.0  0.00692  0.86719  0.29622  1.0000
  H   H602      1.0  0.82316  0.53990  0.32063  1.0000
  H   H603      1.0  0.66706  0.00100  0.18305  1.0000
  C   C352      1.0  0.90121  0.52894  0.32263  1.0000
  H   H604      1.0  0.85105  0.52656  0.24473  1.0000
  H   H605      1.0  0.71566  0.00166  0.14449  1.0000
  Fe  Fe49      1.0  0.01744  0.98525  0.24997  1.0000
  H   H606      1.0  0.85594  0.80538  0.01361  1.0000
  H   H607      1.0  0.87005  0.99763  0.65642  1.0000
  H   H608      1.0  0.92172  0.00304  0.65400  1.0000
  C   C353      1.0  0.89670  0.00505  0.66885  1.0000
  Fe  Fe50      1.0  0.76062  0.79764  0.86065  1.0000
  S   S100      1.0  0.78070  0.83847  0.89580  1.0000
  S   S101      1.0  0.70149  0.80013  0.83810  1.0000
  Fe  Fe51      1.0  0.84141  0.75948  0.85310  1.0000
  S   S102      1.0  0.86681  0.79801  0.88741  1.0000
  S   S103      1.0  0.88433  0.72703  0.82415  1.0000
  Fe  Fe52      1.0  0.81282  0.78586  0.91279  1.0000
  S   S104      1.0  0.83181  0.77626  0.95888  1.0000
  Fe  Fe53      1.0  0.83312  0.84719  0.86829  1.0000
  S   S105      1.0  0.86134  0.90664  0.86401  1.0000
  S   S106      1.0  0.78902  0.74345  0.87933  1.0000
  S   S107      1.0  0.81118  0.81016  0.83217  1.0000
  Fe  Fe54      1.0  0.56683  0.97504  0.78874  1.0000
  S   S108      1.0  0.60556  0.95874  0.82635  1.0000
  S   S109      1.0  0.58122  0.96179  0.74316  1.0000
  H   H609      1.0  0.55871  0.82248  0.86100  1.0000
  S   S110      1.0  0.93353  0.54716  0.81187  1.0000
  H   H610      1.0  0.75342  0.96508  0.89475  1.0000
  C   C354      1.0  0.59664  0.76304  0.82801  1.0000
  S   S111      1.0  0.92652  0.95176  0.74373  1.0000
  H   H611      1.0  0.91906  0.84851  0.82510  1.0000
  C   C355      1.0  0.87870  0.91949  0.83041  1.0000
  C   C356      1.0  0.90674  0.94915  0.82830  1.0000
  C   C357      1.0  0.92148  0.95944  0.80169  1.0000
  C   C358      1.0  0.90762  0.94053  0.77710  1.0000
  C   C359      1.0  0.87869  0.91178  0.77911  1.0000
  C   C360      1.0  0.86465  0.90090  0.80576  1.0000
  H   H612      1.0  0.91750  0.96382  0.84733  1.0000
  H   H613      1.0  0.94338  0.98213  0.80024  1.0000
  H   H614      1.0  0.86779  0.89721  0.76009  1.0000
  H   H615      1.0  0.84301  0.87813  0.80719  1.0000
  C   C361      1.0  0.89757  0.67680  0.82164  1.0000
  C   C362      1.0  0.92756  0.66585  0.80285  1.0000
  C   C363      1.0  0.93924  0.62643  0.79994  1.0000
  C   C364      1.0  0.92068  0.59736  0.81556  1.0000
  C   C365      1.0  0.89046  0.60819  0.83418  1.0000
  C   C366      1.0  0.87909  0.64775  0.83736  1.0000
  H   H616      1.0  0.94182  0.68798  0.79041  1.0000
  H   H617      1.0  0.96242  0.61850  0.78548  1.0000
  H   H618      1.0  0.87593  0.58594  0.84637  1.0000
  H   H619      1.0  0.85597  0.65573  0.85186  1.0000
  C   C367      1.0  0.67794  0.84587  0.83443  1.0000
  C   C368      1.0  0.66363  0.85724  0.80771  1.0000
  C   C369      1.0  0.64212  0.89219  0.80470  1.0000
  C   C370      1.0  0.63376  0.91541  0.82860  1.0000
  C   C371      1.0  0.64839  0.90417  0.85525  1.0000
  C   C372      1.0  0.67068  0.86980  0.85814  1.0000
  H   H620      1.0  0.66928  0.83893  0.78926  1.0000
  H   H621      1.0  0.63180  0.90095  0.78395  1.0000
  H   H622      1.0  0.64225  0.92201  0.87385  1.0000
  H   H623      1.0  0.68131  0.86118  0.87887  1.0000
  C   C373      1.0  0.80562  0.78277  0.99099  1.0000
  H   H624      1.0  0.93482  0.84715  0.87872  1.0000
  C   C374      1.0  0.99184  0.75640  0.83855  1.0000
  C   C375      1.0  0.55279  0.77173  0.82269  1.0000
  H   H625      1.0  0.86324  0.99914  0.72095  1.0000
  H   H626      1.0  0.97928  0.73529  0.82291  1.0000
  H   H627      1.0  0.97588  0.78754  0.77294  1.0000
  H   H628      1.0  0.83130  0.99585  0.83298  1.0000
  C   C376      1.0  0.75189  0.90820  0.80796  1.0000
  H   H629      1.0  0.01778  0.74181  0.84799  1.0000
  H   H630      1.0  0.60919  0.78031  0.84601  1.0000
  C   C377      1.0  0.71499  0.98600  0.80155  1.0000
  S   S112      1.0  0.00091  0.54071  0.74220  1.0000
  H   H631      1.0  0.55446  0.80170  0.77202  1.0000
  H   H632      1.0  0.89456  0.82268  0.78532  1.0000
  Fe  Fe55      1.0  0.98614  0.52497  0.78699  1.0000
  H   H633      1.0  0.98409  0.84177  0.86986  1.0000
  H   H634      1.0  0.56157  0.88847  0.78987  1.0000
  H   H635      1.0  0.80921  0.01787  0.74652  1.0000
  H   H636      1.0  0.90195  0.98276  0.68539  1.0000
  C   C378      1.0  0.76669  0.77097  0.99356  1.0000
  H   H637      1.0  0.97090  0.76137  0.85609  1.0000
  N   N26       1.0  0.74878  0.98137  0.82215  1.0000
  H   H638      1.0  0.91516  0.52349  0.72167  1.0000
  H   H639      1.0  0.91178  0.79972  0.75378  1.0000
  H   H640      1.0  0.61453  0.76779  0.80882  1.0000
  H   H641      1.0  0.55518  0.89481  0.86330  1.0000
  C   C379      1.0  0.55871  0.83893  0.84066  1.0000
  H   H642      1.0  0.72342  0.00292  0.86147  1.0000
  H   H643      1.0  0.75165  0.92173  0.87401  1.0000
  C   C380      1.0  0.53716  0.87749  0.84792  1.0000
  H   H644      1.0  0.56558  0.86725  0.75540  1.0000
  C   C381      1.0  0.00489  0.79501  0.82469  1.0000
  H   H645      1.0  0.83566  0.54258  0.79597  1.0000
  H   H646      1.0  0.54376  0.75197  0.80485  1.0000
  C   C382      1.0  0.77332  0.94767  0.81142  1.0000
  H   H647      1.0  0.60009  0.73169  0.83357  1.0000
  H   H648      1.0  0.58984  0.84624  0.83705  1.0000
  C   C383      1.0  0.95586  0.85217  0.86133  1.0000
  H   H649      1.0  0.95717  0.88417  0.85746  1.0000
  H   H650      1.0  0.73610  0.90042  0.82747  1.0000
  H   H651      1.0  0.75097  0.76008  0.97507  1.0000
  H   H652      1.0  0.69541  0.96002  0.80199  1.0000
  C   C384      1.0  0.98924  0.85746  0.80023  1.0000
  H   H653      1.0  0.73149  0.90809  0.78953  1.0000
  H   H654      1.0  0.77342  0.88456  0.80385  1.0000
  Fe  Fe56      1.0  0.98322  0.98473  0.74589  1.0000
  H   H655      1.0  0.92541  0.80334  0.84076  1.0000
  C   C385      1.0  0.94209  0.82977  0.83444  1.0000
  H   H656      1.0  0.88254  0.52482  0.76552  1.0000
  C   C386      1.0  0.56154  0.82413  0.78864  1.0000
  H   H657      1.0  0.79861  0.94202  0.82546  1.0000
  H   H658      1.0  0.94006  0.77005  0.79655  1.0000
  H   H659      1.0  0.53661  0.76155  0.84170  1.0000
  H   H660      1.0  0.72564  0.98777  0.77927  1.0000
  H   H661      1.0  0.78633  0.95474  0.79045  1.0000
  H   H662      1.0  0.70569  0.95667  0.84986  1.0000
  C   C387      1.0  0.95363  0.79724  0.78869  1.0000
  H   H663      1.0  0.93059  0.84687  0.76341  1.0000
  C   C388      1.0  0.73264  0.97469  0.85150  1.0000
  H   H664      1.0  0.96631  0.88059  0.79890  1.0000
  C   C389      1.0  0.75928  0.95332  0.87308  1.0000
  H   H665      1.0  0.81874  0.01548  0.68398  1.0000
  N   N27       1.0  0.97273  0.82028  0.81263  1.0000
  N   N28       1.0  0.54272  0.81385  0.81644  1.0000
  H   H666      1.0  0.59384  0.82375  0.79062  1.0000
  H   H667      1.0  0.79097  0.95644  0.86976  1.0000
  C   C390      1.0  0.92096  0.81846  0.77211  1.0000
  C   C391      1.0  0.55094  0.86414  0.77623  1.0000
  H   H668      1.0  0.51920  0.86719  0.77216  1.0000
  H   H669      1.0  0.53200  0.89635  0.82941  1.0000
  H   H670      1.0  0.99892  0.85244  0.77790  1.0000
  H   H671      1.0  0.66189  0.01872  0.79263  1.0000
  H   H672      1.0  0.80478  0.01908  0.86211  1.0000
  C   C392      1.0  0.77249  0.01859  0.82144  1.0000
