data_image0
_chemical_formula_structural       HCH2C3H9CH2CHCH12CH4C2H2C2H2NC2H3CH3NHC2HCHCH6CH8CH7SFeH3C2H5CNCHCNCHC3H5CH3CH2CH2SHFeS2Fe2SFeS2HS3C4H3C2HC3HFeH2C6H5SH3CH3CH4SCFeSH3SC2HCH2FeH2CHNH3CHC7SH14CH8C2FeSCFeS2FeSFeCS2C6HFeHSC6H5SCH2CH6S2C2H2CH5CH3C4H2NHC2HSNH3C3HCH2C2H6CH5CH3CSH10CH2C2H5CH2CHCNH2C4H6C2HNCSCHC3HNHC2HC3HCH3FeSFeS2H3FeS2FeS2FeHFeCFeS2CH2C3H3C6H4SHSC3H4C4H2CHCHNCFeH2C3H5C2HCHCHSH4C2H2CHC2SCSCHCHC2H6SH5C2S2NH2CHCHCH2FeHC2HC2SH2CFeC2HCNH7NC7H7CH2C4H12FeHSFeS2FeSHSHFeS2H2S3HSFeC5HCSH2C6H3SC2HC3H5SNFeH3CH3CHCH2FeC2HCH4CH3CHCHCFeHSH2C2H3C2HCSHFeH2CHCHFeHCH3CH5NH2CNHCSHCSH2CH5C2H4CH3CH2CH4C2H2CNCH3CHCH6CH3SH2CH2CH2CHNH5CHNH3C4HCHSCHC3NH2CHCH3CH4SCH3C2HCFeHCH4CH3CHSHSH2CHCSHCHCSHCFeHFeCS2CS3FeHSFeHSNH2SHS2H2CFeSHC6H3CFeH3CH4C6H5NH3SHCHC2HC3HC3HCH8CH2SCH2CH2CFeHC3HC3H5FeSH2SFeSFeHSCFeH3Fe2HSHSC4HCH4SH4CH3CSCH3C4SHNC6SCH2CH11C3H2SC2H3CH2C2H2SH2CH5FeC2H
_chemical_formula_sum              "H576 C336 N24 S96 Fe48"
_cell_length_a       42.4284
_cell_length_b       45.4267
_cell_length_c       37.7885
_cell_angle_alpha    88.923
_cell_angle_beta     89.1552
_cell_angle_gamma    133.965

_space_group_name_H-M_alt    "P 1"
_space_group_IT_number       1

loop_
  _space_group_symop_operation_xyz
  'x, y, z'

loop_
  _atom_site_type_symbol
  _atom_site_label
  _atom_site_symmetry_multiplicity
  _atom_site_fract_x
  _atom_site_fract_y
  _atom_site_fract_z
  _atom_site_occupancy
  H   H1        1.0  0.04230  0.49221  0.24673  1.0000
  C   C1        1.0  0.48133  0.02111  0.21643  1.0000
  H   H2        1.0  0.37651  0.42782  0.05330  1.0000
  H   H3        1.0  0.42224  0.43813  0.03643  1.0000
  C   C2        1.0  0.50541  0.06604  0.22250  1.0000
  C   C3        1.0  0.02219  0.48883  0.32655  1.0000
  C   C4        1.0  0.41247  0.44870  0.05581  1.0000
  H   H4        1.0  0.49847  0.31578  0.30037  1.0000
  H   H5        1.0  0.49039  0.10207  0.27087  1.0000
  H   H6        1.0  0.41879  0.44449  0.08298  1.0000
  H   H7        1.0  0.49281  0.02399  0.28423  1.0000
  H   H8        1.0  0.45963  0.03452  0.28425  1.0000
  H   H9        1.0  0.44848  0.99963  0.23012  1.0000
  H   H10       1.0  0.48068  0.06724  0.21635  1.0000
  H   H11       1.0  0.48685  0.46883  0.06705  1.0000
  H   H12       1.0  0.47605  0.01555  0.18764  1.0000
  C   C5        1.0  0.43464  0.49322  0.04868  1.0000
  H   H13       1.0  0.49955  0.01319  0.22497  1.0000
  H   H14       1.0  0.41293  0.49275  0.03187  1.0000
  C   C6        1.0  0.49396  0.04899  0.28708  1.0000
  H   H15       1.0  0.04241  0.48243  0.32036  1.0000
  C   C7        1.0  0.50572  0.06198  0.32587  1.0000
  H   H16       1.0  0.50372  0.08427  0.33288  1.0000
  H   H17       1.0  0.50563  0.00965  0.02597  1.0000
  H   H18       1.0  0.48162  0.03460  0.34381  1.0000
  H   H19       1.0  0.05226  0.46463  0.45880  1.0000
  H   H20       1.0  0.44363  0.49415  0.56226  1.0000
  H   H21       1.0  0.45249  0.44495  0.47201  1.0000
  H   H22       1.0  0.45390  0.41085  0.54269  1.0000
  H   H23       1.0  0.42794  0.42714  0.58676  1.0000
  H   H24       1.0  0.32514  0.39172  0.55138  1.0000
  H   H25       1.0  0.37116  0.43768  0.57131  1.0000
  H   H26       1.0  0.32506  0.48134  0.64702  1.0000
  H   H27       1.0  0.41680  0.38265  0.50682  1.0000
  C   C8        1.0  0.45808  0.45994  0.58296  1.0000
  H   H28       1.0  0.46076  0.47364  0.60813  1.0000
  H   H29       1.0  0.36110  0.47621  0.66125  1.0000
  H   H30       1.0  0.41257  0.46545  0.47127  1.0000
  H   H31       1.0  0.48699  0.46398  0.58001  1.0000
  C   C9        1.0  0.45919  0.44932  0.50082  1.0000
  C   C10       1.0  0.43395  0.48372  0.49385  1.0000
  H   H32       1.0  0.47383  0.41207  0.50044  1.0000
  H   H33       1.0  0.49504  0.47603  0.50229  1.0000
  C   C11       1.0  0.45696  0.48170  0.55194  1.0000
  C   C12       1.0  0.44993  0.41148  0.51397  1.0000
  H   H34       1.0  0.35335  0.43943  0.52865  1.0000
  H   H35       1.0  0.38471  0.39648  0.54371  1.0000
  N   N1        1.0  0.43440  0.45782  0.51913  1.0000
  C   C13       1.0  0.38737  0.41843  0.52694  1.0000
  C   C14       1.0  0.35818  0.42271  0.54560  1.0000
  H   H36       1.0  0.37152  0.40232  0.50191  1.0000
  H   H37       1.0  0.02413  0.45729  0.55234  1.0000
  H   H38       1.0  0.02994  0.47905  0.60873  1.0000
  C   C15       1.0  0.02126  0.47983  0.55162  1.0000
  H   H39       1.0  0.41981  0.49426  0.50705  1.0000
  H   H40       1.0  0.02420  0.49524  0.35506  1.0000
  H   H41       1.0  0.06642  0.43591  0.93221  1.0000
  N   N2        1.0  0.08272  0.49008  0.91115  1.0000
  H   H42       1.0  0.10444  0.46074  0.89577  1.0000
  C   C16       1.0  0.09499  0.46676  0.92025  1.0000
  C   C17       1.0  0.04798  0.45127  0.85325  1.0000
  H   H43       1.0  0.13918  0.46792  0.95029  1.0000
  C   C18       1.0  0.13353  0.48808  0.94518  1.0000
  H   H44       1.0  0.08131  0.47464  0.84086  1.0000
  C   C19       1.0  0.04270  0.46359  0.88912  1.0000
  H   H45       1.0  0.12701  0.49405  0.97128  1.0000
  H   H46       1.0  0.26637  0.49110  0.72868  1.0000
  H   H47       1.0  0.03956  0.42209  0.85635  1.0000
  H   H48       1.0  0.02941  0.47750  0.88450  1.0000
  H   H49       1.0  0.49822  0.05304  0.00679  1.0000
  H   H50       1.0  0.02604  0.44749  0.83389  1.0000
  C   C20       1.0  0.03781  0.46500  0.97059  1.0000
  H   H51       1.0  0.04806  0.45002  0.98152  1.0000
  H   H52       1.0  0.24449  0.46547  0.68764  1.0000
  H   H53       1.0  0.03401  0.47750  0.99349  1.0000
  H   H54       1.0  0.48130  0.48249  0.00381  1.0000
  H   H55       1.0  0.41879  0.46957  0.97941  1.0000
  H   H56       1.0  0.46079  0.48899  0.94677  1.0000
  H   H57       1.0  0.28027  0.46495  0.70943  1.0000
  H   H58       1.0  0.01531  0.43425  0.90378  1.0000
  C   C21       1.0  0.27425  0.48458  0.70369  1.0000
  H   H59       1.0  0.45456  0.99831  0.96064  1.0000
  H   H60       1.0  0.34715  0.49525  0.71261  1.0000
  H   H61       1.0  0.47588  0.91101  0.01822  1.0000
  H   H62       1.0  0.13551  0.57368  0.26481  1.0000
  H   H63       1.0  0.06089  0.56944  0.24486  1.0000
  H   H64       1.0  0.43614  0.65963  0.01452  1.0000
  H   H65       1.0  0.48474  0.95100  0.03880  1.0000
  S   S1        1.0  0.03778  0.52454  0.10103  1.0000
  Fe  Fe1       1.0  0.02718  0.54278  0.05010  1.0000
  H   H66       1.0  0.11682  0.61081  0.25434  1.0000
  H   H67       1.0  0.43239  0.70881  0.02719  1.0000
  H   H68       1.0  0.46105  0.80838  0.01604  1.0000
  C   C22       1.0  0.07179  0.60975  0.28282  1.0000
  C   C23       1.0  0.51211  0.53103  0.06065  1.0000
  H   H69       1.0  0.07803  0.53868  0.21879  1.0000
  H   H70       1.0  0.13756  0.61603  0.31558  1.0000
  H   H71       1.0  0.11200  0.55463  0.04150  1.0000
  H   H72       1.0  0.17416  0.56171  0.02512  1.0000
  H   H73       1.0  0.02050  0.53402  0.31846  1.0000
  C   C24       1.0  0.07682  0.52090  0.24028  1.0000
  N   N3        1.0  0.48110  0.52310  0.03372  1.0000
  C   C25       1.0  0.08336  0.58696  0.26702  1.0000
  H   H74       1.0  0.46699  0.56844  0.07232  1.0000
  C   C26       1.0  0.10755  0.58395  0.32416  1.0000
  N   N4        1.0  0.08108  0.55939  0.29251  1.0000
  C   C27       1.0  0.10087  0.54630  0.27332  1.0000
  H   H75       1.0  0.08855  0.58636  0.34230  1.0000
  C   C28       1.0  0.13139  0.57128  0.01734  1.0000
  C   C29       1.0  0.03361  0.52360  0.30330  1.0000
  C   C30       1.0  0.44623  0.77642  0.01696  1.0000
  H   H76       1.0  0.41239  0.75660  0.02820  1.0000
  H   H77       1.0  0.03827  0.58858  0.29500  1.0000
  H   H78       1.0  0.07281  0.62723  0.26105  1.0000
  H   H79       1.0  0.09570  0.63224  0.30237  1.0000
  H   H80       1.0  0.15037  0.57326  0.33266  1.0000
  C   C31       1.0  0.49844  0.58630  0.05710  1.0000
  H   H81       1.0  0.10296  0.52788  0.29077  1.0000
  H   H82       1.0  0.50794  0.61478  0.04694  1.0000
  H   H83       1.0  0.09340  0.51184  0.22934  1.0000
  C   C32       1.0  0.47296  0.93333  0.01446  1.0000
  H   H84       1.0  0.43288  0.50341  0.07452  1.0000
  H   H85       1.0  0.46593  0.77552  0.03508  1.0000
  C   C33       1.0  0.49435  0.56319  0.02520  1.0000
  H   H86       1.0  0.50235  0.53210  0.08776  1.0000
  H   H87       1.0  0.36778  0.68888  0.01267  1.0000
  S   S2        1.0  0.46570  0.81044  0.54202  1.0000
  H   H88       1.0  0.46406  0.71838  0.58746  1.0000
  Fe  Fe2       1.0  0.24394  0.61858  0.57715  1.0000
  S   S3        1.0  0.23581  0.59960  0.52110  1.0000
  S   S4        1.0  0.26763  0.67791  0.59446  1.0000
  Fe  Fe3       1.0  0.22183  0.54396  0.60817  1.0000
  Fe  Fe4       1.0  0.27140  0.58164  0.53724  1.0000
  S   S5        1.0  0.32531  0.59721  0.50282  1.0000
  Fe  Fe5       1.0  0.17581  0.53744  0.54340  1.0000
  S   S6        1.0  0.28527  0.60660  0.59120  1.0000
  S   S7        1.0  0.18105  0.55783  0.59875  1.0000
  H   H89       1.0  0.47738  0.67794  0.57251  1.0000
  S   S8        1.0  0.48123  0.54872  0.62632  1.0000
  S   S9        1.0  0.48938  0.62496  0.61082  1.0000
  S   S10       1.0  0.06870  0.57801  0.41780  1.0000
  C   C34       1.0  0.10477  0.52043  0.48434  1.0000
  C   C35       1.0  0.12888  0.56213  0.48626  1.0000
  C   C36       1.0  0.11839  0.57986  0.46501  1.0000
  C   C37       1.0  0.08324  0.55584  0.44231  1.0000
  H   H90       1.0  0.47958  0.75352  0.46426  1.0000
  H   H91       1.0  0.15478  0.58050  0.50484  1.0000
  H   H92       1.0  0.13676  0.61201  0.46697  1.0000
  C   C38       1.0  0.34493  0.57617  0.51906  1.0000
  C   C39       1.0  0.33017  0.55515  0.55204  1.0000
  H   H93       1.0  0.07412  0.52710  0.58513  1.0000
  C   C40       1.0  0.37930  0.54518  0.54490  1.0000
  C   C41       1.0  0.39392  0.56607  0.51193  1.0000
  C   C42       1.0  0.37665  0.58141  0.49898  1.0000
  H   H94       1.0  0.43764  0.88980  0.52802  1.0000
  Fe  Fe6       1.0  0.50855  0.84782  0.58698  1.0000
  H   H95       1.0  0.15556  0.59505  0.67541  1.0000
  H   H96       1.0  0.38781  0.59730  0.47333  1.0000
  C   C43       1.0  0.41049  0.77522  0.55605  1.0000
  C   C44       1.0  0.39762  0.77931  0.58841  1.0000
  C   C45       1.0  0.35329  0.75026  0.59965  1.0000
  C   C46       1.0  0.32224  0.71646  0.57912  1.0000
  C   C47       1.0  0.33529  0.71249  0.54687  1.0000
  C   C48       1.0  0.37917  0.74230  0.53497  1.0000
  H   H97       1.0  0.42171  0.80493  0.60465  1.0000
  H   H98       1.0  0.34333  0.75362  0.62448  1.0000
  H   H99       1.0  0.31141  0.68669  0.53076  1.0000
  H   H100      1.0  0.38864  0.73935  0.50962  1.0000
  H   H101      1.0  0.45829  0.88767  0.46842  1.0000
  S   S11       1.0  0.50366  0.82347  0.64094  1.0000
  H   H102      1.0  0.47396  0.53922  0.46017  1.0000
  H   H103      1.0  0.41817  0.56994  0.49618  1.0000
  H   H104      1.0  0.42032  0.71353  0.46544  1.0000
  C   C49       1.0  0.38868  0.58070  0.66362  1.0000
  H   H105      1.0  0.42970  0.64432  0.54739  1.0000
  H   H106      1.0  0.44707  0.74562  0.50138  1.0000
  H   H107      1.0  0.38819  0.68745  0.58657  1.0000
  C   C50       1.0  0.07076  0.49682  0.46057  1.0000
  H   H108      1.0  0.48262  0.63920  0.53451  1.0000
  H   H109      1.0  0.15393  0.51285  0.67220  1.0000
  H   H110      1.0  0.04541  0.50230  0.53039  1.0000
  H   H111      1.0  0.46780  0.69678  0.47752  1.0000
  S   S12       1.0  0.39924  0.52410  0.56016  1.0000
  C   C51       1.0  0.46493  0.67319  0.54535  1.0000
  Fe  Fe7       1.0  0.46623  0.57062  0.58240  1.0000
  S   S13       1.0  0.21085  0.51762  0.55496  1.0000
  H   H112      1.0  0.30862  0.68289  0.65721  1.0000
  H   H113      1.0  0.38816  0.64973  0.57431  1.0000
  H   H114      1.0  0.49454  0.51583  0.46073  1.0000
  S   S14       1.0  0.22605  0.51930  0.65815  1.0000
  C   C52       1.0  0.38730  0.61377  0.66051  1.0000
  C   C53       1.0  0.48738  0.66430  0.52170  1.0000
  H   H115      1.0  0.50167  0.54430  0.49793  1.0000
  C   C54       1.0  0.39961  0.67939  0.56573  1.0000
  H   H116      1.0  0.48256  0.94125  0.51238  1.0000
  H   H117      1.0  0.38329  0.67572  0.54120  1.0000
  Fe  Fe8       1.0  0.50993  0.60619  0.65268  1.0000
  H   H118      1.0  0.03333  0.49583  0.42179  1.0000
  H   H119      1.0  0.38346  0.52073  0.63587  1.0000
  C   C55       1.0  0.34699  0.53925  0.56474  1.0000
  H   H120      1.0  0.33449  0.52188  0.58966  1.0000
  N   N5        1.0  0.47114  0.70887  0.53313  1.0000
  H   H121      1.0  0.23031  0.62808  0.65663  1.0000
  H   H122      1.0  0.41269  0.63759  0.64040  1.0000
  H   H123      1.0  0.41656  0.66834  0.49850  1.0000
  C   C56       1.0  0.03793  0.50082  0.58748  1.0000
  H   H124      1.0  0.45680  0.74229  0.55638  1.0000
  C   C57       1.0  0.44992  0.71418  0.56125  1.0000
  C   C58       1.0  0.45050  0.69921  0.49776  1.0000
  C   C59       1.0  0.47888  0.52277  0.47754  1.0000
  C   C60       1.0  0.48030  0.89509  0.48989  1.0000
  C   C61       1.0  0.44987  0.73010  0.48150  1.0000
  C   C62       1.0  0.47311  0.91232  0.52028  1.0000
  C   C63       1.0  0.05988  0.51441  0.43972  1.0000
  S   S15       1.0  0.11256  0.49597  0.51429  1.0000
  H   H125      1.0  0.49040  0.91666  0.54423  1.0000
  H   H126      1.0  0.30537  0.55067  0.56752  1.0000
  H   H127      1.0  0.02475  0.51385  0.59569  1.0000
  H   H128      1.0  0.35536  0.60104  0.65106  1.0000
  H   H129      1.0  0.50851  0.93847  0.66260  1.0000
  H   H130      1.0  0.38186  0.56828  0.63678  1.0000
  H   H131      1.0  0.46684  0.86495  0.50004  1.0000
  H   H132      1.0  0.32776  0.64563  0.67684  1.0000
  H   H133      1.0  0.47268  0.65363  0.49542  1.0000
  H   H134      1.0  0.09810  0.53690  0.35693  1.0000
  H   H135      1.0  0.50147  0.89546  0.42458  1.0000
  H   H136      1.0  0.42321  0.59674  0.66842  1.0000
  H   H137      1.0  0.13945  0.58783  0.37080  1.0000
  H   H138      1.0  0.48307  0.83867  0.46355  1.0000
  C   C64       1.0  0.35828  0.49853  0.65670  1.0000
  H   H139      1.0  0.27606  0.70892  0.66208  1.0000
  H   H140      1.0  0.19117  0.64842  0.66492  1.0000
  H   H141      1.0  0.04009  0.54929  0.53366  1.0000
  H   H142      1.0  0.49177  0.50981  0.54553  1.0000
  H   H143      1.0  0.26988  0.61038  0.67449  1.0000
  H   H144      1.0  0.51334  0.85067  0.42342  1.0000
  H   H145      1.0  0.30621  0.51764  0.65345  1.0000
  H   H146      1.0  0.48958  0.95202  0.44986  1.0000
  C   C65       1.0  0.12432  0.56896  0.34701  1.0000
  C   C66       1.0  0.31175  0.52437  0.68211  1.0000
  Fe  Fe9       1.0  0.25517  0.61109  0.90567  1.0000
  S   S16       1.0  0.23613  0.63261  0.86506  1.0000
  C   C67       1.0  0.11091  0.55255  0.87265  1.0000
  Fe  Fe10      1.0  0.30844  0.60953  0.85205  1.0000
  S   S17       1.0  0.29253  0.62986  0.80749  1.0000
  S   S18       1.0  0.35692  0.60645  0.83439  1.0000
  Fe  Fe11      1.0  0.30573  0.67422  0.84488  1.0000
  S   S19       1.0  0.34898  0.73833  0.82270  1.0000
  Fe  Fe12      1.0  0.22448  0.58603  0.83128  1.0000
  C   C68       1.0  0.07229  0.50071  0.94402  1.0000
  S   S20       1.0  0.32661  0.65728  0.88824  1.0000
  S   S21       1.0  0.44712  0.59003  0.95440  1.0000
  C   C69       1.0  0.38146  0.60186  0.86818  1.0000
  C   C70       1.0  0.36660  0.59423  0.90356  1.0000
  C   C71       1.0  0.38638  0.58991  0.92990  1.0000
  C   C72       1.0  0.42169  0.59423  0.92107  1.0000
  C   C73       1.0  0.43638  0.60183  0.88567  1.0000
  C   C74       1.0  0.41624  0.60550  0.85930  1.0000
  H   H147      1.0  0.33943  0.59094  0.91051  1.0000
  Fe  Fe13      1.0  0.50308  0.88688  0.94758  1.0000
  H   H148      1.0  0.46248  0.60375  0.87843  1.0000
  S   S22       1.0  0.23854  0.56106  0.87298  1.0000
  C   C75       1.0  0.37051  0.77114  0.85809  1.0000
  C   C76       1.0  0.41178  0.81121  0.85419  1.0000
  C   C77       1.0  0.43066  0.83638  0.88333  1.0000
  C   C78       1.0  0.40746  0.82216  0.91594  1.0000
  C   C79       1.0  0.36542  0.78272  0.91946  1.0000
  C   C80       1.0  0.34731  0.75688  0.89072  1.0000
  H   H149      1.0  0.42959  0.82258  0.82891  1.0000
  H   H150      1.0  0.46306  0.86693  0.88051  1.0000
  H   H151      1.0  0.12979  0.52290  0.72722  1.0000
  H   H152      1.0  0.31528  0.72599  0.89379  1.0000
  H   H153      1.0  0.48359  0.80643  0.73116  1.0000
  S   S23       1.0  0.43226  0.85279  0.95275  1.0000
  C   C81       1.0  0.45383  0.77391  0.73830  1.0000
  H   H154      1.0  0.40648  0.68230  0.93087  1.0000
  H   H155      1.0  0.36130  0.71669  0.94004  1.0000
  C   C82       1.0  0.14649  0.60989  0.96381  1.0000
  H   H156      1.0  0.36132  0.55659  0.78415  1.0000
  H   H157      1.0  0.47076  0.55886  0.00756  1.0000
  H   H158      1.0  0.42114  0.79201  0.76072  1.0000
  H   H159      1.0  0.25657  0.53707  0.72869  1.0000
  H   H160      1.0  0.34570  0.75551  0.69291  1.0000
  H   H161      1.0  0.42565  0.70505  0.80494  1.0000
  S   S24       1.0  0.23276  0.59763  0.96350  1.0000
  S   S25       1.0  0.49051  0.87756  0.71111  1.0000
  C   C83       1.0  0.16662  0.57536  0.00802  1.0000
  C   C84       1.0  0.49634  0.76094  0.76314  1.0000
  H   H162      1.0  0.20081  0.63074  0.93051  1.0000
  H   H163      1.0  0.17614  0.62928  0.71069  1.0000
  C   C85       1.0  0.35669  0.54007  0.76035  1.0000
  H   H164      1.0  0.31775  0.68392  0.97258  1.0000
  H   H165      1.0  0.43818  0.94907  0.91602  1.0000
  H   H166      1.0  0.43747  0.77587  0.96047  1.0000
  H   H167      1.0  0.41951  0.91233  0.95166  1.0000
  H   H168      1.0  0.37887  0.53518  0.76272  1.0000
  C   C86       1.0  0.19125  0.59600  0.97621  1.0000
  H   H169      1.0  0.10231  0.52383  0.95881  1.0000
  H   H170      1.0  0.47771  0.60655  0.78237  1.0000
  H   H171      1.0  0.41754  0.72650  0.91846  1.0000
  C   C87       1.0  0.12099  0.58825  0.99499  1.0000
  C   C88       1.0  0.17114  0.52042  0.69638  1.0000
  C   C89       1.0  0.45427  0.97456  0.96934  1.0000
  C   C90       1.0  0.47255  0.78757  0.80062  1.0000
  H   H172      1.0  0.13891  0.62345  0.94661  1.0000
  H   H173      1.0  0.36948  0.65383  0.76582  1.0000
  N   N6        1.0  0.42294  0.72079  0.97460  1.0000
  H   H174      1.0  0.31717  0.74325  0.73526  1.0000
  C   C91       1.0  0.50049  0.96062  0.98101  1.0000
  C   C92       1.0  0.48534  0.78061  0.83549  1.0000
  H   H175      1.0  0.48887  0.74328  0.73931  1.0000
  S   S26       1.0  0.16659  0.54802  0.79642  1.0000
  N   N7        1.0  0.26521  0.66714  0.70127  1.0000
  H   H176      1.0  0.45721  0.75023  0.84809  1.0000
  H   H177      1.0  0.35521  0.66240  0.97362  1.0000
  H   H178      1.0  0.14791  0.55133  0.90955  1.0000
  C   C93       1.0  0.26289  0.66021  0.74078  1.0000
  C   C94       1.0  0.50954  0.89421  0.78144  1.0000
  C   C95       1.0  0.31577  0.74518  0.70611  1.0000
  H   H179      1.0  0.45557  0.52207  0.96266  1.0000
  C   C96       1.0  0.23115  0.65880  0.76316  1.0000
  H   H180      1.0  0.16439  0.51708  0.93297  1.0000
  H   H181      1.0  0.33402  0.69939  0.69862  1.0000
  C   C97       1.0  0.42487  0.93920  0.94372  1.0000
  C   C98       1.0  0.36887  0.56661  0.72686  1.0000
  H   H182      1.0  0.40121  0.53765  0.69814  1.0000
  H   H183      1.0  0.30568  0.54437  0.68537  1.0000
  H   H184      1.0  0.25240  0.63037  0.74685  1.0000
  H   H185      1.0  0.29583  0.68291  0.75235  1.0000
  H   H186      1.0  0.38372  0.74007  0.74636  1.0000
  H   H187      1.0  0.32226  0.51026  0.76141  1.0000
  C   C99       1.0  0.12099  0.52950  0.89137  1.0000
  H   H188      1.0  0.36460  0.73540  0.98277  1.0000
  H   H189      1.0  0.40487  0.59387  0.72819  1.0000
  H   H190      1.0  0.21191  0.60151  0.69803  1.0000
  H   H191      1.0  0.09732  0.56022  0.89133  1.0000
  H   H192      1.0  0.43730  0.96341  0.99596  1.0000
  C   C100      1.0  0.27393  0.70465  0.69140  1.0000
  H   H193      1.0  0.19802  0.62720  0.76543  1.0000
  H   H194      1.0  0.22858  0.68015  0.75367  1.0000
  H   H195      1.0  0.24380  0.66872  0.79023  1.0000
  C   C101      1.0  0.21559  0.53987  0.75902  1.0000
  S   S27       1.0  0.48891  0.60699  0.70750  1.0000
  H   H196      1.0  0.42751  0.61091  0.83194  1.0000
  H   H197      1.0  0.43523  0.66487  0.96791  1.0000
  H   H198      1.0  0.44463  0.78408  0.80799  1.0000
  H   H199      1.0  0.13635  0.52466  0.87135  1.0000
  H   H200      1.0  0.39207  0.92853  0.94405  1.0000
  H   H201      1.0  0.49472  0.80391  0.85431  1.0000
  H   H202      1.0  0.41415  0.78234  0.71473  1.0000
  H   H203      1.0  0.51398  0.78442  0.83203  1.0000
  H   H204      1.0  0.37444  0.58337  0.95715  1.0000
  H   H205      1.0  0.48162  0.89072  0.78373  1.0000
  C   C102      1.0  0.41933  0.71648  0.78256  1.0000
  H   H206      1.0  0.29543  0.62721  0.71703  1.0000
  H   H207      1.0  0.24651  0.70140  0.69982  1.0000
  C   C103      1.0  0.41582  0.77158  0.74061  1.0000
  C   C104      1.0  0.39855  0.68436  0.75385  1.0000
  H   H208      1.0  0.08865  0.53522  0.85048  1.0000
  H   H209      1.0  0.49701  0.77117  0.92113  1.0000
  H   H210      1.0  0.23264  0.54694  0.78318  1.0000
  H   H211      1.0  0.51171  0.98813  0.91665  1.0000
  H   H212      1.0  0.47705  0.73188  0.99726  1.0000
  C   C105      1.0  0.20708  0.52461  0.69671  1.0000
  H   H213      1.0  0.31618  0.76950  0.70023  1.0000
  H   H214      1.0  0.06047  0.51552  0.93710  1.0000
  C   C106      1.0  0.15731  0.52577  0.72754  1.0000
  H   H215      1.0  0.34738  0.77173  0.94464  1.0000
  C   C107      1.0  0.30294  0.67379  0.68590  1.0000
  N   N8        1.0  0.35805  0.54690  0.69148  1.0000
  H   H216      1.0  0.39373  0.71511  0.79325  1.0000
  H   H217      1.0  0.35316  0.57836  0.73046  1.0000
  C   C108      1.0  0.36666  0.51976  0.69155  1.0000
  C   C109      1.0  0.18145  0.61382  0.95449  1.0000
  C   C110      1.0  0.37471  0.69371  0.98351  1.0000
  C   C111      1.0  0.42824  0.71534  0.93639  1.0000
  H   H218      1.0  0.48889  0.93983  0.95879  1.0000
  H   H219      1.0  0.44882  0.75654  0.71505  1.0000
  H   H220      1.0  0.48327  0.78463  0.97235  1.0000
  H   H221      1.0  0.47386  0.72719  0.89660  1.0000
  H   H222      1.0  0.42111  0.68172  0.74373  1.0000
  H   H223      1.0  0.49055  0.73036  0.94020  1.0000
  C   C112      1.0  0.35395  0.70869  0.96870  1.0000
  C   C113      1.0  0.18022  0.53642  0.75865  1.0000
  H   H224      1.0  0.38683  0.69049  0.73161  1.0000
  N   N9        1.0  0.46052  0.75973  0.77118  1.0000
  C   C114      1.0  0.44808  0.76517  0.97923  1.0000
  S   S28       1.0  0.07541  0.58168  0.00375  1.0000
  C   C115      1.0  0.50569  0.61054  0.77746  1.0000
  H   H225      1.0  0.49849  0.74567  0.78498  1.0000
  C   C116      1.0  0.47524  0.73751  0.92342  1.0000
  C   C117      1.0  0.44056  0.70884  0.99906  1.0000
  C   C118      1.0  0.22882  0.53376  0.72820  1.0000
  H   H226      1.0  0.14178  0.58190  0.86078  1.0000
  N   N10       1.0  0.50034  0.99291  0.97150  1.0000
  H   H227      1.0  0.49957  0.82024  0.79192  1.0000
  C   C119      1.0  0.45312  0.49699  0.97086  1.0000
  C   C120      1.0  0.29813  0.63684  0.68909  1.0000
  H   H228      1.0  0.39485  0.62937  0.68567  1.0000
  C   C121      1.0  0.22382  0.62983  0.68478  1.0000
  C   C122      1.0  0.42342  0.66624  0.99362  1.0000
  C   C123      1.0  0.18476  0.62596  0.68434  1.0000
  H   H229      1.0  0.38715  0.64158  0.99570  1.0000
  C   C124      1.0  0.48557  0.50929  0.99961  1.0000
  H   H230      1.0  0.43757  0.91494  0.01187  1.0000
  H   H231      1.0  0.62976  0.36317  0.20927  1.0000
  H   H232      1.0  0.61649  0.24395  0.09068  1.0000
  Fe  Fe14      1.0  0.97130  0.46238  0.09207  1.0000
  S   S29       1.0  0.94972  0.40225  0.10565  1.0000
  Fe  Fe15      1.0  0.62694  0.44455  0.14358  1.0000
  S   S30       1.0  0.59101  0.41385  0.09364  1.0000
  S   S31       1.0  0.59055  0.43045  0.19491  1.0000
  H   H233      1.0  0.58620  0.28009  0.28281  1.0000
  H   H234      1.0  0.71706  0.39214  0.17007  1.0000
  H   H235      1.0  0.52607  0.13635  0.21083  1.0000
  Fe  Fe16      1.0  0.63880  0.40778  0.08564  1.0000
  S   S32       1.0  0.62474  0.35450  0.06224  1.0000
  S   S33       1.0  0.67038  0.43311  0.13771  1.0000
  Fe  Fe17      1.0  0.69341  0.19758  0.17374  1.0000
  S   S34       1.0  0.62112  0.15729  0.17158  1.0000
  S   S35       1.0  0.72047  0.20024  0.22563  1.0000
  Fe  Fe18      1.0  0.70827  0.22809  0.09789  1.0000
  H   H236      1.0  0.76853  0.48073  0.29511  1.0000
  Fe  Fe19      1.0  0.63821  0.21124  0.14430  1.0000
  C   C125      1.0  0.67909  0.48888  0.28919  1.0000
  Fe  Fe20      1.0  0.62712  0.14086  0.11800  1.0000
  S   S36       1.0  0.71044  0.25263  0.14960  1.0000
  S   S37       1.0  0.69857  0.17678  0.12237  1.0000
  C   C126      1.0  0.61765  0.31978  0.09180  1.0000
  H   H237      1.0  0.65358  0.12265  0.05574  1.0000
  H   H238      1.0  0.56928  0.28643  0.24149  1.0000
  C   C127      1.0  0.61202  0.26678  0.13787  1.0000
  C   C128      1.0  0.60998  0.29398  0.15141  1.0000
  C   C129      1.0  0.61294  0.32058  0.12842  1.0000
  H   H239      1.0  0.62402  0.21133  0.28051  1.0000
  H   H240      1.0  0.60649  0.29473  0.17969  1.0000
  H   H241      1.0  0.61165  0.34170  0.13893  1.0000
  C   C130      1.0  0.89672  0.36341  0.09031  1.0000
  C   C131      1.0  0.86383  0.32887  0.11208  1.0000
  C   C132      1.0  0.82053  0.29973  0.10086  1.0000
  C   C133      1.0  0.81052  0.30463  0.06746  1.0000
  C   C134      1.0  0.84372  0.33828  0.04524  1.0000
  C   C135      1.0  0.88660  0.36786  0.05682  1.0000
  H   H242      1.0  0.87160  0.32529  0.13798  1.0000
  H   H243      1.0  0.79502  0.27351  0.11799  1.0000
  H   H244      1.0  0.91204  0.39382  0.03956  1.0000
  H   H245      1.0  0.78325  0.02871  0.05646  1.0000
  S   S38       1.0  0.96339  0.47935  0.03925  1.0000
  H   H246      1.0  0.53424  0.28211  0.31561  1.0000
  S   S39       1.0  0.68763  0.46798  0.05552  1.0000
  C   C136      1.0  0.62563  0.45592  0.23032  1.0000
  C   C137      1.0  0.60859  0.45270  0.26377  1.0000
  C   C138      1.0  0.56976  0.10113  0.26056  1.0000
  H   H247      1.0  0.71957  0.30304  0.07938  1.0000
  H   H248      1.0  0.71513  0.37851  0.03519  1.0000
  H   H249      1.0  0.57456  0.43701  0.26701  1.0000
  H   H250      1.0  0.87732  0.44885  0.18385  1.0000
  C   C139      1.0  0.63914  0.18610  0.31723  1.0000
  C   C140      1.0  0.66313  0.17580  0.32238  1.0000
  C   C141      1.0  0.68887  0.18098  0.29433  1.0000
  C   C142      1.0  0.69066  0.19648  0.26116  1.0000
  H   H251      1.0  0.68563  0.40031  0.33669  1.0000
  H   H252      1.0  0.70650  0.17199  0.29806  1.0000
  C   C143      1.0  0.66793  0.20816  0.25642  1.0000
  H   H253      1.0  0.66964  0.22065  0.23098  1.0000
  C   C144      1.0  0.64220  0.20296  0.28444  1.0000
  H   H254      1.0  0.71945  0.31242  0.20325  1.0000
  N   N11       1.0  0.58640  0.34360  0.29344  1.0000
  C   C145      1.0  0.63531  0.46923  0.29317  1.0000
  Fe  Fe21      1.0  0.71602  0.49393  0.10830  1.0000
  H   H255      1.0  0.59201  0.12791  0.24195  1.0000
  H   H256      1.0  0.92401  0.43212  0.24185  1.0000
  C   C146      1.0  0.63512  0.09064  0.05251  1.0000
  C   C147      1.0  0.78204  0.31360  0.26032  1.0000
  C   C148      1.0  0.57353  0.01920  0.06902  1.0000
  H   H257      1.0  0.57148  0.06504  0.22422  1.0000
  H   H258      1.0  0.57935  0.16570  0.22889  1.0000
  H   H259      1.0  0.83400  0.29408  0.30530  1.0000
  H   H260      1.0  0.70646  0.33249  0.07657  1.0000
  H   H261      1.0  0.68328  0.47976  0.20029  1.0000
  C   C149      1.0  0.62095  0.35190  0.31567  1.0000
  C   C150      1.0  0.78520  0.48464  0.07973  1.0000
  H   H262      1.0  0.55764  0.04582  0.27025  1.0000
  C   C151      1.0  0.54476  0.14878  0.23539  1.0000
  H   H263      1.0  0.78280  0.44340  0.04995  1.0000
  C   C152      1.0  0.61807  0.29154  0.07831  1.0000
  H   H264      1.0  0.77803  0.25720  0.29551  1.0000
  S   S40       1.0  0.75656  0.26992  0.05336  1.0000
  H   H265      1.0  0.67127  0.40067  0.23789  1.0000
  H   H266      1.0  0.81405  0.36040  0.29902  1.0000
  H   H267      1.0  0.78073  0.29002  0.25024  1.0000
  H   H268      1.0  0.79643  0.33678  0.23836  1.0000
  C   C153      1.0  0.56054  0.27657  0.26989  1.0000
  C   C154      1.0  0.96158  0.48994  0.21297  1.0000
  H   H269      1.0  0.54440  0.99591  0.08546  1.0000
  H   H270      1.0  0.84869  0.44972  0.21924  1.0000
  C   C155      1.0  0.52916  0.34874  0.29794  1.0000
  H   H271      1.0  0.64021  0.34728  0.24684  1.0000
  C   C156      1.0  0.80078  0.27784  0.31652  1.0000
  C   C157      1.0  0.61574  0.26540  0.10129  1.0000
  S   S41       1.0  0.63698  0.19109  0.08999  1.0000
  C   C158      1.0  0.54940  0.29813  0.28915  1.0000
  S   S42       1.0  0.90227  0.44252  0.31014  1.0000
  C   C159      1.0  0.66983  0.47683  0.22610  1.0000
  H   H272      1.0  0.79585  0.35926  0.10613  1.0000
  C   C160      1.0  0.73899  0.30908  0.34285  1.0000
  H   H273      1.0  0.74527  0.32744  0.31914  1.0000
  C   C161      1.0  0.75658  0.35110  0.03752  1.0000
  C   C162      1.0  0.71421  0.31801  0.06032  1.0000
  H   H274      1.0  0.75763  0.39976  0.21344  1.0000
  H   H275      1.0  0.75177  0.46878  0.07472  1.0000
  H   H276      1.0  0.96915  0.48092  0.19066  1.0000
  H   H277      1.0  0.58264  0.11326  0.28706  1.0000
  H   H278      1.0  0.62087  0.29034  0.04999  1.0000
  H   H279      1.0  0.53599  0.36002  0.26995  1.0000
  S   S43       1.0  0.57756  0.07413  0.10407  1.0000
  H   H280      1.0  0.70224  0.37896  0.12578  1.0000
  H   H281      1.0  0.84478  0.35028  0.28308  1.0000
  H   H282      1.0  0.68496  0.29334  0.04579  1.0000
  H   H283      1.0  0.74832  0.29989  0.26586  1.0000
  H   H284      1.0  0.70542  0.32864  0.23720  1.0000
  C   C163      1.0  0.81127  0.33487  0.29262  1.0000
  C   C164      1.0  0.60431  0.36657  0.25797  1.0000
  S   S44       1.0  0.93447  0.47315  0.12181  1.0000
  S   S45       1.0  0.86537  0.46920  0.05442  1.0000
  N   N12       1.0  0.79696  0.30761  0.32500  1.0000
  H   H285      1.0  0.84257  0.37423  0.12655  1.0000
  H   H286      1.0  0.61245  0.09091  0.25641  1.0000
  C   C165      1.0  0.58731  0.00783  0.04318  1.0000
  H   H287      1.0  0.78109  0.47134  0.33594  1.0000
  C   C166      1.0  0.66004  0.39718  0.32398  1.0000
  H   H288      1.0  0.69219  0.32888  0.19278  1.0000
  C   C167      1.0  0.63816  0.36907  0.23763  1.0000
  H   H289      1.0  0.75348  0.42948  0.13490  1.0000
  H   H290      1.0  0.72756  0.26112  0.31592  1.0000
  Fe  Fe22      1.0  0.64284  0.47687  0.06793  1.0000
  H   H291      1.0  0.54462  0.17186  0.24428  1.0000
  C   C168      1.0  0.92851  0.47474  0.27192  1.0000
  C   C169      1.0  0.80271  0.47000  0.06585  1.0000
  H   H292      1.0  0.67521  0.41774  0.29997  1.0000
  C   C170      1.0  0.57740  0.07346  0.25236  1.0000
  C   C171      1.0  0.56798  0.35734  0.31414  1.0000
  S   S46       1.0  0.61020  0.23499  0.16703  1.0000
  H   H293      1.0  0.57717  0.35382  0.23985  1.0000
  H   H294      1.0  0.72720  0.34680  0.13729  1.0000
  C   C172      1.0  0.71749  0.33491  0.20920  1.0000
  Fe  Fe23      1.0  0.93158  0.49526  0.06999  1.0000
  C   C173      1.0  0.73068  0.39665  0.14312  1.0000
  C   C174      1.0  0.59718  0.06063  0.07350  1.0000
  H   H295      1.0  0.84232  0.41216  0.11449  1.0000
  C   C175      1.0  0.93610  0.46235  0.24201  1.0000
  N   N13       1.0  0.52348  0.08240  0.25873  1.0000
  H   H296      1.0  0.77026  0.39251  0.11349  1.0000
  H   H297      1.0  0.88384  0.49166  0.18767  1.0000
  H   H298      1.0  0.52291  0.29120  0.27373  1.0000
  H   H299      1.0  0.77918  0.34707  0.04255  1.0000
  H   H300      1.0  0.62197  0.46672  0.31884  1.0000
  H   H301      1.0  0.62090  0.39874  0.26144  1.0000
  H   H302      1.0  0.77263  0.38095  0.04907  1.0000
  N   N14       1.0  0.78429  0.39306  0.16828  1.0000
  C   C176      1.0  0.80090  0.37298  0.16224  1.0000
  C   C177      1.0  0.76237  0.37974  0.20472  1.0000
  C   C178      1.0  0.82139  0.43914  0.16624  1.0000
  C   C179      1.0  0.75285  0.38062  0.13994  1.0000
  C   C180      1.0  0.82158  0.38051  0.12519  1.0000
  C   C181      1.0  0.64885  0.07929  0.02672  1.0000
  C   C182      1.0  0.85953  0.45774  0.19092  1.0000
  H   H303      1.0  0.83631  0.34169  0.01916  1.0000
  H   H304      1.0  0.82474  0.38173  0.18235  1.0000
  H   H305      1.0  0.77397  0.33926  0.16590  1.0000
  H   H306      1.0  0.63495  0.34094  0.30360  1.0000
  H   H307      1.0  0.78382  0.38341  0.22469  1.0000
  H   H308      1.0  0.83562  0.45071  0.13881  1.0000
  H   H309      1.0  0.80914  0.45362  0.17268  1.0000
  C   C183      1.0  0.69647  0.49322  0.25550  1.0000
  H   H310      1.0  0.88683  0.36110  0.32404  1.0000
  H   H311      1.0  0.54286  0.13250  0.28942  1.0000
  C   C184      1.0  0.62470  0.03792  0.02158  1.0000
  C   C185      1.0  0.84569  0.48949  0.07248  1.0000
  C   C186      1.0  0.52426  0.11563  0.26542  1.0000
  C   C187      1.0  0.75003  0.28367  0.33597  1.0000
  H   H312      1.0  0.98805  0.45982  0.32163  1.0000
  H   H313      1.0  0.59350  0.39090  0.31760  1.0000
  H   H314      1.0  0.71187  0.02007  0.03297  1.0000
  H   H315      1.0  0.52300  0.36521  0.31302  1.0000
  H   H316      1.0  0.65022  0.40792  0.34324  1.0000
  H   H317      1.0  0.53075  0.24317  0.27052  1.0000
  H   H318      1.0  0.53183  0.08564  0.20148  1.0000
  H   H319      1.0  0.79629  0.23035  0.33832  1.0000
  H   H320      1.0  0.60605  0.33433  0.34154  1.0000
  H   H321      1.0  0.53843  0.07439  0.33216  1.0000
  H   H322      1.0  0.55712  0.34312  0.34149  1.0000
  H   H323      1.0  0.84199  0.40081  0.01284  1.0000
  Fe  Fe24      1.0  0.63183  0.21354  0.47516  1.0000
  H   H324      1.0  0.67798  0.07223  0.53316  1.0000
  S   S47       1.0  0.62356  0.25143  0.50343  1.0000
  Fe  Fe25      1.0  0.60671  0.13189  0.47525  1.0000
  S   S48       1.0  0.64732  0.14941  0.42562  1.0000
  S   S49       1.0  0.56312  0.06958  0.50393  1.0000
  Fe  Fe26      1.0  0.69762  0.21001  0.45075  1.0000
  S   S50       1.0  0.76929  0.24617  0.44496  1.0000
  H   H325      1.0  0.95478  0.39603  0.47572  1.0000
  S   S51       1.0  0.65919  0.19092  0.50199  1.0000
  H   H326      1.0  0.76364  0.37723  0.49068  1.0000
  Fe  Fe27      1.0  0.61668  0.40418  0.42546  1.0000
  S   S52       1.0  0.68809  0.44877  0.41071  1.0000
  S   S53       1.0  0.58088  0.33895  0.41343  1.0000
  H   H327      1.0  0.83949  0.47405  0.50622  1.0000
  H   H328      1.0  0.88455  0.38127  0.54068  1.0000
  S   S54       1.0  0.63548  0.00032  0.57776  1.0000
  S   S55       1.0  0.60431  0.43595  0.39104  1.0000
  S   S56       1.0  0.62563  0.43637  0.47481  1.0000
  H   H329      1.0  0.80351  0.43845  0.45901  1.0000
  S   S57       1.0  0.86364  0.42420  0.48551  1.0000
  Fe  Fe28      1.0  0.61982  0.47262  0.43895  1.0000
  C   C188      1.0  0.96321  0.40653  0.50331  1.0000
  C   C189      1.0  0.58518  0.05320  0.52640  1.0000
  C   C190      1.0  0.62895  0.07307  0.52125  1.0000
  C   C191      1.0  0.64419  0.05694  0.53759  1.0000
  C   C192      1.0  0.61576  0.02076  0.55888  1.0000
  H   H330      1.0  0.58330  0.32919  0.48895  1.0000
  C   C193      1.0  0.55720  0.01785  0.54863  1.0000
  S   S58       1.0  0.57577  0.15285  0.45266  1.0000
  H   H331      1.0  0.59982  0.29452  0.52375  1.0000
  H   H332      1.0  0.99012  0.46575  0.48676  1.0000
  C   C194      1.0  0.79806  0.29508  0.46009  1.0000
  C   C195      1.0  0.77769  0.30130  0.48376  1.0000
  C   C196      1.0  0.79929  0.34099  0.49323  1.0000
  C   C197      1.0  0.83995  0.37464  0.47719  1.0000
  C   C198      1.0  0.86097  0.36837  0.45441  1.0000
  C   C199      1.0  0.84058  0.32851  0.44677  1.0000
  H   H333      1.0  0.74522  0.27552  0.49477  1.0000
  H   H334      1.0  0.78377  0.34541  0.51222  1.0000
  H   H335      1.0  0.89299  0.39401  0.44289  1.0000
  S   S59       1.0  0.60202  0.17454  0.35008  1.0000
  C   C200      1.0  0.59314  0.31501  0.43848  1.0000
  C   C201      1.0  0.59194  0.31469  0.47548  1.0000
  H   H336      1.0  0.65048  0.39158  0.51250  1.0000
  C   C202      1.0  0.61097  0.27486  0.47791  1.0000
  C   C203      1.0  0.61156  0.27467  0.44089  1.0000
  C   C204      1.0  0.60241  0.29450  0.42124  1.0000
  H   H337      1.0  0.61872  0.25897  0.42742  1.0000
  H   H338      1.0  0.60244  0.29381  0.39267  1.0000
  H   H339      1.0  0.77667  0.46697  0.51753  1.0000
  H   H340      1.0  0.71238  0.42823  0.47021  1.0000
  H   H341      1.0  0.67993  0.37500  0.47161  1.0000
  S   S60       1.0  0.94955  0.46925  0.40504  1.0000
  N   N15       1.0  0.74512  0.41101  0.49132  1.0000
  Fe  Fe29      1.0  0.69660  0.48381  0.45647  1.0000
  H   H342      1.0  0.67455  0.12075  0.64407  1.0000
  H   H343      1.0  0.70997  0.34900  0.47639  1.0000
  H   H344      1.0  0.68237  0.33752  0.53854  1.0000
  C   C205      1.0  0.73393  0.37152  0.49608  1.0000
  H   H345      1.0  0.74371  0.38110  0.42295  1.0000
  H   H346      1.0  0.75121  0.42468  0.54700  1.0000
  H   H347      1.0  0.70113  0.43005  0.53273  1.0000
  C   C206      1.0  0.77049  0.43901  0.52155  1.0000
  H   H348      1.0  0.73734  0.36761  0.55428  1.0000
  C   C207      1.0  0.60630  0.06013  0.65082  1.0000
  H   H349      1.0  0.70341  0.28769  0.34998  1.0000
  H   H350      1.0  0.87530  0.37755  0.58736  1.0000
  Fe  Fe30      1.0  0.62149  0.17588  0.40558  1.0000
  C   C208      1.0  0.87369  0.35440  0.35158  1.0000
  C   C209      1.0  0.77345  0.43274  0.45780  1.0000
  H   H351      1.0  0.82840  0.47045  0.55248  1.0000
  C   C210      1.0  0.64157  0.10724  0.65284  1.0000
  H   H352      1.0  0.93399  0.43044  0.49790  1.0000
  H   H353      1.0  0.87782  0.33591  0.36618  1.0000
  H   H354      1.0  0.70993  0.32153  0.53216  1.0000
  H   H355      1.0  0.65085  0.10044  0.50422  1.0000
  C   C211      1.0  0.71492  0.34899  0.53257  1.0000
  H   H356      1.0  0.67145  0.37666  0.53997  1.0000
  H   H357      1.0  0.78502  0.46336  0.45423  1.0000
  H   H358      1.0  0.60600  0.05329  0.62257  1.0000
  C   C212      1.0  0.96542  0.44173  0.50692  1.0000
  H   H359      1.0  0.65289  0.00512  0.65724  1.0000
  C   C213      1.0  0.75156  0.41003  0.42322  1.0000
  H   H360      1.0  0.74026  0.26517  0.36088  1.0000
  C   C214      1.0  0.81494  0.45301  0.52788  1.0000
  Fe  Fe31      1.0  0.67668  0.48257  0.37930  1.0000
  H   H361      1.0  0.85687  0.32358  0.42935  1.0000
  S   S61       1.0  0.67535  0.23805  0.42652  1.0000
  H   H362      1.0  0.95032  0.44056  0.59722  1.0000
  H   H363      1.0  0.66747  0.06356  0.63951  1.0000
  C   C215      1.0  0.89507  0.39964  0.56451  1.0000
  C   C216      1.0  0.60099  0.29481  0.49511  1.0000
  H   H364      1.0  0.81121  0.31547  0.38031  1.0000
  H   H365      1.0  0.77491  0.42975  0.40052  1.0000
  H   H366      1.0  0.81155  0.42667  0.53166  1.0000
  C   C217      1.0  0.57230  0.00159  0.56460  1.0000
  C   C218      1.0  0.94416  0.42672  0.57111  1.0000
  H   H367      1.0  0.52341  0.00258  0.55298  1.0000
  C   C219      1.0  0.68097  0.40002  0.52020  1.0000
  S   S62       1.0  0.87331  0.47016  0.39360  1.0000
  H   H368      1.0  0.58484  0.47441  0.52340  1.0000
  Fe  Fe32      1.0  0.92260  0.47795  0.35982  1.0000
  H   H369      1.0  0.88662  0.41783  0.56215  1.0000
  H   H370      1.0  0.72162  0.40368  0.41839  1.0000
  C   C220      1.0  0.70443  0.40305  0.48662  1.0000
  H   H371      1.0  0.89496  0.38417  0.36477  1.0000
  C   C221      1.0  0.65757  0.05501  0.66824  1.0000
  H   H372      1.0  0.94965  0.40624  0.57517  1.0000
  Fe  Fe33      1.0  0.90484  0.46785  0.43914  1.0000
  H   H373      1.0  0.93733  0.37958  0.52088  1.0000
  C   C222      1.0  0.82565  0.33404  0.35500  1.0000
  H   H374      1.0  0.57439  0.05056  0.65641  1.0000
  H   H375      1.0  0.54110  0.00079  0.43575  1.0000
  H   H376      1.0  0.63326  0.12020  0.63439  1.0000
  C   C223      1.0  0.79050  0.24938  0.34759  1.0000
  H   H377      1.0  0.75565  0.22777  0.35690  1.0000
  H   H378      1.0  0.81174  0.26635  0.37030  1.0000
  H   H379      1.0  0.94007  0.47640  0.52981  1.0000
  H   H380      1.0  0.66072  0.16256  0.34756  1.0000
  H   H381      1.0  0.82681  0.35908  0.35832  1.0000
  N   N16       1.0  0.97553  0.45953  0.54298  1.0000
  H   H382      1.0  0.99517  0.41653  0.50782  1.0000
  H   H383      1.0  0.75677  0.32910  0.36559  1.0000
  C   C224      1.0  0.97127  0.48989  0.54192  1.0000
  N   N17       1.0  0.61167  0.03694  0.67482  1.0000
  H   H384      1.0  0.70173  0.04700  0.67786  1.0000
  C   C225      1.0  0.66585  0.02780  0.67785  1.0000
  S   S63       1.0  0.58474  0.49337  0.44910  1.0000
  H   H385      1.0  0.79911  0.41946  0.99776  1.0000
  C   C226      1.0  0.79291  0.39470  0.98354  1.0000
  S   S64       1.0  0.64198  0.02519  0.98756  1.0000
  H   H386      1.0  0.83620  0.38586  0.96738  1.0000
  H   H387      1.0  0.71167  0.34951  0.96042  1.0000
  C   C227      1.0  0.74810  0.32159  0.97948  1.0000
  H   H388      1.0  0.67642  0.27079  0.97299  1.0000
  H   H389      1.0  0.72670  0.99649  0.96325  1.0000
  H   H390      1.0  0.86385  0.43711  0.97707  1.0000
  H   H391      1.0  0.63598  0.03224  0.75056  1.0000
  H   H392      1.0  0.65192  0.01184  0.70409  1.0000
  C   C228      1.0  0.57403  0.04146  0.93533  1.0000
  C   C229      1.0  0.60269  0.01640  0.74181  1.0000
  H   H393      1.0  0.77354  0.32231  0.98833  1.0000
  H   H394      1.0  0.64273  0.11740  0.67962  1.0000
  H   H395      1.0  0.70710  0.25769  0.96833  1.0000
  H   H396      1.0  0.00508  0.44199  0.95915  1.0000
  C   C230      1.0  0.71354  0.34768  0.98966  1.0000
  H   H397      1.0  0.57493  0.03663  0.71604  1.0000
  H   H398      1.0  0.63164  0.07441  0.71998  1.0000
  H   H399      1.0  0.68242  0.36968  0.99995  1.0000
  C   C231      1.0  0.52687  0.06027  0.99419  1.0000
  H   H400      1.0  0.68171  0.31707  0.99817  1.0000
  H   H401      1.0  0.58989  0.06994  0.94927  1.0000
  C   C232      1.0  0.70428  0.27641  0.98375  1.0000
  H   H402      1.0  0.78934  0.39905  0.95526  1.0000
  H   H403      1.0  0.74037  0.41003  0.99444  1.0000
  H   H404      1.0  0.58706  0.05068  0.90747  1.0000
  H   H405      1.0  0.58426  0.02675  0.94696  1.0000
  C   C233      1.0  0.60476  0.04204  0.71263  1.0000
  C   C234      1.0  0.83575  0.40450  0.98549  1.0000
  H   H406      1.0  0.75436  0.32901  0.95042  1.0000
  H   H407      1.0  0.58312  0.01181  0.76504  1.0000
  C   C235      1.0  0.52371  0.01215  0.93579  1.0000
  N   N18       1.0  0.75181  0.35292  0.99825  1.0000
  C   C236      1.0  0.71362  0.37859  0.00596  1.0000
  H   H408      1.0  0.68175  0.08393  0.68250  1.0000
  H   H409      1.0  0.74828  0.04487  0.97613  1.0000
  H   H410      1.0  0.52985  0.06914  0.96601  1.0000
  C   C237      1.0  0.73840  0.01622  0.98632  1.0000
  H   H411      1.0  0.55622  0.03661  0.00422  1.0000
  C   C238      1.0  0.52303  0.02410  0.99979  1.0000
  H   H412      1.0  0.76800  0.02470  0.99644  1.0000
  H   H413      1.0  0.69702  0.26439  0.01140  1.0000
  H   H414      1.0  0.55721  0.08779  0.00640  1.0000
  H   H415      1.0  0.51629  0.02916  0.92358  1.0000
  H   H416      1.0  0.67802  0.10274  0.01034  1.0000
  H   H417      1.0  0.79964  0.52217  0.24876  1.0000
  C   C239      1.0  0.79200  0.49598  0.31671  1.0000
  H   H418      1.0  0.70076  0.90547  0.05046  1.0000
  H   H419      1.0  0.54574  0.56172  0.05538  1.0000
  H   H420      1.0  0.78776  0.64552  0.07405  1.0000
  S   S65       1.0  0.67544  0.50812  0.11873  1.0000
  H   H421      1.0  0.64364  0.55197  0.07376  1.0000
  H   H422      1.0  0.56894  0.97589  0.03992  1.0000
  C   C240      1.0  0.63509  0.55733  0.04928  1.0000
  H   H423      1.0  0.69934  0.94580  0.08647  1.0000
  H   H424      1.0  0.88129  0.57760  0.19924  1.0000
  C   C241      1.0  0.63365  0.58738  0.04693  1.0000
  H   H425      1.0  0.71600  0.55580  0.05153  1.0000
  H   H426      1.0  0.82110  0.59016  0.31870  1.0000
  C   C242      1.0  0.62244  0.59458  0.01531  1.0000
  H   H427      1.0  0.82679  0.55414  0.19212  1.0000
  N   N19       1.0  0.77134  0.59989  0.01544  1.0000
  H   H428      1.0  0.92714  0.56481  0.31600  1.0000
  H   H429      1.0  0.64103  0.60500  0.06979  1.0000
  H   H430      1.0  0.71498  0.99291  0.08345  1.0000
  H   H431      1.0  0.85476  0.66243  0.06433  1.0000
  H   H432      1.0  0.83118  0.60556  0.27312  1.0000
  C   C243      1.0  0.86587  0.58859  0.29178  1.0000
  H   H433      1.0  0.01283  0.50977  0.27987  1.0000
  N   N20       1.0  0.86029  0.55468  0.27674  1.0000
  H   H434      1.0  0.98293  0.57198  0.24341  1.0000
  H   H435      1.0  0.83120  0.51287  0.23376  1.0000
  H   H436      1.0  0.64281  0.87359  0.04397  1.0000
  C   C244      1.0  0.63107  0.95594  0.07012  1.0000
  C   C245      1.0  0.94457  0.51392  0.27199  1.0000
  C   C246      1.0  0.81073  0.51929  0.10015  1.0000
  C   C247      1.0  0.82564  0.58324  0.29209  1.0000
  H   H437      1.0  0.89266  0.61805  0.27683  1.0000
  C   C248      1.0  0.96976  0.54136  0.24299  1.0000
  H   H438      1.0  0.94211  0.61300  0.31130  1.0000
  S   S66       1.0  0.99442  0.56043  0.07647  1.0000
  C   C249      1.0  0.97867  0.52961  0.21357  1.0000
  H   H439      1.0  0.90245  0.54811  0.25404  1.0000
  C   C250      1.0  0.62561  0.53445  0.01985  1.0000
  C   C251      1.0  0.93738  0.58919  0.29695  1.0000
  C   C252      1.0  0.90517  0.57178  0.26663  1.0000
  N   N21       1.0  0.68671  0.95888  0.03572  1.0000
  H   H440      1.0  0.93778  0.52312  0.29455  1.0000
  H   H441      1.0  0.92227  0.59742  0.24652  1.0000
  C   C253      1.0  0.63989  0.93343  0.04875  1.0000
  H   H442      1.0  0.77911  0.54406  0.03823  1.0000
  C   C254      1.0  0.85201  0.56864  0.21251  1.0000
  H   H443      1.0  0.97006  0.60395  0.28570  1.0000
  H   H444      1.0  0.55779  0.76999  0.01708  1.0000
  H   H445      1.0  0.87381  0.56574  0.12291  1.0000
  C   C255      1.0  0.85385  0.53887  0.10713  1.0000
  H   H446      1.0  0.74641  0.60292  0.10335  1.0000
  H   H447      1.0  0.87691  0.59398  0.31952  1.0000
  H   H448      1.0  0.76544  0.57504  0.06793  1.0000
  H   H449      1.0  0.90458  0.53900  0.09876  1.0000
  S   S67       1.0  0.78863  0.53790  0.11696  1.0000
  C   C256      1.0  0.75142  0.58437  0.05252  1.0000
  H   H450      1.0  0.85842  0.53215  0.32861  1.0000
  H   H451      1.0  0.73030  0.61531  0.06731  1.0000
  H   H452      1.0  0.61777  0.92003  0.02601  1.0000
  C   C257      1.0  0.67594  0.89555  0.03101  1.0000
  C   C258      1.0  0.83957  0.52035  0.30407  1.0000
  H   H453      1.0  0.79425  0.55245  0.28651  1.0000
  C   C259      1.0  0.87129  0.52381  0.09347  1.0000
  Fe  Fe34      1.0  0.99968  0.53669  0.12651  1.0000
  H   H454      1.0  0.64801  0.96661  0.09553  1.0000
  C   C260      1.0  0.75456  0.61419  0.07521  1.0000
  H   H455      1.0  0.62774  0.90692  0.06592  1.0000
  H   H456      1.0  0.85976  0.59632  0.22065  1.0000
  H   H457      1.0  0.84036  0.49789  0.29416  1.0000
  H   H458      1.0  0.53855  0.50891  0.08576  1.0000
  C   C261      1.0  0.83397  0.53752  0.24371  1.0000
  H   H459      1.0  0.76812  0.98427  0.03744  1.0000
  H   H460      1.0  0.53610  0.50455  0.03910  1.0000
  H   H461      1.0  0.59538  0.93420  0.07683  1.0000
  C   C262      1.0  0.71425  0.97208  0.06756  1.0000
  H   H462      1.0  0.73036  0.50875  0.25211  1.0000
  S   S68       1.0  0.71227  0.50691  0.32596  1.0000
  H   H463      1.0  0.78956  0.51524  0.33138  1.0000
  S   S69       1.0  0.61979  0.63180  0.01396  1.0000
  H   H464      1.0  0.77465  0.99019  0.08331  1.0000
  H   H465      1.0  0.63976  0.98193  0.05476  1.0000
  C   C263      1.0  0.70145  0.99572  0.01492  1.0000
  H   H466      1.0  0.82401  0.66564  0.01745  1.0000
  C   C264      1.0  0.76272  0.99531  0.06030  1.0000
  S   S70       1.0  0.01298  0.56572  0.17886  1.0000
  H   H467      1.0  0.83406  0.61278  0.05566  1.0000
  C   C265      1.0  0.84764  0.64199  0.04325  1.0000
  H   H468      1.0  0.52459  0.59600  0.07487  1.0000
  C   C266      1.0  0.51801  0.50114  0.06292  1.0000
  S   S71       1.0  0.62945  0.49806  0.02051  1.0000
  H   H469      1.0  0.88007  0.65702  0.03112  1.0000
  C   C267      1.0  0.81958  0.63858  0.01453  1.0000
  Fe  Fe35      1.0  0.58848  0.93519  0.60103  1.0000
  H   H470      1.0  0.77838  0.66010  0.52063  1.0000
  Fe  Fe36      1.0  0.57622  0.86450  0.63355  1.0000
  C   C268      1.0  0.58151  0.54159  0.48812  1.0000
  S   S72       1.0  0.59829  0.83626  0.65899  1.0000
  S   S73       1.0  0.97385  0.54644  0.36120  1.0000
  C   C269      1.0  0.60185  0.94947  0.49391  1.0000
  S   S74       1.0  0.75334  0.51214  0.49142  1.0000
  S   S75       1.0  0.57999  0.88484  0.57763  1.0000
  S   S76       1.0  0.59356  0.91944  0.65596  1.0000
  Fe  Fe37      1.0  0.54695  0.58665  0.59780  1.0000
  H   H471      1.0  0.83580  0.53697  0.50550  1.0000
  S   S77       1.0  0.57423  0.55780  0.59270  1.0000
  Fe  Fe38      1.0  0.55484  0.65784  0.58504  1.0000
  H   H472      1.0  0.56701  0.71248  0.63567  1.0000
  S   S78       1.0  0.59472  0.72170  0.56216  1.0000
  N   N22       1.0  0.73677  0.59471  0.52032  1.0000
  H   H473      1.0  0.57747  0.57895  0.51832  1.0000
  H   H474      1.0  0.68055  0.54766  0.48962  1.0000
  S   S79       1.0  0.57754  0.64283  0.62881  1.0000
  H   H475      1.0  0.55406  0.93873  0.52779  1.0000
  S   S80       1.0  0.69170  0.52203  0.42385  1.0000
  S   S81       1.0  0.95384  0.53537  0.44721  1.0000
  H   H476      1.0  0.80768  0.59521  0.52112  1.0000
  H   H477      1.0  0.82917  0.64623  0.52494  1.0000
  C   C270      1.0  0.72506  0.63490  0.55693  1.0000
  Fe  Fe39      1.0  0.92641  0.53810  0.39848  1.0000
  S   S82       1.0  0.90981  0.57489  0.38884  1.0000
  H   H478      1.0  0.65974  0.53363  0.56543  1.0000
  C   C271      1.0  0.79941  0.53404  0.46400  1.0000
  C   C272      1.0  0.79952  0.54163  0.42795  1.0000
  C   C273      1.0  0.83437  0.55561  0.40531  1.0000
  C   C274      1.0  0.86837  0.56044  0.41829  1.0000
  C   C275      1.0  0.86878  0.55354  0.45446  1.0000
  C   C276      1.0  0.83496  0.54157  0.47750  1.0000
  H   H479      1.0  0.78018  0.62926  0.47382  1.0000
  H   H480      1.0  0.83440  0.56177  0.37757  1.0000
  H   H481      1.0  0.53059  0.79327  0.56036  1.0000
  C   C277      1.0  0.57811  0.54097  0.55245  1.0000
  Fe  Fe40      1.0  0.99662  0.53717  0.40945  1.0000
  H   H482      1.0  0.53760  0.89349  0.51474  1.0000
  H   H483      1.0  0.69262  0.60521  0.56593  1.0000
  H   H484      1.0  0.74020  0.65354  0.58082  1.0000
  C   C278      1.0  0.57883  0.55605  0.51954  1.0000
  H   H485      1.0  0.52135  0.95647  0.41358  1.0000
  H   H486      1.0  0.77276  0.53677  0.41736  1.0000
  H   H487      1.0  0.75514  0.57775  0.47709  1.0000
  H   H488      1.0  0.53674  0.74488  0.55097  1.0000
  C   C279      1.0  0.59750  0.80461  0.63201  1.0000
  C   C280      1.0  0.58105  0.76716  0.64602  1.0000
  C   C281      1.0  0.58039  0.74161  0.62488  1.0000
  C   C282      1.0  0.59753  0.75408  0.58999  1.0000
  C   C283      1.0  0.61542  0.79222  0.57646  1.0000
  C   C284      1.0  0.61449  0.81701  0.59714  1.0000
  H   H489      1.0  0.72065  0.65146  0.53911  1.0000
  H   H490      1.0  0.75464  0.57293  0.55910  1.0000
  H   H491      1.0  0.62899  0.80211  0.54959  1.0000
  H   H492      1.0  0.62790  0.84618  0.58640  1.0000
  H   H493      1.0  0.71297  0.53493  0.53045  1.0000
  N   N23       1.0  0.52688  0.92170  0.47582  1.0000
  H   H494      1.0  0.89550  0.55803  0.46469  1.0000
  H   H495      1.0  0.77865  0.63859  0.56037  1.0000
  H   H496      1.0  0.83603  0.63090  0.48462  1.0000
  S   S83       1.0  0.51691  0.89866  0.60739  1.0000
  H   H497      1.0  0.58166  0.55316  0.46275  1.0000
  C   C285      1.0  0.69644  0.57756  0.50095  1.0000
  H   H498      1.0  0.52319  0.69089  0.51820  1.0000
  C   C286      1.0  0.52613  0.90277  0.44305  1.0000
  C   C287      1.0  0.81288  0.62016  0.50737  1.0000
  H   H499      1.0  0.67170  0.59309  0.46251  1.0000
  C   C288      1.0  0.72528  0.56196  0.54543  1.0000
  C   C289      1.0  0.76987  0.60484  0.49306  1.0000
  C   C290      1.0  0.55327  0.92423  0.50409  1.0000
  H   H500      1.0  0.71910  0.60477  0.44668  1.0000
  C   C291      1.0  0.75693  0.63302  0.53949  1.0000
  C   C292      1.0  0.69118  0.54595  0.57539  1.0000
  C   C293      1.0  0.58067  0.51173  0.55360  1.0000
  H   H501      1.0  0.56830  0.75766  0.67311  1.0000
  C   C294      1.0  0.70387  0.60521  0.47055  1.0000
  H   H502      1.0  0.60733  0.94639  0.46612  1.0000
  H   H503      1.0  0.55011  0.97420  0.58126  1.0000
  H   H504      1.0  0.72398  0.63715  0.47841  1.0000
  H   H505      1.0  0.70415  0.56968  0.59496  1.0000
  H   H506      1.0  0.67087  0.57022  0.51895  1.0000
  H   H507      1.0  0.53405  0.74704  0.50440  1.0000
  H   H508      1.0  0.61358  0.93828  0.51018  1.0000
  H   H509      1.0  0.57156  0.81272  0.52694  1.0000
  C   C295      1.0  0.52298  0.96793  0.43980  1.0000
  H   H510      1.0  0.68376  0.52016  0.59000  1.0000
  H   H511      1.0  0.55775  0.92467  0.42747  1.0000
  S   S84       1.0  0.52974  0.60484  0.55192  1.0000
  C   C296      1.0  0.58396  0.51227  0.48927  1.0000
  H   H512      1.0  0.99990  0.54917  0.52029  1.0000
  H   H513      1.0  0.62259  0.98245  0.49865  1.0000
  C   C297      1.0  0.52990  0.97105  0.66909  1.0000
  H   H514      1.0  0.55272  0.98081  0.49025  1.0000
  H   H515      1.0  0.96884  0.49747  0.56901  1.0000
  C   C298      1.0  0.51523  0.86278  0.44939  1.0000
  Fe  Fe41      1.0  0.52105  0.87919  0.66081  1.0000
  H   H516      1.0  0.52024  0.79390  0.51408  1.0000
  C   C299      1.0  0.54774  0.96450  0.46623  1.0000
  C   C300      1.0  0.53567  0.78860  0.53289  1.0000
  C   C301      1.0  0.51987  0.74627  0.52985  1.0000
  H   H517      1.0  0.54104  0.86793  0.46411  1.0000
  C   C302      1.0  0.00806  0.53062  0.52097  1.0000
  C   C303      1.0  0.57825  0.99281  0.66468  1.0000
  C   C304      1.0  0.58356  0.49738  0.52217  1.0000
  H   H518      1.0  0.57991  0.49978  0.57899  1.0000
  H   H519      1.0  0.52167  0.98386  0.65049  1.0000
  H   H520      1.0  0.58137  0.98323  0.45442  1.0000
  H   H521      1.0  0.01148  0.52579  0.49310  1.0000
  H   H522      1.0  0.58428  0.99040  0.63668  1.0000
  Fe  Fe42      1.0  0.58427  0.64242  0.88734  1.0000
  S   S85       1.0  0.64079  0.68945  0.92133  1.0000
  H   H523      1.0  0.52098  0.97120  0.69676  1.0000
  H   H524      1.0  0.60619  0.62515  0.76021  1.0000
  S   S86       1.0  0.56805  0.66948  0.97765  1.0000
  Fe  Fe43      1.0  0.60665  0.71063  0.92952  1.0000
  S   S87       1.0  0.63993  0.77607  0.91936  1.0000
  Fe  Fe44      1.0  0.59721  0.64376  0.96635  1.0000
  H   H525      1.0  0.57025  0.74316  0.76787  1.0000
  S   S88       1.0  0.54306  0.59494  0.93160  1.0000
  C   C305      1.0  0.58947  0.77898  0.82595  1.0000
  Fe  Fe45      1.0  0.57764  0.91688  0.89852  1.0000
  H   H526      1.0  0.74587  0.59578  0.94050  1.0000
  H   H527      1.0  0.77367  0.57524  0.96790  1.0000
  H   H528      1.0  0.60261  0.80291  0.80526  1.0000
  Fe  Fe46      1.0  0.59528  0.96212  0.96535  1.0000
  Fe  Fe47      1.0  0.56392  0.87819  0.97068  1.0000
  H   H529      1.0  0.62621  0.80393  0.74615  1.0000
  S   S89       1.0  0.55561  0.94684  0.91774  1.0000
  H   H530      1.0  0.60750  0.52440  0.96526  1.0000
  S   S90       1.0  0.62220  0.93737  0.94336  1.0000
  C   C306      1.0  0.61648  0.79094  0.94179  1.0000
  C   C307      1.0  0.62385  0.82433  0.92828  1.0000
  C   C308      1.0  0.60667  0.83760  0.94634  1.0000
  C   C309      1.0  0.58320  0.81830  0.97856  1.0000
  H   H531      1.0  0.74396  0.63290  0.94840  1.0000
  C   C310      1.0  0.59181  0.77086  0.97347  1.0000
  H   H532      1.0  0.64305  0.84007  0.90387  1.0000
  H   H533      1.0  0.61254  0.86338  0.93569  1.0000
  H   H534      1.0  0.77437  0.52654  0.99526  1.0000
  H   H535      1.0  0.61148  0.74470  0.71854  1.0000
  S   S91       1.0  0.60338  0.92176  0.84428  1.0000
  H   H536      1.0  0.67371  0.98751  0.00058  1.0000
  H   H537      1.0  0.56572  0.80053  0.74980  1.0000
  H   H538      1.0  0.75200  0.63325  0.00976  1.0000
  H   H539      1.0  0.60426  0.57690  0.96146  1.0000
  C   C311      1.0  0.56620  0.62120  0.79980  1.0000
  H   H540      1.0  0.79513  0.64739  0.95202  1.0000
  H   H541      1.0  0.66911  0.84430  0.77395  1.0000
  H   H542      1.0  0.55514  0.82374  0.77855  1.0000
  C   C312      1.0  0.52967  0.61553  0.80597  1.0000
  S   S92       1.0  0.59881  0.63075  0.83476  1.0000
  C   C313      1.0  0.55383  0.61556  0.73654  1.0000
  H   H543      1.0  0.58635  0.74536  0.98421  1.0000
  H   H544      1.0  0.52660  0.58482  0.01044  1.0000
  H   H545      1.0  0.55526  0.69795  0.72331  1.0000
  C   C314      1.0  0.76295  0.56629  0.99625  1.0000
  C   C315      1.0  0.57079  0.90897  0.80822  1.0000
  C   C316      1.0  0.58176  0.90347  0.77562  1.0000
  C   C317      1.0  0.55645  0.89283  0.74622  1.0000
  S   S93       1.0  0.55359  0.66708  0.89217  1.0000
  H   H546      1.0  0.56406  0.88663  0.72193  1.0000
  N   N24       1.0  0.62320  0.75483  0.79452  1.0000
  C   C318      1.0  0.63188  0.72879  0.80510  1.0000
  C   C319      1.0  0.58249  0.72854  0.77305  1.0000
  C   C320      1.0  0.61569  0.76704  0.82822  1.0000
  C   C321      1.0  0.66287  0.79199  0.77361  1.0000
  C   C322      1.0  0.67001  0.74822  0.83014  1.0000
  C   C323      1.0  0.78624  0.55352  0.00980  1.0000
  S   S94       1.0  0.56452  0.83655  0.00296  1.0000
  C   C324      1.0  0.65908  0.82025  0.75584  1.0000
  H   H547      1.0  0.60220  0.69964  0.81859  1.0000
  H   H548      1.0  0.63915  0.71971  0.78161  1.0000
  C   C325      1.0  0.74703  0.60855  0.99680  1.0000
  H   H549      1.0  0.55502  0.69945  0.78819  1.0000
  H   H550      1.0  0.59753  0.74160  0.84870  1.0000
  H   H551      1.0  0.64747  0.79307  0.84012  1.0000
  H   H552      1.0  0.69143  0.81198  0.79090  1.0000
  H   H553      1.0  0.67407  0.78343  0.75296  1.0000
  H   H554      1.0  0.66477  0.75593  0.85583  1.0000
  H   H555      1.0  0.67197  0.72552  0.83638  1.0000
  H   H556      1.0  0.70210  0.77552  0.81772  1.0000
  H   H557      1.0  0.54410  0.81942  0.73177  1.0000
  H   H558      1.0  0.72704  0.53826  0.99655  1.0000
  H   H559      1.0  0.56335  0.61569  0.70978  1.0000
  C   C326      1.0  0.75933  0.62192  0.95720  1.0000
  C   C327      1.0  0.61458  0.54179  0.98823  1.0000
  C   C328      1.0  0.57802  0.62089  0.76507  1.0000
  H   H560      1.0  0.71110  0.58115  0.99865  1.0000
  H   H561      1.0  0.59115  0.79143  0.85168  1.0000
  S   S95       1.0  0.54070  0.90452  0.99671  1.0000
  C   C329      1.0  0.57572  0.78488  0.99207  1.0000
  C   C330      1.0  0.61278  0.57156  0.98597  1.0000
  H   H562      1.0  0.68100  0.83547  0.73166  1.0000
  H   H563      1.0  0.60958  0.90681  0.77322  1.0000
  H   H564      1.0  0.59568  0.69916  0.73809  1.0000
  C   C331      1.0  0.54262  0.80383  0.75560  1.0000
  H   H565      1.0  0.55425  0.75172  0.82206  1.0000
  H   H566      1.0  0.82215  0.57806  0.00439  1.0000
  C   C332      1.0  0.58722  0.71732  0.73634  1.0000
  C   C333      1.0  0.53433  0.90393  0.81130  1.0000
  H   H567      1.0  0.53442  0.97479  0.98501  1.0000
  H   H568      1.0  0.66296  0.92004  0.99085  1.0000
  S   S96       1.0  0.52145  0.85545  0.92409  1.0000
  H   H569      1.0  0.83494  0.64323  0.98821  1.0000
  H   H570      1.0  0.58540  0.98496  0.73447  1.0000
  C   C334      1.0  0.52088  0.88903  0.74870  1.0000
  H   H571      1.0  0.58118  0.97370  0.67973  1.0000
  H   H572      1.0  0.71864  0.94971  0.99803  1.0000
  H   H573      1.0  0.51954  0.53364  0.98795  1.0000
  H   H574      1.0  0.52563  0.90801  0.83650  1.0000
  H   H575      1.0  0.51978  0.61486  0.83268  1.0000
  Fe  Fe48      1.0  0.51716  0.62400  0.93950  1.0000
  C   C335      1.0  0.51789  0.61077  0.74272  1.0000
  C   C336      1.0  0.68669  0.93228  0.01226  1.0000
  H   H576      1.0  0.67625  0.87823  0.01082  1.0000
