data_image0
_chemical_formula_structural       SC2HFeSFeS3FeS2C6H2C2HCH4NCS2NCH2CH2C3H8C2H3CH4CFeSH3CHCHFeH4C2H2CHCH2CH3CHCH9FeC2H2FeHCH4FeCH4SC2H3FeCHSH4CHCHCSC2HC2HSH2FeH3SHCH3FeC3FeCSCFeH2SHSCSH2S4C2NCHCS2H2FeC2HNHCHSHFeCHCH2C3NCFeH2CHS2CHCHCH6CHCH2SCHCHCFeSCHSFeS2FeS2C6H3CHCNFeSH2CH2CH2CH3NH3CH4C3H3C3H4CH4C3H2CH4CH9C3FeC3H4SH3FeH5SFeH8CHC2H3FeHCHCHCSCH2SHCFeH2S2H2SCH5SC2HCHC4H3S3H3CSC2HCHCHCH2SC3HSC2HC3HCFeCSHFeH2CH6NH2CHCHFeCNH4N2HSH2SH3CHC2HFeH2FeH2CSH2CH5CH2CSC2HSHCNH3CHC2H2CFeC2H2CHC3HC2H6CH2NH2CHFeS2Fe2SFeS4C6H2CH2C2HS3H3C6H5NC8H17C2H11CH3CHCHCH3CH4CH2CHCH6CSH2CFeS2FeSFeSFeS3HSC6H4C6H4C2H2NC3HNC6H13SHCH3CHNCHCH8C2H2CHC2HNH2C2H3CH3CH5C4HNH3C3H4C2HCH3CHCH6CH4CH2CH4C2FeS2FeS2FeSFeS3C6H4C2H4SC6H3CNC8H13NC3H6FeS2FeSFeSFeS3C6H4C6H3C2HC2HNC5H11CH4CH2NH2CH5C3H2CH4CH2CHC2H5CHSCHCHCH3C2H11CH6CHCH3CH11CH2SH9CHC3HCHCH6CSHNCH2SCHCHS2FeS2FeS2FeSFeS3FeS2FeS2FeSFeS3CH3C2H2C2H2CHC6H4C2H3C6H4C6H4C6H4CH7CH2CHNC8H23CH3C2H2CH5C2HCHNCHCH3C2H7NC2HCH3CH2CHNC2NC3H2C2H6CH3C2H4CH3CH3NH3SH2CH3CHCH10CHCH3CHCSH2CNHCH2CH3CH4CH2CH3CHCH3CH4C3H2S4FeS2FeS2FeSFeS3FeS2FeS2FeSFeS3C2HCHC2H2CH4C6H5C3HC6H4C6H4C6H5CHNHCH4CHC4NHCHCHC2H3CH10CHNH9C3NC2HCHC2HCH2C2H3NC8H20C2HCHCHCH2CHCH4CFeH8NC8H23NCH2C3H9FeCH6CH9C2H2C2FeHC2H5SFeSCFeSFeSFeSFeS2FeH2FeS3HFeS2HSFeSFeS2HFeS2FeS2FeSCS2C2HNC7H4C3H2C2H3C6H5CH3C2H3C4HCH2NHC2H3CHCHCH2SH3C2HCHCH3C2H2C4H5CHNHCH4CH2CHCH2C2H2CNHCHCH3CHCH3CH5CH8CH2CH5SHC2H3CH4CH5SNC4HC3HCH4CH2CHC2HFeCH3FeH4CHSFeSH2CH5C2FeS2C2FeSFeSCSFeHSFeS2FeSHS2FeSFeS2FeSFeS2HFeS2FeCSCFeHS2C3NHC6H4C2H2SHC2H2C6H4CHC2HC3H2C6H5CH4SHCH3C2H3C2SH4CHC2H2NC8H21CHCNH3C2H6NH3CH2CH5SHCFeHCH3C2SC2H2CHC2HC2H2CH2CH3SH5CH3CHNH3CHCH11
_chemical_formula_sum              "S192 C672 H1152 Fe96 N48"
_cell_length_a       59.724
_cell_length_b       59.5791
_cell_length_c       36.1735
_cell_angle_alpha    89.7591
_cell_angle_beta     90.1584
_cell_angle_gamma    119.455

_space_group_name_H-M_alt    "P 1"
_space_group_IT_number       1

loop_
  _space_group_symop_operation_xyz
  'x, y, z'

loop_
  _atom_site_type_symbol
  _atom_site_label
  _atom_site_symmetry_multiplicity
  _atom_site_fract_x
  _atom_site_fract_y
  _atom_site_fract_z
  _atom_site_occupancy
  S   S1        1.0  0.05359  0.43091  0.25194  1.0000
  C   C1        1.0  0.02449  0.40186  0.24316  1.0000
  C   C2        1.0  0.02250  0.37749  0.24558  1.0000
  H   H1        1.0  0.03922  0.37586  0.25284  1.0000
  Fe  Fe1       1.0  0.09171  0.44099  0.28037  1.0000
  S   S2        1.0  0.10063  0.46554  0.33141  1.0000
  Fe  Fe2       1.0  0.11960  0.44376  0.35349  1.0000
  S   S3        1.0  0.10856  0.41746  0.30379  1.0000
  S   S4        1.0  0.11061  0.42391  0.41015  1.0000
  S   S5        1.0  0.12864  0.46875  0.25194  1.0000
  Fe  Fe3       1.0  0.14654  0.44730  0.27950  1.0000
  S   S6        1.0  0.17107  0.43530  0.24492  1.0000
  S   S7        1.0  0.29265  0.47958  0.23628  1.0000
  C   C3        1.0  0.20501  0.44854  0.24236  1.0000
  C   C4        1.0  0.21542  0.44042  0.21391  1.0000
  C   C5        1.0  0.24217  0.44986  0.21129  1.0000
  C   C6        1.0  0.25887  0.46763  0.23716  1.0000
  C   C7        1.0  0.24850  0.47601  0.26533  1.0000
  C   C8        1.0  0.22175  0.46649  0.26803  1.0000
  H   H2        1.0  0.24983  0.44330  0.18937  1.0000
  H   H3        1.0  0.21404  0.47268  0.29032  1.0000
  C   C9        1.0  0.11231  0.43780  0.45420  1.0000
  C   C10       1.0  0.12091  0.46411  0.45865  1.0000
  H   H4        1.0  0.12672  0.47666  0.43470  1.0000
  C   C11       1.0  0.26042  0.38414  0.31822  1.0000
  H   H5        1.0  0.27567  0.43345  0.29891  1.0000
  H   H6        1.0  0.27668  0.38646  0.33593  1.0000
  H   H7        1.0  0.25222  0.39449  0.33388  1.0000
  H   H8        1.0  0.20266  0.42655  0.19387  1.0000
  N   N1        1.0  0.02004  0.40218  0.37013  1.0000
  C   C12       1.0  0.01973  0.37888  0.35335  1.0000
  S   S8        1.0  0.15869  0.47184  0.33064  1.0000
  S   S9        1.0  0.30952  0.43032  0.17908  1.0000
  N   N2        1.0  0.27010  0.39617  0.28081  1.0000
  C   C13       1.0  0.28661  0.42494  0.28589  1.0000
  H   H9        1.0  0.29298  0.43462  0.25853  1.0000
  H   H10       1.0  0.29874  0.38377  0.28558  1.0000
  C   C14       1.0  0.22845  0.39863  0.27045  1.0000
  H   H11       1.0  0.22833  0.35064  0.34369  1.0000
  H   H12       1.0  0.25085  0.34351  0.32057  1.0000
  C   C15       1.0  0.24085  0.35505  0.31900  1.0000
  C   C16       1.0  0.24856  0.39204  0.25482  1.0000
  C   C17       1.0  0.28687  0.38641  0.26399  1.0000
  H   H13       1.0  0.23687  0.41917  0.27812  1.0000
  H   H14       1.0  0.21384  0.39495  0.24875  1.0000
  H   H15       1.0  0.21796  0.38629  0.29441  1.0000
  H   H16       1.0  0.25654  0.40348  0.22893  1.0000
  H   H17       1.0  0.22748  0.34845  0.29525  1.0000
  H   H18       1.0  0.26123  0.48970  0.28555  1.0000
  H   H19       1.0  0.05339  0.39691  0.31645  1.0000
  H   H20       1.0  0.04298  0.36427  0.32812  1.0000
  C   C18       1.0  0.04578  0.38279  0.33939  1.0000
  C   C19       1.0  0.02636  0.42207  0.34028  1.0000
  H   H21       1.0  0.04584  0.42843  0.32916  1.0000
  H   H22       1.0  0.16663  0.47136  0.19900  1.0000
  H   H23       1.0  0.19433  0.47773  0.17123  1.0000
  C   C20       1.0  0.10470  0.42180  0.48570  1.0000
  H   H24       1.0  0.09776  0.40138  0.48255  1.0000
  H   H25       1.0  0.18885  0.42893  0.46687  1.0000
  H   H26       1.0  0.16599  0.47504  0.15051  1.0000
  H   H27       1.0  0.23738  0.37181  0.24536  1.0000
  C   C21       1.0  0.17864  0.48233  0.17520  1.0000
  Fe  Fe4       1.0  0.31804  0.46911  0.20070  1.0000
  S   S10       1.0  0.31875  0.43479  0.07254  1.0000
  H   H28       1.0  0.06038  0.38858  0.36163  1.0000
  H   H29       1.0  0.19240  0.49288  0.24615  1.0000
  H   H30       1.0  0.04619  0.46170  0.36165  1.0000
  C   C22       1.0  0.46259  0.31388  0.49877  1.0000
  H   H31       1.0  0.25785  0.34508  0.25668  1.0000
  C   C23       1.0  0.27357  0.36124  0.24150  1.0000
  H   H32       1.0  0.26637  0.36430  0.21466  1.0000
  Fe  Fe5       1.0  0.13857  0.49160  0.30427  1.0000
  H   H33       1.0  0.30100  0.40091  0.24455  1.0000
  H   H34       1.0  0.28808  0.35532  0.23469  1.0000
  H   H35       1.0  0.05988  0.42269  0.38830  1.0000
  H   H36       1.0  0.00650  0.37181  0.32915  1.0000
  C   C24       1.0  0.04011  0.41395  0.40004  1.0000
  C   C25       1.0  0.17221  0.42447  0.48505  1.0000
  H   H37       1.0  0.04119  0.37970  0.42164  1.0000
  H   H38       1.0  0.03930  0.43037  0.41329  1.0000
  C   C26       1.0  0.12193  0.47423  0.49422  1.0000
  H   H39       1.0  0.05355  0.40658  0.45205  1.0000
  C   C27       1.0  0.03812  0.39556  0.43156  1.0000
  H   H40       1.0  0.15602  0.42058  0.46604  1.0000
  H   H41       1.0  0.01796  0.35732  0.12334  1.0000
  C   C28       1.0  0.02671  0.44716  0.35196  1.0000
  H   H42       1.0  0.49690  0.01705  0.30338  1.0000
  H   H43       1.0  0.01203  0.36245  0.37321  1.0000
  H   H44       1.0  0.01373  0.41393  0.31562  1.0000
  C   C29       1.0  0.31118  0.43403  0.30942  1.0000
  H   H45       1.0  0.30671  0.42794  0.33870  1.0000
  C   C30       1.0  0.32797  0.45029  0.02867  1.0000
  H   H46       1.0  0.01956  0.38757  0.44645  1.0000
  H   H47       1.0  0.12852  0.49460  0.49731  1.0000
  H   H48       1.0  0.01264  0.44428  0.37380  1.0000
  H   H49       1.0  0.32200  0.45546  0.30923  1.0000
  H   H50       1.0  0.02142  0.45519  0.32780  1.0000
  H   H51       1.0  0.45237  0.37312  0.49486  1.0000
  H   H52       1.0  0.41781  0.01981  0.27906  1.0000
  H   H53       1.0  0.41054  0.48130  0.31626  1.0000
  H   H54       1.0  0.43113  0.03019  0.32364  1.0000
  Fe  Fe6       1.0  0.46632  0.11751  0.13248  1.0000
  C   C31       1.0  0.45532  0.49881  0.21934  1.0000
  C   C32       1.0  0.43481  0.16450  0.07526  1.0000
  H   H55       1.0  0.41486  0.49657  0.25001  1.0000
  H   H56       1.0  0.49297  0.23553  0.05133  1.0000
  Fe  Fe7       1.0  0.48336  0.11784  0.21328  1.0000
  H   H57       1.0  0.45145  0.48777  0.31296  1.0000
  C   C33       1.0  0.45524  0.35656  0.49588  1.0000
  H   H58       1.0  0.35868  0.28932  0.49455  1.0000
  H   H59       1.0  0.49268  0.28628  0.33791  1.0000
  H   H60       1.0  0.46032  0.21276  0.04645  1.0000
  H   H61       1.0  0.49576  0.17553  0.03289  1.0000
  Fe  Fe8       1.0  0.33370  0.45241  0.12958  1.0000
  C   C34       1.0  0.47676  0.02054  0.22369  1.0000
  H   H62       1.0  0.47275  0.03961  0.33956  1.0000
  H   H63       1.0  0.45355  0.16496  0.00659  1.0000
  H   H64       1.0  0.47686  0.45972  0.27933  1.0000
  H   H65       1.0  0.37228  0.39012  0.30029  1.0000
  S   S11       1.0  0.46352  0.19187  0.18904  1.0000
  C   C35       1.0  0.46878  0.11792  0.02907  1.0000
  C   C36       1.0  0.41265  0.38366  0.24016  1.0000
  H   H66       1.0  0.45912  0.31328  0.43909  1.0000
  H   H67       1.0  0.46915  0.24243  0.18067  1.0000
  H   H68       1.0  0.42431  0.47495  0.18013  1.0000
  Fe  Fe9       1.0  0.50210  0.36273  0.30687  1.0000
  C   C37       1.0  0.44935  0.20408  0.25676  1.0000
  H   H69       1.0  0.48819  0.23777  0.11895  1.0000
  S   S12       1.0  0.44500  0.26522  0.30015  1.0000
  H   H70       1.0  0.43859  0.21436  0.30836  1.0000
  H   H71       1.0  0.43094  0.10870  0.04713  1.0000
  H   H72       1.0  0.38167  0.27846  0.48637  1.0000
  H   H73       1.0  0.38166  0.46430  0.29037  1.0000
  C   C38       1.0  0.46878  0.45902  0.25138  1.0000
  H   H74       1.0  0.40447  0.37513  0.29798  1.0000
  C   C39       1.0  0.36863  0.00879  0.25093  1.0000
  H   H75       1.0  0.38410  0.40942  0.18485  1.0000
  C   C40       1.0  0.47701  0.21821  0.06483  1.0000
  S   S13       1.0  0.34018  0.49091  0.14993  1.0000
  C   C41       1.0  0.45914  0.32296  0.46435  1.0000
  C   C42       1.0  0.34873  0.47525  0.02451  1.0000
  H   H76       1.0  0.49845  0.29871  0.27816  1.0000
  C   C43       1.0  0.45888  0.25287  0.23242  1.0000
  C   C44       1.0  0.37462  0.42773  0.01203  1.0000
  H   H77       1.0  0.46215  0.27139  0.22256  1.0000
  S   S14       1.0  0.42820  0.32203  0.32002  1.0000
  H   H78       1.0  0.39390  0.43003  0.01687  1.0000
  H   H79       1.0  0.46609  0.44137  0.23703  1.0000
  Fe  Fe10      1.0  0.45836  0.15074  0.19071  1.0000
  H   H80       1.0  0.45789  0.07553  0.30095  1.0000
  H   H81       1.0  0.36223  0.41668  0.03575  1.0000
  H   H82       1.0  0.46615  0.15631  0.08042  1.0000
  S   S15       1.0  0.37022  0.45651  0.15431  1.0000
  H   H83       1.0  0.44495  0.06544  0.25484  1.0000
  C   C45       1.0  0.46265  0.23625  0.20860  1.0000
  H   H84       1.0  0.37593  0.44696  0.01278  1.0000
  H   H85       1.0  0.48714  0.06302  0.30530  1.0000
  H   H86       1.0  0.32430  0.42763  0.29798  1.0000
  Fe  Fe11      1.0  0.34701  0.43764  0.20502  1.0000
  C   C46       1.0  0.39944  0.01573  0.20298  1.0000
  C   C47       1.0  0.45019  0.24517  0.26862  1.0000
  C   C48       1.0  0.40672  0.39347  0.20837  1.0000
  Fe  Fe12      1.0  0.45814  0.34654  0.36238  1.0000
  C   C49       1.0  0.44545  0.48383  0.18283  1.0000
  S   S16       1.0  0.45039  0.12164  0.23604  1.0000
  C   C50       1.0  0.44354  0.11294  0.02360  1.0000
  Fe  Fe13      1.0  0.45596  0.30811  0.30326  1.0000
  H   H87       1.0  0.42496  0.16826  0.09849  1.0000
  H   H88       1.0  0.42439  0.06255  0.29204  1.0000
  S   S17       1.0  0.48417  0.33065  0.34855  1.0000
  H   H89       1.0  0.44795  0.03139  0.22754  1.0000
  S   S18       1.0  0.48166  0.11863  0.07386  1.0000
  C   C51       1.0  0.43589  0.03311  0.29367  1.0000
  S   S19       1.0  0.45001  0.35603  0.42036  1.0000
  H   H90       1.0  0.48390  0.03012  0.19648  1.0000
  H   H91       1.0  0.39989  0.44879  0.29990  1.0000
  S   S20       1.0  0.43599  0.37338  0.23687  1.0000
  S   S21       1.0  0.43158  0.12011  0.15040  1.0000
  S   S22       1.0  0.35367  0.47472  0.23043  1.0000
  S   S23       1.0  0.35281  0.41144  0.24586  1.0000
  C   C52       1.0  0.37605  0.40104  0.24276  1.0000
  C   C53       1.0  0.44254  0.45812  0.25418  1.0000
  N   N3        1.0  0.45684  0.02682  0.28433  1.0000
  C   C54       1.0  0.38590  0.02493  0.22363  1.0000
  H   H92       1.0  0.44555  0.18533  0.26647  1.0000
  C   C55       1.0  0.38854  0.40211  0.20960  1.0000
  S   S24       1.0  0.47837  0.38059  0.32387  1.0000
  S   S25       1.0  0.49335  0.14900  0.17104  1.0000
  H   H93       1.0  0.45123  0.46887  0.17978  1.0000
  H   H94       1.0  0.43352  0.44713  0.27990  1.0000
  Fe  Fe14      1.0  0.45027  0.35530  0.28064  1.0000
  C   C56       1.0  0.41584  0.47874  0.25609  1.0000
  C   C57       1.0  0.46298  0.17285  0.08592  1.0000
  H   H95       1.0  0.43210  0.17300  0.04969  1.0000
  N   N4        1.0  0.44317  0.48371  0.25417  1.0000
  H   H96       1.0  0.40380  0.46487  0.23428  1.0000
  C   C58       1.0  0.44544  0.22065  0.28052  1.0000
  H   H97       1.0  0.46384  0.17471  0.11652  1.0000
  S   S26       1.0  0.38970  0.05613  0.21568  1.0000
  H   H98       1.0  0.45396  0.49749  0.15930  1.0000
  Fe  Fe15      1.0  0.42677  0.09078  0.19449  1.0000
  C   C59       1.0  0.40162  0.46771  0.29300  1.0000
  H   H99       1.0  0.42978  0.44534  0.23211  1.0000
  C   C60       1.0  0.45794  0.21173  0.22052  1.0000
  H   H100      1.0  0.42408  0.14327  0.07141  1.0000
  H   H101      1.0  0.47853  0.05558  0.24244  1.0000
  C   C61       1.0  0.38194  0.39122  0.27454  1.0000
  C   C62       1.0  0.40020  0.38268  0.27333  1.0000
  C   C63       1.0  0.46478  0.03459  0.24458  1.0000
  N   N5        1.0  0.48399  0.19716  0.06839  1.0000
  C   C64       1.0  0.47081  0.22715  0.10148  1.0000
  Fe  Fe16      1.0  0.37490  0.49332  0.17857  1.0000
  H   H102      1.0  0.48311  0.47542  0.23484  1.0000
  H   H103      1.0  0.45578  0.21087  0.11757  1.0000
  C   C65       1.0  0.45535  0.34432  0.46274  1.0000
  H   H104      1.0  0.41243  0.02769  0.18147  1.0000
  S   S27       1.0  0.47581  0.33948  0.26071  1.0000
  S   S28       1.0  0.45947  0.08609  0.17350  1.0000
  C   C66       1.0  0.49121  0.19153  0.03096  1.0000
  H   H105      1.0  0.35911  0.48602  0.04867  1.0000
  C   C67       1.0  0.44153  0.06080  0.28470  1.0000
  H   H106      1.0  0.46344  0.24064  0.09544  1.0000
  C   C68       1.0  0.47905  0.04199  0.31019  1.0000
  H   H107      1.0  0.41616  0.39425  0.18253  1.0000
  H   H108      1.0  0.35797  0.01566  0.26697  1.0000
  H   H109      1.0  0.49324  0.02105  0.23835  1.0000
  H   H110      1.0  0.50277  0.20925  0.12200  1.0000
  H   H111      1.0  0.19484  0.46485  0.49655  1.0000
  H   H112      1.0  0.46532  0.29722  0.49971  1.0000
  C   C69       1.0  0.50225  0.03743  0.30761  1.0000
  H   H113      1.0  0.16661  0.40629  0.49997  1.0000
  C   C70       1.0  0.45873  0.49904  0.28689  1.0000
  H   H114      1.0  0.50312  0.26297  0.34694  1.0000
  H   H115      1.0  0.50304  0.26219  0.28382  1.0000
  S   S29       1.0  0.06025  0.39487  0.72944  1.0000
  C   C71       1.0  0.02940  0.39199  0.73614  1.0000
  H   H116      1.0  0.03343  0.41962  0.69457  1.0000
  C   C72       1.0  0.02104  0.40643  0.71559  1.0000
  H   H117      1.0  0.05754  0.45538  0.74577  1.0000
  C   C73       1.0  0.04009  0.47247  0.80625  1.0000
  Fe  Fe17      1.0  0.09463  0.42541  0.69697  1.0000
  S   S30       1.0  0.09687  0.46209  0.67659  1.0000
  C   C74       1.0  0.10565  0.43193  0.52124  1.0000
  H   H118      1.0  0.09920  0.41929  0.54508  1.0000
  S   S31       1.0  0.13182  0.44508  0.72911  1.0000
  Fe  Fe18      1.0  0.11889  0.45849  0.62820  1.0000
  S   S32       1.0  0.11418  0.42023  0.64652  1.0000
  S   S33       1.0  0.11612  0.47214  0.56989  1.0000
  Fe  Fe19      1.0  0.15170  0.44349  0.67748  1.0000
  S   S34       1.0  0.18896  0.44177  0.66935  1.0000
  S   S35       1.0  0.15708  0.48143  0.65678  1.0000
  C   C75       1.0  0.20832  0.43756  0.70330  1.0000
  C   C76       1.0  0.19787  0.42346  0.73580  1.0000
  C   C77       1.0  0.21372  0.41961  0.76113  1.0000
  C   C78       1.0  0.24030  0.43019  0.75475  1.0000
  C   C79       1.0  0.25083  0.44474  0.72259  1.0000
  C   C80       1.0  0.23487  0.44811  0.69685  1.0000
  H   H119      1.0  0.17745  0.41487  0.74095  1.0000
  H   H120      1.0  0.20532  0.40817  0.78576  1.0000
  H   H121      1.0  0.24319  0.45890  0.67174  1.0000
  C   C81       1.0  0.11451  0.45828  0.52577  1.0000
  H   H122      1.0  0.07332  0.44276  0.79634  1.0000
  C   C82       1.0  0.09083  0.46186  0.79475  1.0000
  N   N6        1.0  0.06478  0.48615  0.78453  1.0000
  Fe  Fe20      1.0  0.13480  0.48144  0.70626  1.0000
  S   S36       1.0  0.25911  0.42406  0.78736  1.0000
  H   H123      1.0  0.13255  0.40190  0.53295  1.0000
  H   H124      1.0  0.14883  0.39181  0.56643  1.0000
  C   C83       1.0  0.15806  0.43261  0.57131  1.0000
  H   H125      1.0  0.16202  0.43337  0.60148  1.0000
  H   H126      1.0  0.12287  0.39641  0.57979  1.0000
  C   C84       1.0  0.13999  0.40410  0.56153  1.0000
  H   H127      1.0  0.14641  0.44229  0.56764  1.0000
  H   H128      1.0  0.18885  0.41307  0.54927  1.0000
  C   C85       1.0  0.19875  0.43350  0.55782  1.0000
  H   H129      1.0  0.02511  0.47605  0.79367  1.0000
  H   H130      1.0  0.19755  0.47509  0.73201  1.0000
  H   H131      1.0  0.10518  0.46168  0.81418  1.0000
  N   N7        1.0  0.18293  0.44644  0.55007  1.0000
  H   H132      1.0  0.20154  0.43271  0.58826  1.0000
  H   H133      1.0  0.01894  0.36311  0.77870  1.0000
  H   H134      1.0  0.17448  0.45073  0.77790  1.0000
  C   C86       1.0  0.18207  0.45996  0.80496  1.0000
  H   H135      1.0  0.16532  0.45312  0.82386  1.0000
  H   H136      1.0  0.19471  0.45288  0.81648  1.0000
  H   H137      1.0  0.22741  0.47179  0.77011  1.0000
  H   H138      1.0  0.04286  0.48021  0.83480  1.0000
  C   C87       1.0  0.04076  0.47635  0.72172  1.0000
  C   C88       1.0  0.22563  0.44624  0.53983  1.0000
  C   C89       1.0  0.19777  0.47348  0.56534  1.0000
  H   H139      1.0  0.09908  0.46428  0.76662  1.0000
  H   H140      1.0  0.16793  0.48365  0.57920  1.0000
  H   H141      1.0  0.20204  0.47303  0.59533  1.0000
  C   C90       1.0  0.19581  0.48973  0.80273  1.0000
  C   C91       1.0  0.18496  0.49043  0.56123  1.0000
  C   C92       1.0  0.08642  0.48468  0.80434  1.0000
  H   H142      1.0  0.21671  0.48454  0.55140  1.0000
  H   H143      1.0  0.17957  0.49180  0.53229  1.0000
  H   H144      1.0  0.23936  0.46387  0.55501  1.0000
  H   H145      1.0  0.02136  0.46481  0.73397  1.0000
  C   C93       1.0  0.06181  0.47572  0.74580  1.0000
  H   H146      1.0  0.04030  0.46747  0.69456  1.0000
  H   H147      1.0  0.19011  0.49977  0.73416  1.0000
  H   H148      1.0  0.20245  0.49693  0.83130  1.0000
  H   H149      1.0  0.08036  0.48668  0.73065  1.0000
  C   C94       1.0  0.20658  0.49608  0.73719  1.0000
  C   C95       1.0  0.23557  0.49130  0.78241  1.0000
  C   C96       1.0  0.01274  0.37450  0.76280  1.0000
  H   H150      1.0  0.23729  0.48864  0.81263  1.0000
  H   H151      1.0  0.04048  0.43817  0.82823  1.0000
  C   C97       1.0  0.17795  0.44804  0.50942  1.0000
  H   H152      1.0  0.16165  0.45196  0.50573  1.0000
  H   H153      1.0  0.02474  0.43317  0.78376  1.0000
  H   H154      1.0  0.48336  0.01131  0.78258  1.0000
  H   H155      1.0  0.27117  0.45289  0.71718  1.0000
  C   C98       1.0  0.02834  0.44313  0.81063  1.0000
  H   H156      1.0  0.27312  0.49511  0.77260  1.0000
  H   H157      1.0  0.23341  0.43272  0.54152  1.0000
  H   H158      1.0  0.23322  0.49711  0.69461  1.0000
  H   H159      1.0  0.22518  0.45093  0.51027  1.0000
  H   H160      1.0  0.50242  0.08274  0.72792  1.0000
  H   H161      1.0  0.08408  0.48468  0.83487  1.0000
  H   H162      1.0  0.50029  0.06611  0.78275  1.0000
  H   H163      1.0  0.00938  0.43519  0.82459  1.0000
  H   H164      1.0  0.04489  0.49629  0.71574  1.0000
  C   C99       1.0  0.49136  0.02096  0.75570  1.0000
  C   C100      1.0  0.37108  0.28261  0.50808  1.0000
  C   C101      1.0  0.31468  0.43664  0.99687  1.0000
  Fe  Fe21      1.0  0.49712  0.36878  0.69060  1.0000
  C   C102      1.0  0.40945  0.46641  0.90745  1.0000
  C   C103      1.0  0.42218  0.00417  0.72438  1.0000
  C   C104      1.0  0.35637  0.48614  0.98891  1.0000
  H   H165      1.0  0.35863  0.26396  0.52189  1.0000
  H   H166      1.0  0.44052  0.00940  0.71184  1.0000
  H   H167      1.0  0.42291  0.48695  0.91406  1.0000
  H   H168      1.0  0.37901  0.46745  0.68983  1.0000
  S   S37       1.0  0.49659  0.33245  0.67272  1.0000
  H   H169      1.0  0.37470  0.02684  0.69507  1.0000
  H   H170      1.0  0.40209  0.13410  0.78764  1.0000
  H   H171      1.0  0.40353  0.48552  0.73974  1.0000
  Fe  Fe22      1.0  0.45547  0.08950  0.78589  1.0000
  H   H172      1.0  0.43490  0.20809  0.89859  1.0000
  H   H173      1.0  0.44663  0.49296  0.82505  1.0000
  H   H174      1.0  0.39205  0.01381  0.67012  1.0000
  H   H175      1.0  0.18056  0.49475  0.79618  1.0000
  H   H176      1.0  0.33110  0.30873  0.60995  1.0000
  S   S38       1.0  0.47822  0.09882  0.83882  1.0000
  Fe  Fe23      1.0  0.34303  0.46940  0.85483  1.0000
  H   H177      1.0  0.38562  0.15154  0.79538  1.0000
  H   H178      1.0  0.43679  0.42200  0.70253  1.0000
  H   H179      1.0  0.43796  0.19893  0.69419  1.0000
  H   H180      1.0  0.34123  0.28726  0.62811  1.0000
  H   H181      1.0  0.36011  0.00526  0.65746  1.0000
  H   H182      1.0  0.35636  0.39280  0.97982  1.0000
  H   H183      1.0  0.36223  0.32177  0.63027  1.0000
  H   H184      1.0  0.48243  0.03265  0.74787  1.0000
  C   C105      1.0  0.45910  0.34773  0.53023  1.0000
  H   H185      1.0  0.47211  0.20221  0.91022  1.0000
  C   C106      1.0  0.39668  0.15520  0.89235  1.0000
  C   C107      1.0  0.47555  0.12276  0.96189  1.0000
  H   H186      1.0  0.37226  0.04798  0.63443  1.0000
  H   H187      1.0  0.41891  0.46633  0.80535  1.0000
  H   H188      1.0  0.44948  0.46705  0.80519  1.0000
  Fe  Fe24      1.0  0.46334  0.14531  0.78020  1.0000
  H   H189      1.0  0.35539  0.39338  0.73033  1.0000
  C   C108      1.0  0.42443  0.10577  0.69655  1.0000
  H   H190      1.0  0.45062  0.20827  0.85715  1.0000
  C   C109      1.0  0.40827  0.07685  0.68718  1.0000
  H   H191      1.0  0.42296  0.37120  0.76429  1.0000
  C   C110      1.0  0.39520  0.14210  0.80974  1.0000
  S   S39       1.0  0.46734  0.34926  0.73502  1.0000
  C   C111      1.0  0.39156  0.16607  0.92804  1.0000
  H   H192      1.0  0.44410  0.17333  0.92431  1.0000
  H   H193      1.0  0.32320  0.38892  0.88277  1.0000
  S   S40       1.0  0.45159  0.16897  0.74244  1.0000
  H   H194      1.0  0.40856  0.45802  0.96513  1.0000
  C   C112      1.0  0.41848  0.16108  0.83314  1.0000
  Fe  Fe25      1.0  0.34995  0.43324  0.80072  1.0000
  H   H195      1.0  0.39914  0.41485  0.90174  1.0000
  H   H196      1.0  0.40948  0.17858  0.94345  1.0000
  S   S41       1.0  0.46856  0.36535  0.64735  1.0000
  S   S42       1.0  0.35542  0.48628  0.91285  1.0000
  H   H197      1.0  0.39644  0.26268  0.55648  1.0000
  H   H198      1.0  0.43468  0.05130  0.62697  1.0000
  S   S43       1.0  0.48444  0.12582  0.75693  1.0000
  C   C113      1.0  0.34795  0.30572  0.61304  1.0000
  H   H199      1.0  0.50070  0.05682  0.69899  1.0000
  H   H200      1.0  0.40545  0.14318  0.90056  1.0000
  H   H201      1.0  0.41358  0.19682  0.79158  1.0000
  H   H202      1.0  0.43899  0.07902  0.58009  1.0000
  H   H203      1.0  0.44272  0.48392  0.67125  1.0000
  S   S44       1.0  0.43345  0.30486  0.67284  1.0000
  C   C114      1.0  0.39098  0.45821  0.69518  1.0000
  C   C115      1.0  0.37028  0.38885  0.73772  1.0000
  H   H204      1.0  0.40915  0.30339  0.53253  1.0000
  C   C116      1.0  0.39549  0.26755  0.58579  1.0000
  H   H205      1.0  0.31187  0.43679  0.93713  1.0000
  C   C117      1.0  0.45777  0.20155  0.74528  1.0000
  C   C118      1.0  0.39574  0.01516  0.76226  1.0000
  C   C119      1.0  0.39669  0.36908  0.72187  1.0000
  C   C120      1.0  0.37859  0.02149  0.66749  1.0000
  H   H206      1.0  0.39513  0.32220  0.52152  1.0000
  H   H207      1.0  0.34341  0.41364  0.97466  1.0000
  H   H208      1.0  0.37747  0.14132  0.88094  1.0000
  S   S45       1.0  0.43250  0.10800  0.80519  1.0000
  S   S46       1.0  0.43817  0.11842  0.91155  1.0000
  S   S47       1.0  0.40483  0.35189  0.68930  1.0000
  H   H209      1.0  0.41533  0.35627  0.55647  1.0000
  H   H210      1.0  0.40236  0.46112  0.66993  1.0000
  H   H211      1.0  0.39092  0.03584  0.61299  1.0000
  C   C121      1.0  0.36195  0.41344  0.97575  1.0000
  S   S48       1.0  0.44707  0.05311  0.75333  1.0000
  C   C122      1.0  0.35839  0.30500  0.57430  1.0000
  C   C123      1.0  0.43338  0.43840  0.69660  1.0000
  H   H212      1.0  0.40955  0.39392  0.80905  1.0000
  C   C124      1.0  0.37573  0.27672  0.59176  1.0000
  H   H213      1.0  0.41489  0.28200  0.59538  1.0000
  C   C125      1.0  0.32227  0.44757  0.96127  1.0000
  H   H214      1.0  0.42187  0.32277  0.59146  1.0000
  C   C126      1.0  0.47385  0.24269  0.77719  1.0000
  H   H215      1.0  0.46001  0.17452  0.88151  1.0000
  H   H216      1.0  0.45953  0.35767  0.55537  1.0000
  S   S49       1.0  0.46736  0.31416  0.57431  1.0000
  C   C127      1.0  0.45033  0.11783  0.95640  1.0000
  C   C128      1.0  0.46407  0.25221  0.74941  1.0000
  C   C129      1.0  0.42216  0.08212  0.58118  1.0000
  H   H217      1.0  0.38971  0.24975  0.60226  1.0000
  S   S50       1.0  0.31838  0.42776  0.84029  1.0000
  C   C130      1.0  0.38161  0.39544  0.77276  1.0000
  C   C131      1.0  0.34337  0.47233  0.95706  1.0000
  H   H218      1.0  0.47906  0.17986  0.97457  1.0000
  C   C132      1.0  0.45142  0.23628  0.71924  1.0000
  C   C133      1.0  0.40070  0.38901  0.78201  1.0000
  C   C134      1.0  0.44816  0.21112  0.71738  1.0000
  H   H219      1.0  0.43327  0.17506  0.81396  1.0000
  C   C135      1.0  0.41065  0.20629  0.81595  1.0000
  Fe  Fe26      1.0  0.45773  0.12023  0.85630  1.0000
  C   C136      1.0  0.43442  0.11296  0.98750  1.0000
  S   S51       1.0  0.46653  0.28318  0.75525  1.0000
  H   H220      1.0  0.41483  0.10897  0.98364  1.0000
  Fe  Fe27      1.0  0.35604  0.48457  0.77279  1.0000
  H   H221      1.0  0.42666  0.09889  0.56299  1.0000
  H   H222      1.0  0.38788  0.07233  0.69011  1.0000
  C   C137      1.0  0.43427  0.06214  0.65173  1.0000
  H   H223      1.0  0.42106  0.10869  0.72583  1.0000
  H   H224      1.0  0.38105  0.12554  0.82641  1.0000
  H   H225      1.0  0.48374  0.25481  0.80060  1.0000
  H   H226      1.0  0.37761  0.43720  0.69840  1.0000
  H   H227      1.0  0.42709  0.14971  0.84473  1.0000
  H   H228      1.0  0.41843  0.11759  0.67985  1.0000
  N   N8        1.0  0.41283  0.17483  0.86349  1.0000
  H   H229      1.0  0.35666  0.26095  0.58260  1.0000
  H   H230      1.0  0.48806  0.12655  0.93834  1.0000
  C   C138      1.0  0.40985  0.35119  0.58579  1.0000
  H   H231      1.0  0.34574  0.37860  0.89316  1.0000
  C   C139      1.0  0.40374  0.32343  0.59533  1.0000
  H   H232      1.0  0.38110  0.17678  0.92251  1.0000
  Fe  Fe28      1.0  0.46471  0.31196  0.71406  1.0000
  C   C140      1.0  0.45414  0.18544  0.89999  1.0000
  N   N9        1.0  0.43493  0.47767  0.73053  1.0000
  H   H233      1.0  0.41303  0.42969  0.68808  1.0000
  H   H234      1.0  0.41146  0.06604  0.70991  1.0000
  H   H235      1.0  0.47581  0.07987  0.64666  1.0000
  H   H236      1.0  0.40505  0.06540  0.56904  1.0000
  N   N10       1.0  0.37694  0.42393  0.94010  1.0000
  N   N11       1.0  0.38207  0.30212  0.57389  1.0000
  H   H237      1.0  0.45961  0.46105  0.73920  1.0000
  S   S52       1.0  0.48728  0.15826  0.83197  1.0000
  H   H238      1.0  0.43353  0.10739  0.62747  1.0000
  H   H239      1.0  0.36838  0.37014  0.68585  1.0000
  S   S53       1.0  0.37263  0.41144  0.80619  1.0000
  H   H240      1.0  0.37900  0.38903  0.93125  1.0000
  H   H241      1.0  0.42732  0.44112  0.75412  1.0000
  H   H242      1.0  0.39348  0.02871  0.77950  1.0000
  C   C141      1.0  0.46261  0.32620  0.53184  1.0000
  H   H243      1.0  0.37828  0.17316  0.84089  1.0000
  C   C142      1.0  0.43798  0.19529  0.87941  1.0000
  C   C143      1.0  0.40661  0.46932  0.73113  1.0000
  H   H244      1.0  0.39662  0.45450  0.75292  1.0000
  Fe  Fe29      1.0  0.30287  0.44210  0.79388  1.0000
  H   H245      1.0  0.36171  0.32259  0.55888  1.0000
  H   H246      1.0  0.34233  0.28876  0.55930  1.0000
  Fe  Fe30      1.0  0.43847  0.34355  0.69057  1.0000
  H   H247      1.0  0.44367  0.24315  0.69771  1.0000
  H   H248      1.0  0.40002  0.32081  0.62558  1.0000
  C   C144      1.0  0.43921  0.45473  0.73192  1.0000
  S   S54       1.0  0.32594  0.48365  0.81102  1.0000
  H   H249      1.0  0.37376  0.27765  0.62227  1.0000
  H   H250      1.0  0.34769  0.42993  0.91368  1.0000
  C   C145      1.0  0.39178  0.41030  0.93064  1.0000
  H   H251      1.0  0.46552  0.08877  0.68816  1.0000
  H   H252      1.0  0.39381  0.35470  0.59294  1.0000
  H   H253      1.0  0.43098  0.04842  0.67471  1.0000
  H   H254      1.0  0.38270  0.46210  0.95008  1.0000
  H   H255      1.0  0.39773  0.21374  0.80691  1.0000
  C   C146      1.0  0.37765  0.37557  0.71259  1.0000
  H   H256      1.0  0.37926  0.14973  0.94667  1.0000
  H   H257      1.0  0.42391  0.40480  0.94562  1.0000
  C   C147      1.0  0.41971  0.02214  0.74674  1.0000
  S   S55       1.0  0.37528  0.47443  0.81760  1.0000
  C   C148      1.0  0.39061  0.30346  0.53438  1.0000
  C   C149      1.0  0.38836  0.04389  0.63932  1.0000
  H   H258      1.0  0.42915  0.22335  0.82373  1.0000
  S   S56       1.0  0.33224  0.44361  0.75304  1.0000
  H   H259      1.0  0.44637  0.44920  0.67342  1.0000
  C   C150      1.0  0.41466  0.41582  0.95591  1.0000
  N   N12       1.0  0.41263  0.06827  0.64984  1.0000
  H   H260      1.0  0.48481  0.00524  0.73501  1.0000
  H   H261      1.0  0.47878  0.21088  0.79653  1.0000
  H   H262      1.0  0.36764  0.42521  0.88218  1.0000
  C   C151      1.0  0.39823  0.18769  0.84893  1.0000
  H   H263      1.0  0.42649  0.36490  0.60270  1.0000
  C   C152      1.0  0.40838  0.37614  0.75665  1.0000
  C   C153      1.0  0.35785  0.41871  0.90935  1.0000
  H   H264      1.0  0.39587  0.19938  0.87088  1.0000
  H   H265      1.0  0.40021  0.09151  0.61930  1.0000
  C   C154      1.0  0.39421  0.45274  0.94261  1.0000
  Fe  Fe31      1.0  0.46569  0.32767  0.63269  1.0000
  C   C155      1.0  0.47097  0.21770  0.77503  1.0000
  C   C156      1.0  0.46159  0.08486  0.65818  1.0000
  H   H266      1.0  0.46554  0.10280  0.64376  1.0000
  H   H267      1.0  0.44532  0.11337  0.69336  1.0000
  C   C157      1.0  0.41705  0.08824  0.62067  1.0000
  H   H268      1.0  0.32608  0.38113  0.92943  1.0000
  C   C158      1.0  0.33722  0.39013  0.90395  1.0000
  C   C159      1.0  0.48466  0.12281  0.99796  1.0000
  C   C160      1.0  0.44702  0.49364  0.76481  1.0000
  H   H269      1.0  0.39661  0.46659  0.88547  1.0000
  C   C161      1.0  0.43990  0.47887  0.80198  1.0000
  C   C162      1.0  0.44882  0.49444  0.69771  1.0000
  H   H270      1.0  0.42108  0.45798  0.89690  1.0000
  H   H271      1.0  0.46600  0.19858  0.99320  1.0000
  H   H272      1.0  0.42963  0.43643  0.95558  1.0000
  H   H273      1.0  0.29849  0.41739  0.99978  1.0000
  H   H274      1.0  0.46978  0.50098  0.69941  1.0000
  H   H275      1.0  0.40833  0.40917  0.98453  1.0000
  C   C163      1.0  0.47096  0.18343  0.00008  1.0000
  H   H276      1.0  0.50392  0.06379  0.84706  1.0000
  H   H277      1.0  0.10525  0.50209  0.79823  1.0000
  N   N13       1.0  0.21785  0.50229  0.77559  1.0000
  H   H278      1.0  0.23203  0.52271  0.27909  1.0000
  H   H279      1.0  0.09489  0.65463  0.28516  1.0000
  C   C164      1.0  0.36071  0.87196  0.49691  1.0000
  H   H280      1.0  0.44108  0.52390  0.29482  1.0000
  Fe  Fe32      1.0  0.09496  0.64699  0.18177  1.0000
  S   S57       1.0  0.10631  0.63027  0.13442  1.0000
  S   S58       1.0  0.05185  0.63326  0.18704  1.0000
  Fe  Fe33      1.0  0.15203  0.68635  0.19998  1.0000
  Fe  Fe34      1.0  0.13468  0.67099  0.11901  1.0000
  S   S59       1.0  0.13990  0.68834  0.06099  1.0000
  Fe  Fe35      1.0  0.13709  0.63235  0.17271  1.0000
  S   S60       1.0  0.14623  0.59953  0.17199  1.0000
  S   S61       1.0  0.12186  0.68810  0.16437  1.0000
  S   S62       1.0  0.12390  0.64626  0.22119  1.0000
  S   S63       1.0  0.15575  0.53514  0.30565  1.0000
  C   C165      1.0  0.14583  0.58061  0.21013  1.0000
  C   C166      1.0  0.14730  0.58884  0.24667  1.0000
  C   C167      1.0  0.15008  0.57464  0.27585  1.0000
  C   C168      1.0  0.15002  0.55141  0.26892  1.0000
  C   C169      1.0  0.14718  0.54252  0.23258  1.0000
  C   C170      1.0  0.14566  0.55733  0.20329  1.0000
  H   H281      1.0  0.14664  0.52450  0.22696  1.0000
  H   H282      1.0  0.14415  0.55063  0.17516  1.0000
  C   C171      1.0  0.13183  0.67072  0.01895  1.0000
  H   H283      1.0  0.12768  0.63566  0.04246  1.0000
  H   H284      1.0  0.20336  0.62439  0.26256  1.0000
  C   C172      1.0  0.02881  0.61972  0.22317  1.0000
  C   C173      1.0  0.03495  0.61436  0.25826  1.0000
  H   H285      1.0  0.05424  0.61803  0.26390  1.0000
  S   S64       1.0  0.28334  0.82312  0.24142  1.0000
  S   S65       1.0  0.16675  0.67211  0.15352  1.0000
  S   S66       1.0  0.17697  0.71546  0.24485  1.0000
  H   H286      1.0  0.23539  0.63063  0.25158  1.0000
  H   H287      1.0  0.14662  0.60625  0.25242  1.0000
  H   H288      1.0  0.15201  0.58151  0.30395  1.0000
  C   C174      1.0  0.25400  0.79294  0.24335  1.0000
  C   C175      1.0  0.24181  0.78091  0.20999  1.0000
  C   C176      1.0  0.21834  0.75733  0.20982  1.0000
  C   C177      1.0  0.20650  0.74547  0.24315  1.0000
  C   C178      1.0  0.21873  0.75739  0.27653  1.0000
  C   C179      1.0  0.24232  0.78087  0.27668  1.0000
  H   H289      1.0  0.25061  0.78992  0.18399  1.0000
  H   H290      1.0  0.20936  0.74847  0.18387  1.0000
  H   H291      1.0  0.20991  0.74843  0.30254  1.0000
  H   H292      1.0  0.25133  0.78979  0.30260  1.0000
  H   H293      1.0  0.25008  0.85636  0.15195  1.0000
  N   N14       1.0  0.22285  0.67559  0.24144  1.0000
  C   C180      1.0  0.23277  0.70382  0.24930  1.0000
  C   C181      1.0  0.19391  0.66241  0.24392  1.0000
  C   C182      1.0  0.23120  0.67365  0.20267  1.0000
  C   C183      1.0  0.23433  0.66536  0.26948  1.0000
  C   C184      1.0  0.26210  0.72173  0.24597  1.0000
  C   C185      1.0  0.18273  0.66083  0.28291  1.0000
  C   C186      1.0  0.21585  0.64768  0.18244  1.0000
  C   C187      1.0  0.22390  0.63595  0.27001  1.0000
  H   H294      1.0  0.22372  0.71166  0.23005  1.0000
  H   H295      1.0  0.22753  0.70681  0.27759  1.0000
  H   H296      1.0  0.18463  0.64242  0.23344  1.0000
  H   H297      1.0  0.18643  0.67226  0.22564  1.0000
  H   H298      1.0  0.23013  0.68811  0.18409  1.0000
  H   H299      1.0  0.25172  0.67844  0.20243  1.0000
  H   H300      1.0  0.23284  0.67150  0.29801  1.0000
  H   H301      1.0  0.26936  0.72156  0.21786  1.0000
  H   H302      1.0  0.26647  0.74189  0.25118  1.0000
  H   H303      1.0  0.27288  0.71723  0.26696  1.0000
  H   H304      1.0  0.16141  0.65036  0.28108  1.0000
  H   H305      1.0  0.18801  0.64985  0.30251  1.0000
  H   H306      1.0  0.18822  0.68008  0.29436  1.0000
  H   H307      1.0  0.21299  0.63086  0.19895  1.0000
  H   H308      1.0  0.22630  0.64798  0.15692  1.0000
  H   H309      1.0  0.19689  0.64482  0.17328  1.0000
  H   H310      1.0  0.25543  0.67418  0.26516  1.0000
  C   C188      1.0  0.32885  0.88170  0.17099  1.0000
  C   C189      1.0  0.26617  0.85683  0.16802  1.0000
  H   H311      1.0  0.29974  0.89331  0.12344  1.0000
  H   H312      1.0  0.27667  0.91154  0.09717  1.0000
  H   H313      1.0  0.31496  0.86244  0.18218  1.0000
  H   H314      1.0  0.34830  0.88466  0.17758  1.0000
  H   H315      1.0  0.32776  0.88208  0.14048  1.0000
  H   H316      1.0  0.25720  0.83882  0.18476  1.0000
  H   H317      1.0  0.27989  0.85527  0.14929  1.0000
  H   H318      1.0  0.07648  0.67609  0.32517  1.0000
  H   H319      1.0  0.22508  0.62973  0.29863  1.0000
  H   H320      1.0  0.12335  0.70226  0.24485  1.0000
  H   H321      1.0  0.49096  0.60597  0.43780  1.0000
  C   C190      1.0  0.09572  0.68824  0.31241  1.0000
  H   H322      1.0  0.37422  0.86489  0.49938  1.0000
  H   H323      1.0  0.22238  0.54724  0.28073  1.0000
  H   H324      1.0  0.12699  0.68039  0.29608  1.0000
  C   C191      1.0  0.07400  0.68331  0.25330  1.0000
  H   H325      1.0  0.28815  0.82902  0.48150  1.0000
  C   C192      1.0  0.46027  0.52545  0.29223  1.0000
  H   H326      1.0  0.10135  0.73530  0.31345  1.0000
  C   C193      1.0  0.23232  0.52266  0.20172  1.0000
  H   H327      1.0  0.26137  0.52690  0.16226  1.0000
  H   H328      1.0  0.48838  0.61614  0.39309  1.0000
  H   H329      1.0  0.07676  0.69505  0.19506  1.0000
  C   C194      1.0  0.44560  0.99806  0.28888  1.0000
  H   H330      1.0  0.13558  0.72424  0.28233  1.0000
  H   H331      1.0  0.47895  0.50304  0.28458  1.0000
  H   H332      1.0  0.47102  0.53894  0.26939  1.0000
  H   H333      1.0  0.01299  0.56414  0.19797  1.0000
  C   C195      1.0  0.47667  0.60511  0.41740  1.0000
  H   H334      1.0  0.11161  0.73383  0.21251  1.0000
  H   H335      1.0  0.46209  0.00022  0.21785  1.0000
  C   C196      1.0  0.08675  0.72216  0.29312  1.0000
  H   H336      1.0  0.05889  0.70042  0.33754  1.0000
  C   C197      1.0  0.21366  0.56638  0.17361  1.0000
  H   H337      1.0  0.10625  0.66000  0.33157  1.0000
  H   H338      1.0  0.45221  0.51569  0.21712  1.0000
  H   H339      1.0  0.49004  0.63758  0.47475  1.0000
  H   H340      1.0  0.45223  0.56357  0.42885  1.0000
  H   H341      1.0  0.23583  0.56571  0.22039  1.0000
  H   H342      1.0  0.46873  0.64958  0.46760  1.0000
  C   C198      1.0  0.44114  0.59946  0.45916  1.0000
  S   S67       1.0  0.47275  0.87059  0.17579  1.0000
  H   H343      1.0  0.41712  0.62570  0.42681  1.0000
  H   H344      1.0  0.38570  0.79686  0.28443  1.0000
  C   C199      1.0  0.40375  0.79729  0.29328  1.0000
  Fe  Fe36      1.0  0.35611  0.90893  0.28364  1.0000
  S   S68       1.0  0.37427  0.90437  0.33566  1.0000
  S   S69       1.0  0.37700  0.94444  0.24569  1.0000
  Fe  Fe37      1.0  0.31421  0.85041  0.28290  1.0000
  S   S70       1.0  0.33009  0.84204  0.33471  1.0000
  Fe  Fe38      1.0  0.33397  0.87923  0.35672  1.0000
  S   S71       1.0  0.32070  0.88404  0.41419  1.0000
  Fe  Fe39      1.0  0.36938  0.86788  0.31019  1.0000
  S   S72       1.0  0.40297  0.86016  0.31370  1.0000
  S   S73       1.0  0.31567  0.88630  0.30599  1.0000
  S   S74       1.0  0.35355  0.87354  0.25727  1.0000
  H   H345      1.0  0.40668  0.98410  0.19364  1.0000
  S   S75       1.0  0.41561  0.52681  0.17903  1.0000
  C   C200      1.0  0.45124  0.58219  0.27690  1.0000
  C   C201      1.0  0.42503  0.56349  0.27767  1.0000
  C   C202      1.0  0.41371  0.54636  0.24786  1.0000
  C   C203      1.0  0.42853  0.54801  0.21697  1.0000
  C   C204      1.0  0.45468  0.56661  0.21636  1.0000
  C   C205      1.0  0.46601  0.58351  0.24622  1.0000
  H   H346      1.0  0.41343  0.56234  0.30126  1.0000
  H   H347      1.0  0.39350  0.53215  0.24855  1.0000
  H   H348      1.0  0.46629  0.56800  0.19262  1.0000
  H   H349      1.0  0.48618  0.59762  0.24527  1.0000
  C   C206      1.0  0.42338  0.86701  0.27503  1.0000
  C   C207      1.0  0.44895  0.87274  0.28049  1.0000
  C   C208      1.0  0.46475  0.87511  0.25019  1.0000
  C   C209      1.0  0.45492  0.87137  0.21422  1.0000
  C   C210      1.0  0.42965  0.86655  0.20871  1.0000
  C   C211      1.0  0.41395  0.86445  0.23896  1.0000
  H   H350      1.0  0.45641  0.87492  0.30832  1.0000
  H   H351      1.0  0.48431  0.87923  0.25474  1.0000
  H   H352      1.0  0.42195  0.86377  0.18096  1.0000
  H   H353      1.0  0.39426  0.85985  0.23440  1.0000
  C   C212      1.0  0.33402  0.88277  0.45782  1.0000
  C   C213      1.0  0.35163  0.87384  0.46156  1.0000
  H   H354      1.0  0.39850  0.77850  0.30639  1.0000
  H   H355      1.0  0.35814  0.86820  0.43724  1.0000
  N   N15       1.0  0.09390  0.70271  0.27912  1.0000
  C   C214      1.0  0.39603  0.99092  0.20986  1.0000
  C   C215      1.0  0.37929  0.97502  0.23774  1.0000
  C   C216      1.0  0.36558  0.98410  0.25832  1.0000
  H   H356      1.0  0.35285  0.97230  0.28016  1.0000
  N   N16       1.0  0.30158  0.90423  0.18132  1.0000
  C   C217      1.0  0.30345  0.92727  0.20155  1.0000
  C   C218      1.0  0.30090  0.90922  0.14051  1.0000
  C   C219      1.0  0.32574  0.90311  0.18988  1.0000
  C   C220      1.0  0.27802  0.88013  0.19465  1.0000
  C   C221      1.0  0.30465  0.92649  0.24412  1.0000
  C   C222      1.0  0.27874  0.91372  0.12769  1.0000
  H   H357      1.0  0.32067  0.94543  0.19217  1.0000
  H   H358      1.0  0.28652  0.92971  0.19553  1.0000
  H   H359      1.0  0.31926  0.92645  0.13186  1.0000
  H   H360      1.0  0.34306  0.92181  0.18267  1.0000
  H   H361      1.0  0.32721  0.90021  0.21993  1.0000
  H   H362      1.0  0.28214  0.87339  0.22133  1.0000
  H   H363      1.0  0.26228  0.88452  0.20063  1.0000
  H   H364      1.0  0.30376  0.94331  0.25555  1.0000
  H   H365      1.0  0.28830  0.90893  0.25607  1.0000
  H   H366      1.0  0.32303  0.92834  0.25390  1.0000
  H   H367      1.0  0.26006  0.89983  0.14020  1.0000
  H   H368      1.0  0.28303  0.93368  0.13397  1.0000
  H   H369      1.0  0.41274  0.81303  0.31393  1.0000
  S   S76       1.0  0.46510  0.60351  0.31461  1.0000
  H   H370      1.0  0.19317  0.55885  0.16589  1.0000
  C   C223      1.0  0.42128  0.80281  0.25929  1.0000
  H   H371      1.0  0.43078  0.76620  0.30117  1.0000
  H   H372      1.0  0.44562  0.74066  0.26950  1.0000
  H   H373      1.0  0.46137  0.80305  0.17137  1.0000
  C   C224      1.0  0.46101  0.80969  0.23055  1.0000
  H   H374      1.0  0.47308  0.77196  0.27171  1.0000
  N   N17       1.0  0.44451  0.79933  0.26467  1.0000
  C   C225      1.0  0.43538  0.77107  0.27140  1.0000
  H   H375      1.0  0.41700  0.75869  0.25654  1.0000
  C   C226      1.0  0.45363  0.76087  0.25978  1.0000
  H   H376      1.0  0.43584  0.80848  0.18530  1.0000
  H   H377      1.0  0.40865  0.79013  0.23686  1.0000
  H   H378      1.0  0.45543  0.76057  0.22930  1.0000
  H   H379      1.0  0.47773  0.80642  0.23131  1.0000
  H   H380      1.0  0.42681  0.64096  0.38283  1.0000
  H   H381      1.0  0.43470  0.60441  0.38644  1.0000
  H   H382      1.0  0.31240  0.89716  0.48732  1.0000
  H   H383      1.0  0.42720  0.82273  0.24997  1.0000
  C   C227      1.0  0.44699  0.79884  0.19351  1.0000
  C   C228      1.0  0.45925  0.81538  0.29755  1.0000
  H   H384      1.0  0.43405  0.77771  0.19454  1.0000
  H   H385      1.0  0.44756  0.80859  0.32321  1.0000
  C   C229      1.0  0.12711  0.64531  0.01736  1.0000
  H   H386      1.0  0.48134  0.79754  0.31902  1.0000
  C   C230      1.0  0.12006  0.71623  0.26100  1.0000
  C   C231      1.0  0.27249  0.82888  0.49815  1.0000
  H   H387      1.0  0.14476  0.74500  0.22112  1.0000
  N   N18       1.0  0.20885  0.52546  0.20811  1.0000
  H   H388      1.0  0.46971  0.83103  0.22902  1.0000
  H   H389      1.0  0.42592  0.58191  0.44523  1.0000
  C   C232      1.0  0.21592  0.55365  0.20968  1.0000
  C   C233      1.0  0.45094  0.59134  0.49359  1.0000
  H   H390      1.0  0.08708  0.73518  0.27092  1.0000
  H   H391      1.0  0.22192  0.58742  0.17821  1.0000
  H   H392      1.0  0.42938  0.98770  0.26912  1.0000
  C   C234      1.0  0.10664  0.66990  0.30529  1.0000
  H   H393      1.0  0.05645  0.72684  0.31893  1.0000
  H   H394      1.0  0.46306  0.63376  0.37819  1.0000
  H   H395      1.0  0.05634  0.66934  0.26846  1.0000
  C   C235      1.0  0.06543  0.69366  0.22011  1.0000
  H   H396      1.0  0.43046  0.60882  0.47038  1.0000
  H   H397      1.0  0.45032  0.99627  0.34931  1.0000
  H   H398      1.0  0.22401  0.56393  0.15008  1.0000
  H   H399      1.0  0.46379  0.83570  0.29356  1.0000
  H   H400      1.0  0.44664  0.65629  0.42190  1.0000
  C   C236      1.0  0.43414  0.63725  0.40913  1.0000
  C   C237      1.0  0.44878  0.62264  0.40016  1.0000
  C   C238      1.0  0.47951  0.64161  0.45261  1.0000
  C   C239      1.0  0.12596  0.73894  0.23479  1.0000
  H   H401      1.0  0.10796  0.70194  0.33432  1.0000
  N   N19       1.0  0.46151  0.61720  0.43239  1.0000
  H   H402      1.0  0.47371  0.57116  0.39064  1.0000
  H   H403      1.0  0.23134  0.51831  0.14099  1.0000
  H   H404      1.0  0.20334  0.55658  0.22963  1.0000
  C   C240      1.0  0.43536  0.98708  0.32770  1.0000
  C   C241      1.0  0.21548  0.52628  0.27889  1.0000
  C   C242      1.0  0.46076  0.57678  0.40493  1.0000
  H   H405      1.0  0.04436  0.69795  0.29252  1.0000
  H   H406      1.0  0.12815  0.75598  0.25018  1.0000
  H   H407      1.0  0.02098  0.60034  0.31335  1.0000
  H   H408      1.0  0.49467  0.83084  0.32894  1.0000
  C   C243      1.0  0.01601  0.60421  0.28618  1.0000
  C   C244      1.0  0.32590  0.89009  0.48988  1.0000
  H   H409      1.0  0.47096  0.53441  0.31810  1.0000
  C   C245      1.0  0.48470  0.81612  0.30715  1.0000
  H   H410      1.0  0.42918  0.96616  0.32786  1.0000
  H   H411      1.0  0.44544  0.57381  0.38500  1.0000
  H   H412      1.0  0.04491  0.67989  0.21390  1.0000
  C   C246      1.0  0.06005  0.71081  0.31149  1.0000
  H   H413      1.0  0.08110  0.67087  0.24118  1.0000
  C   C247      1.0  0.50009  0.66333  0.42858  1.0000
  H   H414      1.0  0.49160  0.67106  0.40839  1.0000
  H   H415      1.0  0.06617  0.71228  0.22483  1.0000
  H   H416      1.0  0.17964  0.51412  0.25037  1.0000
  H   H417      1.0  0.49815  0.82196  0.28355  1.0000
  H   H418      1.0  0.45950  0.99157  0.28162  1.0000
  H   H419      1.0  0.41806  0.98852  0.33485  1.0000
  C   C248      1.0  0.19773  0.51357  0.24521  1.0000
  H   H420      1.0  0.25215  0.55100  0.15743  1.0000
  H   H421      1.0  0.20446  0.51757  0.30459  1.0000
  H   H422      1.0  0.24783  0.53451  0.22172  1.0000
  H   H423      1.0  0.46838  0.58984  0.48835  1.0000
  C   C249      1.0  0.18839  0.51144  0.17921  1.0000
  H   H424      1.0  0.17126  0.51369  0.18494  1.0000
  H   H425      1.0  0.25767  0.82741  0.47818  1.0000
  C   C250      1.0  0.24465  0.53028  0.16318  1.0000
  H   H426      1.0  0.19507  0.51981  0.15128  1.0000
  H   H427      1.0  0.47660  0.50750  0.21981  1.0000
  H   H428      1.0  0.43606  0.57185  0.50284  1.0000
  H   H429      1.0  0.22788  0.50245  0.20700  1.0000
  C   C251      1.0  0.02535  0.62927  0.76559  1.0000
  C   C252      1.0  0.02398  0.60539  0.76037  1.0000
  Fe  Fe40      1.0  0.09199  0.65611  0.78837  1.0000
  S   S77       1.0  0.09056  0.61956  0.80683  1.0000
  S   S78       1.0  0.05452  0.65702  0.77879  1.0000
  Fe  Fe41      1.0  0.15183  0.68705  0.79257  1.0000
  S   S79       1.0  0.15342  0.65149  0.81088  1.0000
  S   S80       1.0  0.19034  0.72512  0.79652  1.0000
  Fe  Fe42      1.0  0.12324  0.63057  0.76754  1.0000
  S   S81       1.0  0.11907  0.60114  0.72468  1.0000
  Fe  Fe43      1.0  0.12051  0.64394  0.84881  1.0000
  S   S82       1.0  0.11639  0.62808  0.90757  1.0000
  S   S83       1.0  0.12353  0.66644  0.74648  1.0000
  S   S84       1.0  0.12012  0.68008  0.83301  1.0000
  C   C253      1.0  0.12761  0.57708  0.73214  1.0000
  C   C254      1.0  0.12246  0.55886  0.70421  1.0000
  C   C255      1.0  0.12888  0.53929  0.70895  1.0000
  C   C256      1.0  0.14068  0.53794  0.74161  1.0000
  C   C257      1.0  0.14581  0.55608  0.76967  1.0000
  C   C258      1.0  0.13919  0.57557  0.76503  1.0000
  H   H430      1.0  0.11357  0.56000  0.67869  1.0000
  H   H431      1.0  0.12491  0.52544  0.68714  1.0000
  H   H432      1.0  0.15491  0.55508  0.79503  1.0000
  H   H433      1.0  0.14323  0.58955  0.78665  1.0000
  C   C259      1.0  0.12554  0.66992  0.95183  1.0000
  C   C260      1.0  0.12175  0.64484  0.95009  1.0000
  H   H434      1.0  0.12449  0.67938  0.92687  1.0000
  H   H435      1.0  0.11901  0.61300  0.98217  1.0000
  H   H436      1.0  0.18489  0.73503  0.71788  1.0000
  H   H437      1.0  0.04103  0.60361  0.76392  1.0000
  S   S85       1.0  0.26485  0.81379  0.68312  1.0000
  C   C261      1.0  0.24480  0.78891  0.71493  1.0000
  C   C262      1.0  0.25228  0.78811  0.75140  1.0000
  C   C263      1.0  0.23542  0.76840  0.77574  1.0000
  C   C264      1.0  0.21098  0.74901  0.76397  1.0000
  C   C265      1.0  0.20362  0.74963  0.72738  1.0000
  C   C266      1.0  0.22035  0.76953  0.70318  1.0000
  H   H438      1.0  0.27093  0.80284  0.76098  1.0000
  H   H439      1.0  0.24137  0.76825  0.80395  1.0000
  H   H440      1.0  0.21416  0.76997  0.67523  1.0000
  C   C267      1.0  0.12221  0.63251  0.98309  1.0000
  N   N20       1.0  0.20582  0.70465  0.90611  1.0000
  C   C268      1.0  0.20897  0.68225  0.89320  1.0000
  C   C269      1.0  0.22739  0.72868  0.88892  1.0000
  C   C270      1.0  0.18049  0.70060  0.89135  1.0000
  C   C271      1.0  0.20599  0.70495  0.94789  1.0000
  C   C272      1.0  0.25481  0.73461  0.89942  1.0000
  C   C273      1.0  0.17393  0.72217  0.89866  1.0000
  C   C274      1.0  0.21283  0.73075  0.96706  1.0000
  C   C275      1.0  0.05854  0.66708  0.90873  1.0000
  H   H441      1.0  0.22621  0.74617  0.89543  1.0000
  H   H442      1.0  0.22595  0.72747  0.85813  1.0000
  H   H443      1.0  0.17943  0.69742  0.86104  1.0000
  H   H444      1.0  0.16431  0.68277  0.90295  1.0000
  H   H445      1.0  0.18692  0.69012  0.95885  1.0000
  H   H446      1.0  0.21998  0.69922  0.95862  1.0000
  H   H447      1.0  0.25721  0.73352  0.92964  1.0000
  H   H448      1.0  0.26017  0.72157  0.88490  1.0000
  H   H449      1.0  0.26874  0.75451  0.89028  1.0000
  H   H450      1.0  0.15539  0.71706  0.88505  1.0000
  H   H451      1.0  0.18809  0.74091  0.88643  1.0000
  H   H452      1.0  0.17100  0.72398  0.92848  1.0000
  H   H453      1.0  0.21176  0.74539  0.94955  1.0000
  N   N21       1.0  0.27704  0.80729  0.55757  1.0000
  C   C276      1.0  0.26348  0.78289  0.58028  1.0000
  C   C277      1.0  0.23667  0.77566  0.59532  1.0000
  C   C278      1.0  0.26464  0.83938  0.58825  1.0000
  H   H454      1.0  0.26130  0.76609  0.56399  1.0000
  H   H455      1.0  0.23751  0.79024  0.61494  1.0000
  H   H456      1.0  0.22931  0.75749  0.61150  1.0000
  H   H457      1.0  0.22243  0.77188  0.57317  1.0000
  H   H458      1.0  0.26539  0.84484  0.61774  1.0000
  H   H459      1.0  0.24448  0.82485  0.58274  1.0000
  Fe  Fe44      1.0  0.34583  0.90536  0.69847  1.0000
  S   S86       1.0  0.37901  0.90140  0.67707  1.0000
  S   S87       1.0  0.34933  0.94211  0.72436  1.0000
  Fe  Fe45      1.0  0.30662  0.84696  0.68716  1.0000
  S   S88       1.0  0.33777  0.83964  0.66590  1.0000
  Fe  Fe46      1.0  0.36245  0.86529  0.71158  1.0000
  S   S89       1.0  0.38386  0.85537  0.75489  1.0000
  Fe  Fe47      1.0  0.35128  0.87617  0.63255  1.0000
  S   S90       1.0  0.36358  0.87486  0.57291  1.0000
  S   S91       1.0  0.33037  0.87026  0.73533  1.0000
  S   S92       1.0  0.31907  0.88258  0.65158  1.0000
  C   C279      1.0  0.45903  0.58108  0.74988  1.0000
  C   C280      1.0  0.44736  0.57843  0.71539  1.0000
  C   C281      1.0  0.42201  0.55842  0.70953  1.0000
  C   C282      1.0  0.40835  0.54077  0.73788  1.0000
  C   C283      1.0  0.42004  0.54345  0.77233  1.0000
  C   C284      1.0  0.44525  0.56358  0.77830  1.0000
  H   H460      1.0  0.45781  0.59185  0.69336  1.0000
  H   H461      1.0  0.41306  0.55644  0.68281  1.0000
  H   H462      1.0  0.40962  0.53018  0.79447  1.0000
  H   H463      1.0  0.45411  0.56569  0.80513  1.0000
  C   C285      1.0  0.41511  0.85993  0.74819  1.0000
  C   C286      1.0  0.42729  0.86696  0.71380  1.0000
  C   C287      1.0  0.45247  0.87109  0.70984  1.0000
  C   C288      1.0  0.46575  0.86854  0.74025  1.0000
  C   C289      1.0  0.45361  0.86157  0.77467  1.0000
  C   C290      1.0  0.42830  0.85710  0.77852  1.0000
  H   H464      1.0  0.41730  0.86916  0.69027  1.0000
  H   H465      1.0  0.46175  0.87643  0.68311  1.0000
  H   H466      1.0  0.41895  0.85160  0.80519  1.0000
  C   C291      1.0  0.35230  0.87890  0.52901  1.0000
  C   C292      1.0  0.33496  0.88819  0.52524  1.0000
  H   H467      1.0  0.32854  0.89394  0.54953  1.0000
  C   C293      1.0  0.40099  0.97951  0.71762  1.0000
  C   C294      1.0  0.37693  0.97260  0.73284  1.0000
  H   H468      1.0  0.40312  0.96600  0.70009  1.0000
  N   N22       1.0  0.41924  0.93441  0.80080  1.0000
  C   C295      1.0  0.39233  0.92291  0.78536  1.0000
  C   C296      1.0  0.43794  0.94654  0.76923  1.0000
  C   C297      1.0  0.42434  0.95480  0.82920  1.0000
  C   C298      1.0  0.42218  0.91330  0.81925  1.0000
  C   C299      1.0  0.37030  0.91253  0.81390  1.0000
  H   H469      1.0  0.39018  0.93699  0.76758  1.0000
  H   H470      1.0  0.38816  0.90654  0.76667  1.0000
  H   H471      1.0  0.43248  0.95854  0.75178  1.0000
  H   H472      1.0  0.41262  0.94620  0.85453  1.0000
  H   H473      1.0  0.44463  0.96391  0.83898  1.0000
  H   H474      1.0  0.40851  0.90485  0.84272  1.0000
  H   H475      1.0  0.41643  0.89662  0.80061  1.0000
  H   H476      1.0  0.37203  0.92741  0.83370  1.0000
  H   H477      1.0  0.35188  0.90614  0.79897  1.0000
  H   H478      1.0  0.36848  0.89541  0.82883  1.0000
  H   H479      1.0  0.44991  0.91778  0.75638  1.0000
  C   C300      1.0  0.28488  0.83071  0.58156  1.0000
  H   H480      1.0  0.32446  0.82061  0.59243  1.0000
  H   H481      1.0  0.27507  0.78407  0.60515  1.0000
  H   H482      1.0  0.29154  0.82796  0.60913  1.0000
  H   H483      1.0  0.30190  0.84770  0.56949  1.0000
  C   C301      1.0  0.37449  0.99058  0.75517  1.0000
  H   H484      1.0  0.35596  0.98543  0.76708  1.0000
  H   H485      1.0  0.26963  0.85719  0.57227  1.0000
  N   N23       1.0  0.04035  0.63906  0.89971  1.0000
  H   H486      1.0  0.22712  0.68380  0.90406  1.0000
  H   H487      1.0  0.21050  0.68236  0.86242  1.0000
  C   C302      1.0  0.41993  0.97698  0.81606  1.0000
  H   H488      1.0  0.05120  0.69031  0.86787  1.0000
  H   H489      1.0  0.24180  0.80388  0.53393  1.0000
  H   H490      1.0  0.45123  0.80562  0.70864  1.0000
  H   H491      1.0  0.46366  0.85947  0.79822  1.0000
  H   H492      1.0  0.07666  0.66951  0.92120  1.0000
  C   C303      1.0  0.18752  0.65510  0.90453  1.0000
  C   C304      1.0  0.07993  0.53000  0.81736  1.0000
  C   C305      1.0  0.13092  0.68291  0.98599  1.0000
  H   H493      1.0  0.07294  0.67956  0.85178  1.0000
  H   H494      1.0  0.08343  0.70499  0.88471  1.0000
  C   C306      1.0  0.06682  0.68631  0.87612  1.0000
  H   H495      1.0  0.05707  0.63666  0.84807  1.0000
  H   H496      1.0  0.45759  0.96025  0.77933  1.0000
  H   H497      1.0  0.42150  0.91296  0.73176  1.0000
  H   H498      1.0  0.24926  0.54140  0.76624  1.0000
  C   C307      1.0  0.44038  0.92761  0.74282  1.0000
  H   H499      1.0  0.45250  0.93840  0.71879  1.0000
  H   H500      1.0  0.19928  0.53763  0.79629  1.0000
  C   C308      1.0  0.21583  0.54460  0.77709  1.0000
  H   H501      1.0  0.23884  0.53453  0.81235  1.0000
  C   C309      1.0  0.44598  0.51860  0.69278  1.0000
  C   C310      1.0  0.23171  0.53085  0.78327  1.0000
  H   H502      1.0  0.22821  0.56552  0.78250  1.0000
  H   H503      1.0  0.24066  0.52885  0.71020  1.0000
  H   H504      1.0  0.20895  0.54276  0.74815  1.0000
  H   H505      1.0  0.06399  0.52288  0.83762  1.0000
  H   H506      1.0  0.08813  0.52439  0.76143  1.0000
  C   C311      1.0  0.05464  0.62912  0.87675  1.0000
  H   H507      1.0  0.49255  0.82448  0.73907  1.0000
  S   S93       1.0  0.37724  0.51493  0.72880  1.0000
  C   C312      1.0  0.26039  0.80582  0.52519  1.0000
  H   H508      1.0  0.13434  0.70249  0.98698  1.0000
  C   C313      1.0  0.30103  0.80852  0.54170  1.0000
  H   H509      1.0  0.07466  0.63690  0.88712  1.0000
  C   C314      1.0  0.31949  0.80660  0.56975  1.0000
  H   H510      1.0  0.33779  0.81135  0.55556  1.0000
  H   H511      1.0  0.31155  0.78683  0.58119  1.0000
  H   H512      1.0  0.39972  0.97009  0.80769  1.0000
  C   C315      1.0  0.44903  0.92119  0.83542  1.0000
  C   C316      1.0  0.04299  0.59948  0.87391  1.0000
  H   H513      1.0  0.45123  0.77888  0.75530  1.0000
  H   H514      1.0  0.27473  0.52479  0.78470  1.0000
  H   H515      1.0  0.45011  0.92663  0.86498  1.0000
  H   H516      1.0  0.45276  0.90470  0.83318  1.0000
  H   H517      1.0  0.23228  0.73936  0.97971  1.0000
  H   H518      1.0  0.43300  0.98800  0.79308  1.0000
  H   H519      1.0  0.05700  0.59379  0.88446  1.0000
  H   H520      1.0  0.18304  0.65342  0.93447  1.0000
  H   H521      1.0  0.42415  0.99071  0.83918  1.0000
  H   H522      1.0  0.09715  0.53079  0.83032  1.0000
  H   H523      1.0  0.46643  0.80342  0.78969  1.0000
  C   C317      1.0  0.46930  0.79030  0.77099  1.0000
  H   H524      1.0  0.46499  0.93728  0.82041  1.0000
  H   H525      1.0  0.16976  0.64927  0.88832  1.0000
  H   H526      1.0  0.05003  0.67424  0.92989  1.0000
  H   H527      1.0  0.37268  0.50532  0.98603  1.0000
  H   H528      1.0  0.08523  0.55026  0.81067  1.0000
  H   H529      1.0  0.19378  0.64081  0.89808  1.0000
  C   C318      1.0  0.03123  0.62517  0.93624  1.0000
  H   H530      1.0  0.05577  0.51629  0.76968  1.0000
  C   C319      1.0  0.07194  0.51420  0.78121  1.0000
  H   H531      1.0  0.45510  0.53249  0.71571  1.0000
  H   H532      1.0  0.45594  0.52886  0.66705  1.0000
  H   H533      1.0  0.47347  0.75456  0.73533  1.0000
  C   C320      1.0  0.05234  0.62487  0.96071  1.0000
  H   H534      1.0  0.06309  0.61681  0.94611  1.0000
  H   H535      1.0  0.42555  0.51353  0.68989  1.0000
  H   H536      1.0  0.47289  0.77712  0.78872  1.0000
  H   H537      1.0  0.44181  0.50913  0.76763  1.0000
  H   H538      1.0  0.31275  0.82696  0.52657  1.0000
  H   H539      1.0  0.00912  0.61025  0.58632  1.0000
  H   H540      1.0  0.06607  0.64431  0.97139  1.0000
  H   H541      1.0  0.29603  0.79299  0.52093  1.0000
  H   H542      1.0  0.02443  0.64863  0.85208  1.0000
  H   H543      1.0  0.21407  0.51145  0.68121  1.0000
  H   H544      1.0  0.00871  0.64686  0.89472  1.0000
  C   C321      1.0  0.01789  0.63767  0.87853  1.0000
  H   H545      1.0  0.49119  0.73282  0.70331  1.0000
  H   H546      1.0  0.45530  0.60521  0.51663  1.0000
  S   S94       1.0  0.14862  0.51341  0.74854  1.0000
  H   H547      1.0  0.25498  0.78807  0.50879  1.0000
  H   H548      1.0  0.02465  0.58773  0.88846  1.0000
  H   H549      1.0  0.27988  0.84752  0.51261  1.0000
  H   H550      1.0  0.03944  0.59359  0.84441  1.0000
  H   H551      1.0  0.44776  0.80091  0.65999  1.0000
  H   H552      1.0  0.45505  0.76788  0.69080  1.0000
  H   H553      1.0  0.47682  0.82643  0.67826  1.0000
  H   H554      1.0  0.19929  0.72682  0.99041  1.0000
  H   H555      1.0  0.02640  0.61251  0.64916  1.0000
  C   C322      1.0  0.46175  0.80625  0.68308  1.0000
  H   H556      1.0  0.47772  0.78513  0.65583  1.0000
  C   C323      1.0  0.49258  0.76796  0.72311  1.0000
  C   C324      1.0  0.49259  0.80634  0.74558  1.0000
  C   C325      1.0  0.22500  0.50916  0.70443  1.0000
  H   H557      1.0  0.48547  0.75028  0.66747  1.0000
  C   C326      1.0  0.47209  0.78697  0.68451  1.0000
  H   H558      1.0  0.04324  0.61245  0.98528  1.0000
  C   C327      1.0  0.26351  0.50690  0.76845  1.0000
  H   H559      1.0  0.26491  0.51148  0.73868  1.0000
  H   H560      1.0  0.02180  0.63391  0.95286  1.0000
  H   H561      1.0  0.46842  0.50389  0.76298  1.0000
  H   H562      1.0  0.19870  0.51033  0.57039  1.0000
  H   H563      1.0  0.01599  0.60490  0.93304  1.0000
  H   H564      1.0  0.48378  0.78200  0.91089  1.0000
  C   C328      1.0  0.00588  0.59842  0.64356  1.0000
  S   S95       1.0  0.49724  0.87376  0.73372  1.0000
  H   H565      1.0  0.00485  0.57965  0.63812  1.0000
  N   N24       1.0  0.49388  0.79291  0.71111  1.0000
  C   C329      1.0  0.49698  0.75246  0.69265  1.0000
  H   H566      1.0  0.50216  0.76580  0.95074  1.0000
  H   H567      1.0  0.48747  0.80995  0.93639  1.0000
  S   S96       1.0  0.49072  0.60581  0.75878  1.0000
  C   C330      1.0  0.49418  0.80333  0.91237  1.0000
  H   H568      1.0  0.48881  0.81050  0.88738  1.0000
  C   C331      1.0  0.52303  0.32096  0.23319  1.0000
  H   H569      1.0  0.79077  0.21559  0.39424  1.0000
  S   S97       1.0  0.54567  0.38487  0.30500  1.0000
  S   S98       1.0  0.60157  0.47113  0.18227  1.0000
  Fe  Fe48      1.0  0.65437  0.11360  0.36135  1.0000
  S   S99       1.0  0.67991  0.10131  0.33197  1.0000
  S   S100      1.0  0.64085  0.10976  0.42154  1.0000
  Fe  Fe49      1.0  0.64490  0.13607  0.29007  1.0000
  S   S101      1.0  0.67021  0.12606  0.25627  1.0000
  S   S102      1.0  0.62746  0.15769  0.26101  1.0000
  Fe  Fe50      1.0  0.65023  0.08755  0.28579  1.0000
  S   S103      1.0  0.63019  0.05298  0.24623  1.0000
  Fe  Fe51      1.0  0.69760  0.14073  0.30428  1.0000
  S   S104      1.0  0.74114  0.16880  0.30508  1.0000
  S   S105      1.0  0.62367  0.09735  0.31717  1.0000
  S   S106      1.0  0.67351  0.15335  0.33616  1.0000
  Fe  Fe52      1.0  0.91075  0.32845  0.20075  1.0000
  S   S107      1.0  0.91174  0.36493  0.18287  1.0000
  S   S108      1.0  0.94787  0.32845  0.21653  1.0000
  Fe  Fe53      1.0  0.85149  0.29620  0.19214  1.0000
  S   S109      1.0  0.84945  0.33131  0.17313  1.0000
  S   S110      1.0  0.81171  0.25968  0.19213  1.0000
  Fe  Fe54      1.0  0.88407  0.34054  0.13799  1.0000
  S   S111      1.0  0.89050  0.35793  0.07970  1.0000
  Fe  Fe55      1.0  0.87725  0.35210  0.21918  1.0000
  S   S112      1.0  0.87455  0.37590  0.26592  1.0000
  S   S113      1.0  0.88476  0.30443  0.15397  1.0000
  S   S114      1.0  0.87757  0.31664  0.24006  1.0000
  C   C332      1.0  0.97704  0.35693  0.22741  1.0000
  H   H570      1.0  0.60000  0.06090  0.11213  1.0000
  H   H571      1.0  0.75265  0.14800  0.40892  1.0000
  H   H572      1.0  0.79614  0.48624  0.38513  1.0000
  C   C333      1.0  0.88793  0.34410  0.03515  1.0000
  C   C334      1.0  0.88282  0.31870  0.03036  1.0000
  H   H573      1.0  0.62672  0.14134  0.14745  1.0000
  H   H574      1.0  0.87908  0.30637  0.05423  1.0000
  C   C335      1.0  0.95490  0.36438  0.11851  1.0000
  C   C336      1.0  0.62006  0.01941  0.24803  1.0000
  H   H575      1.0  0.57541  0.07056  0.27439  1.0000
  H   H576      1.0  0.66422  0.47215  0.09446  1.0000
  C   C337      1.0  0.71805  0.19485  0.42190  1.0000
  H   H577      1.0  0.55667  0.10727  0.15613  1.0000
  C   C338      1.0  0.76026  0.19445  0.27386  1.0000
  C   C339      1.0  0.75031  0.19839  0.24094  1.0000
  C   C340      1.0  0.76640  0.21834  0.21640  1.0000
  C   C341      1.0  0.79256  0.23490  0.22455  1.0000
  C   C342      1.0  0.80242  0.23128  0.25780  1.0000
  C   C343      1.0  0.78639  0.21113  0.28218  1.0000
  H   H578      1.0  0.73032  0.18575  0.23401  1.0000
  H   H579      1.0  0.75852  0.22085  0.19076  1.0000
  H   H580      1.0  0.82251  0.24369  0.26442  1.0000
  H   H581      1.0  0.79439  0.20822  0.30741  1.0000
  C   C344      1.0  0.65443  0.10972  0.46538  1.0000
  C   C345      1.0  0.67387  0.10326  0.46977  1.0000
  H   H582      1.0  0.72182  0.16107  0.37979  1.0000
  H   H583      1.0  0.68062  0.09739  0.44597  1.0000
  H   H584      1.0  0.66792  0.47963  0.04643  1.0000
  C   C346      1.0  0.56114  0.40810  0.26997  1.0000
  C   C347      1.0  0.58789  0.42444  0.27167  1.0000
  C   C348      1.0  0.60058  0.44390  0.24496  1.0000
  C   C349      1.0  0.58663  0.44667  0.21590  1.0000
  C   C350      1.0  0.56001  0.42984  0.21366  1.0000
  C   C351      1.0  0.54723  0.41083  0.24085  1.0000
  H   H585      1.0  0.59877  0.42235  0.29408  1.0000
  H   H586      1.0  0.62114  0.45664  0.24676  1.0000
  H   H587      1.0  0.54911  0.43177  0.19113  1.0000
  H   H588      1.0  0.52663  0.39825  0.23923  1.0000
  C   C352      1.0  0.59381  0.14487  0.26070  1.0000
  C   C353      1.0  0.58273  0.15479  0.23582  1.0000
  C   C354      1.0  0.55584  0.14410  0.23384  1.0000
  C   C355      1.0  0.53998  0.12356  0.25704  1.0000
  C   C356      1.0  0.55110  0.11392  0.28226  1.0000
  C   C357      1.0  0.57790  0.12447  0.28403  1.0000
  H   H589      1.0  0.59498  0.17061  0.21774  1.0000
  H   H590      1.0  0.54741  0.15164  0.21436  1.0000
  H   H591      1.0  0.53896  0.09824  0.30057  1.0000
  H   H592      1.0  0.58626  0.11693  0.30360  1.0000
  C   C358      1.0  0.87256  0.45121  0.24924  1.0000
  C   C359      1.0  0.86807  0.43464  0.21919  1.0000
  C   C360      1.0  0.86914  0.41173  0.22371  1.0000
  C   C361      1.0  0.87413  0.40498  0.25857  1.0000
  C   C362      1.0  0.87825  0.42136  0.28872  1.0000
  C   C363      1.0  0.87771  0.44454  0.28404  1.0000
  H   H593      1.0  0.86407  0.43973  0.19219  1.0000
  H   H594      1.0  0.86588  0.39922  0.20032  1.0000
  H   H595      1.0  0.88199  0.41614  0.31580  1.0000
  H   H596      1.0  0.88112  0.45714  0.30736  1.0000
  C   C364      1.0  0.76967  0.20257  0.39236  1.0000
  H   H597      1.0  0.67733  0.16433  0.41739  1.0000
  H   H598      1.0  0.72248  0.20408  0.49646  1.0000
  H   H599      1.0  0.55836  0.10124  0.20471  1.0000
  H   H600      1.0  0.99041  0.34317  0.07017  1.0000
  H   H601      1.0  0.61031  0.08670  0.22650  1.0000
  H   H602      1.0  0.64418  0.02134  0.29353  1.0000
  H   H603      1.0  0.51674  0.27489  0.21816  1.0000
  C   C365      1.0  0.00262  0.40356  0.23305  1.0000
  H   H604      1.0  0.72805  0.12895  0.44248  1.0000
  H   H605      1.0  0.62997  0.12108  0.49392  1.0000
  C   C366      1.0  0.53785  0.44971  0.31260  1.0000
  H   H606      1.0  0.72827  0.21436  0.43458  1.0000
  N   N25       1.0  0.78582  0.30543  0.25763  1.0000
  C   C367      1.0  0.81231  0.30893  0.26466  1.0000
  C   C368      1.0  0.78759  0.32042  0.22296  1.0000
  C   C369      1.0  0.76803  0.27713  0.25058  1.0000
  C   C370      1.0  0.77759  0.31456  0.29114  1.0000
  C   C371      1.0  0.81526  0.29493  0.29881  1.0000
  C   C372      1.0  0.80609  0.34979  0.22482  1.0000
  C   C373      1.0  0.73953  0.26856  0.24356  1.0000
  C   C374      1.0  0.75663  0.32239  0.28532  1.0000
  H   H607      1.0  0.81914  0.30268  0.24024  1.0000
  H   H608      1.0  0.82654  0.32958  0.26886  1.0000
  H   H609      1.0  0.76868  0.31771  0.21421  1.0000
  H   H610      1.0  0.79386  0.31295  0.19919  1.0000
  H   H611      1.0  0.77487  0.27080  0.22627  1.0000
  H   H612      1.0  0.76794  0.26513  0.27422  1.0000
  H   H613      1.0  0.77071  0.29956  0.31323  1.0000
  H   H614      1.0  0.79451  0.33184  0.30310  1.0000
  H   H615      1.0  0.80542  0.27377  0.29513  1.0000
  H   H616      1.0  0.83599  0.30118  0.30251  1.0000
  H   H617      1.0  0.80877  0.29986  0.32465  1.0000
  H   H618      1.0  0.82639  0.35438  0.22239  1.0000
  H   H619      1.0  0.80239  0.35933  0.20096  1.0000
  H   H620      1.0  0.80391  0.35870  0.25036  1.0000
  H   H621      1.0  0.72930  0.24759  0.23718  1.0000
  H   H622      1.0  0.73662  0.27830  0.21939  1.0000
  H   H623      1.0  0.73022  0.27089  0.26860  1.0000
  H   H624      1.0  0.74331  0.31556  0.30932  1.0000
  H   H625      1.0  0.74459  0.31450  0.26041  1.0000
  H   H626      1.0  0.76534  0.34372  0.28525  1.0000
  H   H627      1.0  0.53802  0.31912  0.21809  1.0000
  H   H628      1.0  0.68479  0.18254  0.45969  1.0000
  H   H629      1.0  0.76793  0.18438  0.44494  1.0000
  C   C375      1.0  0.95006  0.49139  0.23247  1.0000
  H   H630      1.0  0.57310  0.03712  0.18633  1.0000
  H   H631      1.0  0.56576  0.03950  0.11904  1.0000
  H   H632      1.0  0.94236  0.47578  0.17542  1.0000
  C   C376      1.0  0.60593  0.09973  0.15577  1.0000
  C   C377      1.0  0.99387  0.39369  0.38657  1.0000
  H   H633      1.0  0.63059  0.48167  0.10265  1.0000
  H   H634      1.0  0.78894  0.48805  0.43359  1.0000
  C   C378      1.0  0.57260  0.45369  0.03012  1.0000
  H   H635      1.0  0.52750  0.44316  0.28589  1.0000
  H   H636      1.0  0.96239  0.38301  0.21820  1.0000
  H   H637      1.0  0.76158  0.21320  0.37729  1.0000
  H   H638      1.0  0.69854  0.14269  0.41324  1.0000
  H   H639      1.0  0.93421  0.35886  0.11733  1.0000
  C   C379      1.0  0.94123  0.30750  0.11225  1.0000
  C   C380      1.0  0.59083  0.08355  0.21924  1.0000
  H   H640      1.0  0.53289  0.26369  0.29421  1.0000
  C   C381      1.0  0.63994  0.48753  0.07501  1.0000
  H   H641      1.0  0.85910  0.48898  0.50012  1.0000
  N   N26       1.0  0.62078  0.48514  0.04571  1.0000
  C   C382      1.0  0.56636  0.47054  0.30771  1.0000
  H   H642      1.0  0.57580  0.46157  0.29185  1.0000
  C   C383      1.0  0.57129  0.06289  0.24579  1.0000
  H   H643      1.0  0.58825  0.02873  0.12829  1.0000
  H   H644      1.0  0.98756  0.37609  0.40387  1.0000
  H   H645      1.0  0.59172  0.10188  0.22692  1.0000
  C   C384      1.0  0.50834  0.28355  0.34934  1.0000
  C   C385      1.0  0.73174  0.13783  0.41462  1.0000
  H   H646      1.0  0.72037  0.19831  0.39151  1.0000
  H   H647      1.0  0.53708  0.43241  0.32566  1.0000
  H   H648      1.0  0.54005  0.49729  0.31703  1.0000
  H   H649      1.0  0.76677  0.18582  0.37564  1.0000
  H   H650      1.0  0.76218  0.49916  0.24253  1.0000
  H   H651      1.0  0.00392  0.42230  0.23114  1.0000
  H   H652      1.0  0.70136  0.15635  0.47603  1.0000
  N   N27       1.0  0.58566  0.07782  0.17852  1.0000
  C   C386      1.0  0.80436  0.49423  0.41266  1.0000
  C   C387      1.0  0.97902  0.38128  0.22552  1.0000
  H   H653      1.0  0.53655  0.48393  0.25680  1.0000
  C   C388      1.0  0.71958  0.15529  0.40941  1.0000
  H   H654      1.0  0.94082  0.36759  0.05160  1.0000
  H   H655      1.0  0.57500  0.47410  0.33584  1.0000
  H   H656      1.0  0.00298  0.37671  0.07528  1.0000
  C   C389      1.0  0.75853  0.19454  0.43172  1.0000
  H   H657      1.0  0.52963  0.08235  0.18091  1.0000
  H   H658      1.0  0.54402  0.05294  0.17768  1.0000
  C   C390      1.0  0.55902  0.07212  0.16731  1.0000
  H   H659      1.0  0.59395  0.45109  0.07598  1.0000
  N   N28       1.0  0.96180  0.35385  0.08529  1.0000
  C   C391      1.0  0.55088  0.09212  0.17774  1.0000
  C   C392      1.0  0.61491  0.12738  0.16927  1.0000
  N   N29       1.0  0.53517  0.30100  0.28917  1.0000
  C   C393      1.0  0.53447  0.30164  0.33097  1.0000
  C   C394      1.0  0.56310  0.31609  0.27805  1.0000
  C   C395      1.0  0.52401  0.27317  0.27775  1.0000
  H   H660      1.0  0.52224  0.22740  0.08411  1.0000
  H   H661      1.0  0.91565  0.47728  0.19740  1.0000
  C   C396      1.0  0.57674  0.34516  0.28692  1.0000
  C   C397      1.0  0.93217  0.47402  0.20173  1.0000
  H   H662      1.0  0.92416  0.28819  0.10791  1.0000
  H   H663      1.0  0.54863  0.29671  0.34334  1.0000
  H   H664      1.0  0.54008  0.32137  0.34099  1.0000
  H   H665      1.0  0.56599  0.31467  0.24818  1.0000
  H   H666      1.0  0.57425  0.30782  0.29152  1.0000
  H   H667      1.0  0.97003  0.37257  0.33817  1.0000
  C   C398      1.0  0.94217  0.32568  0.08125  1.0000
  H   H668      1.0  0.73135  0.15792  0.48276  1.0000
  H   H669      1.0  0.53532  0.19811  0.11755  1.0000
  H   H670      1.0  0.93780  0.48631  0.25767  1.0000
  C   C399      1.0  0.99931  0.35703  0.12630  1.0000
  C   C400      1.0  0.52656  0.26776  0.23682  1.0000
  H   H671      1.0  0.56747  0.35500  0.27279  1.0000
  H   H672      1.0  0.57782  0.34899  0.31701  1.0000
  H   H673      1.0  0.59686  0.35432  0.27669  1.0000
  H   H674      1.0  0.59411  0.01070  0.20195  1.0000
  C   C401      1.0  0.64520  0.11634  0.49690  1.0000
  H   H675      1.0  0.93904  0.31384  0.14000  1.0000
  H   H676      1.0  0.96434  0.48484  0.23786  1.0000
  H   H677      1.0  0.72278  0.12173  0.39449  1.0000
  C   C402      1.0  0.98878  0.35776  0.08738  1.0000
  H   H678      1.0  0.76556  0.21278  0.44750  1.0000
  H   H679      1.0  0.95828  0.30475  0.11137  1.0000
  H   H680      1.0  0.60686  0.05700  0.18072  1.0000
  N   N30       1.0  0.72967  0.17856  0.43420  1.0000
  H   H681      1.0  0.94419  0.33961  0.00628  1.0000
  H   H682      1.0  0.52739  0.45610  0.33121  1.0000
  H   H683      1.0  0.53284  0.19418  0.06848  1.0000
  S   S115      1.0  0.87233  0.48037  0.24172  1.0000
  H   H684      1.0  0.55675  0.07014  0.13677  1.0000
  H   H685      1.0  0.62752  0.13182  0.19390  1.0000
  C   C403      1.0  0.55687  0.48858  0.25287  1.0000
  H   H686      1.0  0.68247  0.19637  0.41704  1.0000
  H   H687      1.0  0.59890  0.13100  0.17574  1.0000
  H   H688      1.0  0.51670  0.24651  0.23286  1.0000
  C   C404      1.0  0.68907  0.18362  0.42973  1.0000
  H   H689      1.0  0.92391  0.45360  0.21069  1.0000
  C   C405      1.0  0.58792  0.05412  0.17089  1.0000
  H   H690      1.0  0.63965  0.45089  0.06344  1.0000
  H   H691      1.0  0.95695  0.35582  0.14469  1.0000
  H   H692      1.0  0.54679  0.27509  0.22833  1.0000
  H   H693      1.0  0.51272  0.04268  0.33441  1.0000
  H   H694      1.0  0.94541  0.31748  0.05561  1.0000
  H   H695      1.0  0.59939  0.09869  0.12666  1.0000
  H   H696      1.0  0.92253  0.32333  0.07869  1.0000
  H   H697      1.0  0.52274  0.32956  0.29072  1.0000
  H   H698      1.0  0.97454  0.38852  0.05212  1.0000
  H   H699      1.0  0.97880  0.35412  0.01267  1.0000
  C   C406      1.0  0.52156  0.19156  0.09404  1.0000
  H   H700      1.0  0.51217  0.36000  0.48982  1.0000
  C   C407      1.0  0.59834  0.45800  0.04678  1.0000
  H   H701      1.0  0.60341  0.44451  0.03272  1.0000
  H   H702      1.0  0.96233  0.40333  0.10431  1.0000
  H   H703      1.0  0.55126  0.05808  0.23965  1.0000
  C   C408      1.0  0.50763  0.20754  0.09277  1.0000
  H   H704      1.0  0.51568  0.04962  0.28555  1.0000
  C   C409      1.0  0.72240  0.16953  0.47356  1.0000
  S   S116      1.0  0.50620  0.10865  0.25493  1.0000
  H   H705      1.0  0.50956  0.28793  0.37933  1.0000
  H   H706      1.0  0.95345  0.37938  0.37357  1.0000
  C   C410      1.0  0.58527  0.04570  0.13006  1.0000
  N   N31       1.0  0.57123  0.49536  0.28935  1.0000
  H   H707      1.0  0.55570  0.47079  0.24110  1.0000
  C   C411      1.0  0.51929  0.31240  0.27426  1.0000
  H   H708      1.0  0.99433  0.40830  0.40609  1.0000
  H   H709      1.0  0.52798  0.34154  0.23126  1.0000
  C   C412      1.0  0.95957  0.36779  0.05166  1.0000
  H   H710      1.0  0.62385  0.09828  0.15432  1.0000
  H   H711      1.0  0.54570  0.37204  0.49045  1.0000
  H   H712      1.0  0.57311  0.04524  0.24607  1.0000
  C   C413      1.0  0.63022  0.00896  0.27331  1.0000
  H   H713      1.0  0.56314  0.43490  0.01545  1.0000
  H   H714      1.0  0.81620  0.48530  0.42064  1.0000
  H   H715      1.0  0.50901  0.20865  0.02060  1.0000
  H   H716      1.0  0.97468  0.40478  0.34362  1.0000
  C   C414      1.0  0.97019  0.39397  0.12287  1.0000
  H   H717      1.0  0.98651  0.33960  0.14248  1.0000
  H   H718      1.0  0.66392  0.01332  0.16622  1.0000
  C   C415      1.0  0.97201  0.38731  0.35851  1.0000
  H   H719      1.0  0.99098  0.40206  0.11729  1.0000
  H   H720      1.0  0.55447  0.50180  0.19756  1.0000
  H   H721      1.0  0.96809  0.39917  0.15160  1.0000
  C   C416      1.0  0.65347  0.47144  0.06896  1.0000
  H   H722      1.0  0.58568  0.48361  0.09902  1.0000
  C   C417      1.0  0.60208  0.00294  0.22173  1.0000
  H   H723      1.0  0.50471  0.30968  0.21785  1.0000
  H   H724      1.0  0.50800  0.17082  0.09818  1.0000
  H   H725      1.0  0.99762  0.33642  0.23901  1.0000
  C   C418      1.0  0.99890  0.35516  0.23757  1.0000
  H   H726      1.0  0.61717  0.50144  0.32967  1.0000
  H   H727      1.0  0.60627  0.50106  0.26352  1.0000
  H   H728      1.0  0.89627  0.37929  0.00688  1.0000
  H   H729      1.0  0.55909  0.45188  0.05248  1.0000
  C   C419      1.0  0.96214  0.35750  0.01374  1.0000
  C   C420      1.0  0.73009  0.19089  0.50275  1.0000
  C   C421      1.0  0.63437  0.49095  0.00889  1.0000
  H   H730      1.0  0.57412  0.46831  0.00996  1.0000
  H   H731      1.0  0.00324  0.37418  0.14295  1.0000
  S   S117      1.0  0.84873  0.45269  0.68485  1.0000
  S   S118      1.0  0.54808  0.14775  0.81612  1.0000
  S   S119      1.0  0.53345  0.40789  0.68905  1.0000
  S   S120      1.0  0.60703  0.46175  0.82604  1.0000
  Fe  Fe56      1.0  0.67630  0.11981  0.63605  1.0000
  S   S121      1.0  0.69027  0.10875  0.68775  1.0000
  S   S122      1.0  0.69009  0.11323  0.58018  1.0000
  Fe  Fe57      1.0  0.64148  0.13385  0.68092  1.0000
  S   S123      1.0  0.65245  0.12311  0.73441  1.0000
  S   S124      1.0  0.61167  0.14681  0.67626  1.0000
  Fe  Fe58      1.0  0.69324  0.14507  0.71265  1.0000
  S   S125      1.0  0.72092  0.17447  0.75511  1.0000
  Fe  Fe59      1.0  0.64858  0.08816  0.70500  1.0000
  S   S126      1.0  0.61993  0.04699  0.72380  1.0000
  S   S127      1.0  0.68208  0.15725  0.65987  1.0000
  S   S128      1.0  0.63485  0.09784  0.65240  1.0000
  Fe  Fe60      1.0  0.88499  0.32925  0.86240  1.0000
  S   S129      1.0  0.89550  0.31554  0.81013  1.0000
  S   S130      1.0  0.88717  0.31213  0.91846  1.0000
  Fe  Fe61      1.0  0.86827  0.36200  0.81816  1.0000
  S   S131      1.0  0.87669  0.35014  0.76372  1.0000
  S   S132      1.0  0.85647  0.39247  0.82489  1.0000
  Fe  Fe62      1.0  0.85773  0.30988  0.78762  1.0000
  S   S133      1.0  0.83291  0.27493  0.75056  1.0000
  Fe  Fe63      1.0  0.91367  0.35678  0.79032  1.0000
  S   S134      1.0  0.94928  0.38386  0.75594  1.0000
  S   S135      1.0  0.84644  0.32146  0.84051  1.0000
  S   S136      1.0  0.90594  0.37072  0.84408  1.0000
  C   C422      1.0  0.97976  0.38602  0.74861  1.0000
  C   C423      1.0  0.57626  0.39702  0.55619  1.0000
  H   H732      1.0  0.52816  0.03162  0.73062  1.0000
  C   C424      1.0  0.66493  0.03282  0.55979  1.0000
  H   H733      1.0  0.75374  0.40512  0.73685  1.0000
  C   C425      1.0  0.88688  0.32476  0.96296  1.0000
  C   C426      1.0  0.89159  0.35001  0.96774  1.0000
  H   H734      1.0  0.81637  0.46526  0.73286  1.0000
  H   H735      1.0  0.89498  0.36225  0.94384  1.0000
  C   C427      1.0  0.62012  0.01913  0.74159  1.0000
  H   H736      1.0  0.95497  0.48260  0.69498  1.0000
  H   H737      1.0  0.79842  0.49716  0.84060  1.0000
  H   H738      1.0  0.66119  0.03587  0.74639  1.0000
  H   H739      1.0  0.59734  0.07460  0.76892  1.0000
  C   C428      1.0  0.75142  0.20322  0.75199  1.0000
  C   C429      1.0  0.76750  0.20900  0.72122  1.0000
  C   C430      1.0  0.79211  0.23123  0.72111  1.0000
  C   C431      1.0  0.80083  0.24834  0.75128  1.0000
  C   C432      1.0  0.78434  0.24307  0.78148  1.0000
  C   C433      1.0  0.76006  0.22043  0.78210  1.0000
  H   H740      1.0  0.76129  0.19600  0.69789  1.0000
  H   H741      1.0  0.80462  0.23505  0.69755  1.0000
  H   H742      1.0  0.79057  0.25610  0.80468  1.0000
  H   H743      1.0  0.74792  0.21619  0.80616  1.0000
  H   H744      1.0  0.54711  0.07327  0.70687  1.0000
  C   C434      1.0  0.67549  0.11133  0.53651  1.0000
  C   C435      1.0  0.65565  0.11719  0.53223  1.0000
  C   C436      1.0  0.58732  0.38053  0.53998  1.0000
  H   H745      1.0  0.64849  0.12261  0.55607  1.0000
  C   C437      1.0  0.55416  0.42170  0.72720  1.0000
  C   C438      1.0  0.54738  0.41115  0.76269  1.0000
  C   C439      1.0  0.56397  0.42345  0.79267  1.0000
  C   C440      1.0  0.58741  0.44628  0.78737  1.0000
  C   C441      1.0  0.59435  0.45661  0.75175  1.0000
  C   C442      1.0  0.57770  0.44441  0.72182  1.0000
  H   H746      1.0  0.52930  0.39365  0.76710  1.0000
  H   H747      1.0  0.55855  0.41530  0.82013  1.0000
  H   H748      1.0  0.61252  0.47398  0.74731  1.0000
  H   H749      1.0  0.58311  0.45261  0.69439  1.0000
  C   C443      1.0  0.56561  0.14789  0.77690  1.0000
  C   C444      1.0  0.55842  0.15085  0.74117  1.0000
  C   C445      1.0  0.57296  0.15092  0.71056  1.0000
  C   C446      1.0  0.59425  0.14721  0.71537  1.0000
  C   C447      1.0  0.60127  0.14403  0.75112  1.0000
  C   C448      1.0  0.58732  0.14493  0.78178  1.0000
  H   H750      1.0  0.54194  0.15353  0.73714  1.0000
  H   H751      1.0  0.56748  0.15352  0.68300  1.0000
  H   H752      1.0  0.61756  0.14113  0.75527  1.0000
  H   H753      1.0  0.59304  0.14275  0.80938  1.0000
  C   C449      1.0  0.85159  0.43631  0.72373  1.0000
  C   C450      1.0  0.84513  0.41033  0.72049  1.0000
  C   C451      1.0  0.84715  0.39680  0.75112  1.0000
  C   C452      1.0  0.85494  0.40901  0.78543  1.0000
  C   C453      1.0  0.86130  0.43492  0.78866  1.0000
  C   C454      1.0  0.86010  0.44865  0.75777  1.0000
  H   H754      1.0  0.83863  0.40066  0.69418  1.0000
  H   H755      1.0  0.84212  0.37678  0.74842  1.0000
  H   H756      1.0  0.86747  0.44448  0.81511  1.0000
  H   H757      1.0  0.86538  0.46864  0.76060  1.0000
  H   H758      1.0  0.55132  0.43662  0.61399  1.0000
  C   C455      1.0  0.79499  0.45364  0.73443  1.0000
  H   H759      1.0  0.78869  0.46608  0.68068  1.0000
  N   N32       1.0  0.93233  0.44347  0.71519  1.0000
  H   H760      1.0  0.78724  0.48625  0.77793  1.0000
  C   C456      1.0  0.52111  0.03566  0.75690  1.0000
  H   H761      1.0  0.58667  0.08606  0.73107  1.0000
  H   H762      1.0  0.79799  0.40916  0.75213  1.0000
  H   H763      1.0  0.55014  0.36364  0.64727  1.0000
  H   H764      1.0  0.54390  0.46828  0.70070  1.0000
  C   C457      1.0  0.54215  0.35698  0.58761  1.0000
  H   H765      1.0  0.91952  0.45029  0.66189  1.0000
  C   C458      1.0  0.91930  0.42903  0.75007  1.0000
  C   C459      1.0  0.52012  0.07179  0.79160  1.0000
  C   C460      1.0  0.91202  0.43690  0.68590  1.0000
  C   C461      1.0  0.93591  0.43670  0.78544  1.0000
  N   N33       1.0  0.53415  0.06434  0.76387  1.0000
  H   H766      1.0  0.94266  0.41421  0.70106  1.0000
  C   C462      1.0  0.89922  0.40910  0.67100  1.0000
  H   H767      1.0  0.99014  0.41462  0.70561  1.0000
  C   C463      1.0  0.78404  0.46732  0.71006  1.0000
  H   H768      1.0  0.51144  0.03989  0.83080  1.0000
  C   C464      1.0  0.61241  0.03552  0.58832  1.0000
  C   C465      1.0  0.79274  0.47700  0.83298  1.0000
  H   H769      1.0  0.89621  0.43976  0.69662  1.0000
  H   H770      1.0  0.55964  0.06137  0.80430  1.0000
  H   H771      1.0  0.68854  0.07176  0.62935  1.0000
  C   C466      1.0  0.64278  0.01861  0.74981  1.0000
  H   H772      1.0  0.79295  0.43341  0.82437  1.0000
  H   H773      1.0  0.77244  0.46473  0.84146  1.0000
  H   H774      1.0  0.55437  0.33830  0.62873  1.0000
  H   H775      1.0  0.81997  0.44858  0.79452  1.0000
  H   H776      1.0  0.88340  0.40615  0.65188  1.0000
  H   H777      1.0  0.91292  0.40549  0.65493  1.0000
  H   H778      1.0  0.89046  0.39455  0.69335  1.0000
  H   H779      1.0  0.73038  0.41568  0.73299  1.0000
  H   H780      1.0  0.95243  0.43319  0.78311  1.0000
  H   H781      1.0  0.90225  0.43107  0.75625  1.0000
  C   C467      1.0  0.56984  0.49820  0.83077  1.0000
  H   H782      1.0  0.75223  0.42784  0.80756  1.0000
  N   N34       1.0  0.78636  0.44949  0.77427  1.0000
  H   H783      1.0  0.55532  0.47743  0.82967  1.0000
  H   H784      1.0  0.67514  0.05312  0.56889  1.0000
  H   H785      1.0  0.74946  0.44809  0.77415  1.0000
  H   H786      1.0  0.60336  0.47384  0.96749  1.0000
  H   H787      1.0  0.55161  0.46601  0.76572  1.0000
  H   H788      1.0  0.52970  0.09318  0.79411  1.0000
  H   H789      1.0  0.98493  0.46631  0.67458  1.0000
  H   H790      1.0  0.75125  0.20211  0.50642  1.0000
  H   H791      1.0  0.91171  0.40796  0.74657  1.0000
  C   C468      1.0  0.64880  0.01259  0.58977  1.0000
  C   C469      1.0  0.57996  0.07104  0.75302  1.0000
  C   C470      1.0  0.95163  0.43552  0.70368  1.0000
  N   N35       1.0  0.54907  0.38283  0.57091  1.0000
  C   C471      1.0  0.79867  0.43623  0.79476  1.0000
  C   C472      1.0  0.68443  0.10421  0.50512  1.0000
  H   H792      1.0  0.59365  0.02258  0.60161  1.0000
  C   C473      1.0  0.63489  0.04302  0.61557  1.0000
  H   H793      1.0  0.51921  0.08961  0.68542  1.0000
  C   C474      1.0  0.51323  0.07650  0.70977  1.0000
  C   C475      1.0  0.96697  0.44817  0.66807  1.0000
  H   H794      1.0  0.65281  0.03117  0.53548  1.0000
  C   C476      1.0  0.92932  0.48340  0.73545  1.0000
  H   H795      1.0  0.56714  0.43649  0.57211  1.0000
  H   H796      1.0  0.87886  0.28965  0.99122  1.0000
  C   C477      1.0  0.79653  0.47596  0.79095  1.0000
  C   C478      1.0  0.89231  0.35963  0.00359  1.0000
  H   H797      1.0  0.57805  0.41108  0.53439  1.0000
  H   H798      1.0  0.52947  0.47608  0.77932  1.0000
  H   H799      1.0  0.60596  0.39350  0.52631  1.0000
  N   N36       1.0  0.67521  0.21539  0.76125  1.0000
  C   C479      1.0  0.66368  0.19915  0.79541  1.0000
  C   C480      1.0  0.66298  0.23214  0.75597  1.0000
  C   C481      1.0  0.70388  0.23234  0.76494  1.0000
  C   C482      1.0  0.67020  0.19786  0.72873  1.0000
  C   C483      1.0  0.67542  0.18239  0.80794  1.0000
  C   C484      1.0  0.63482  0.21815  0.74229  1.0000
  C   C485      1.0  0.71310  0.24974  0.79938  1.0000
  C   C486      1.0  0.67960  0.21128  0.69079  1.0000
  H   H800      1.0  0.66468  0.21129  0.81936  1.0000
  H   H801      1.0  0.64283  0.18567  0.79134  1.0000
  H   H802      1.0  0.67428  0.24840  0.73664  1.0000
  H   H803      1.0  0.66307  0.24173  0.78237  1.0000
  H   H804      1.0  0.71373  0.22064  0.76469  1.0000
  H   H805      1.0  0.71186  0.24530  0.74049  1.0000
  H   H806      1.0  0.67985  0.18613  0.73268  1.0000
  H   H807      1.0  0.64959  0.18314  0.72654  1.0000
  H   H808      1.0  0.66609  0.17242  0.83413  1.0000
  H   H809      1.0  0.67172  0.16708  0.78766  1.0000
  H   H810      1.0  0.69633  0.19382  0.81356  1.0000
  H   H811      1.0  0.62753  0.23207  0.74135  1.0000
  H   H812      1.0  0.63308  0.21053  0.71384  1.0000
  H   H813      1.0  0.62194  0.20227  0.76104  1.0000
  H   H814      1.0  0.73441  0.26161  0.79839  1.0000
  H   H815      1.0  0.70831  0.23839  0.82537  1.0000
  H   H816      1.0  0.70532  0.26321  0.80017  1.0000
  H   H817      1.0  0.69918  0.21442  0.68467  1.0000
  H   H818      1.0  0.68007  0.22999  0.68849  1.0000
  H   H819      1.0  0.66614  0.19894  0.66887  1.0000
  C   C487      1.0  0.52984  0.37912  0.54109  1.0000
  C   C488      1.0  0.99640  0.40348  0.72186  1.0000
  H   H820      1.0  0.56978  0.09322  0.78903  1.0000
  C   C489      1.0  0.53757  0.07901  0.72831  1.0000
  H   H821      1.0  0.92383  0.42443  0.80859  1.0000
  C   C490      1.0  0.68953  0.05469  0.63926  1.0000
  H   H822      1.0  0.79051  0.43552  0.72020  1.0000
  C   C491      1.0  0.54469  0.47980  0.75863  1.0000
  H   H823      1.0  0.52136  0.34633  0.59508  1.0000
  H   H824      1.0  0.53388  0.39788  0.52880  1.0000
  C   C492      1.0  0.74217  0.41152  0.75274  1.0000
  H   H825      1.0  0.96627  0.44018  0.72570  1.0000
  C   C493      1.0  0.98809  0.37153  0.76907  1.0000
  H   H826      1.0  0.66744  0.01718  0.66136  1.0000
  H   H827      1.0  0.52700  0.38787  0.61438  1.0000
  H   H828      1.0  0.72832  0.39469  0.76941  1.0000
  H   H829      1.0  0.55056  0.09989  0.73305  1.0000
  C   C494      1.0  0.79235  0.40927  0.78122  1.0000
  Fe  Fe64      1.0  0.86304  0.49561  0.68800  1.0000
  H   H830      1.0  0.96493  0.37189  0.99201  1.0000
  H   H831      1.0  0.80547  0.47190  0.84907  1.0000
  H   H832      1.0  0.94265  0.45692  0.79363  1.0000
  H   H833      1.0  0.59369  0.49780  0.78675  1.0000
  H   H834      1.0  0.80357  0.40259  0.79802  1.0000
  H   H835      1.0  0.81819  0.22611  0.93324  1.0000
  H   H836      1.0  0.69840  0.04819  0.61798  1.0000
  H   H837      1.0  0.97557  0.35804  0.78972  1.0000
  N   N37       1.0  0.84745  0.23534  0.86497  1.0000
  C   C495      1.0  0.87029  0.24067  0.84100  1.0000
  C   C496      1.0  0.82564  0.20917  0.85450  1.0000
  C   C497      1.0  0.85488  0.23537  0.90502  1.0000
  C   C498      1.0  0.84096  0.25642  0.85755  1.0000
  C   C499      1.0  0.89678  0.26239  0.85426  1.0000
  C   C500      1.0  0.81750  0.20573  0.81350  1.0000
  C   C501      1.0  0.83303  0.22020  0.93303  1.0000
  C   C502      1.0  0.81829  0.25536  0.87914  1.0000
  H   H838      1.0  0.87224  0.22307  0.83827  1.0000
  H   H839      1.0  0.86761  0.24586  0.81227  1.0000
  H   H840      1.0  0.80803  0.20394  0.87074  1.0000
  H   H841      1.0  0.83082  0.19401  0.86126  1.0000
  H   H842      1.0  0.86764  0.22671  0.90775  1.0000
  H   H843      1.0  0.86626  0.25550  0.91548  1.0000
  H   H844      1.0  0.85763  0.27548  0.86416  1.0000
  H   H845      1.0  0.83798  0.25844  0.82761  1.0000
  H   H846      1.0  0.90453  0.25568  0.87707  1.0000
  H   H847      1.0  0.91077  0.26833  0.83111  1.0000
  H   H848      1.0  0.89626  0.27976  0.86367  1.0000
  H   H849      1.0  0.80079  0.18613  0.80948  1.0000
  H   H850      1.0  0.81121  0.21954  0.80483  1.0000
  H   H851      1.0  0.83296  0.20739  0.79484  1.0000
  H   H852      1.0  0.57202  0.05169  0.74037  1.0000
  H   H853      1.0  0.84140  0.22382  0.96131  1.0000
  H   H854      1.0  0.82384  0.19910  0.92836  1.0000
  H   H855      1.0  0.82462  0.26421  0.90690  1.0000
  H   H856      1.0  0.80162  0.23576  0.88152  1.0000
  H   H857      1.0  0.81078  0.26643  0.86378  1.0000
  H   H858      1.0  0.59007  0.40900  0.57817  1.0000
  H   H859      1.0  0.81755  0.48818  0.78546  1.0000
  H   H860      1.0  0.54448  0.34428  0.56751  1.0000
  N   N38       1.0  0.64181  0.02235  0.62386  1.0000
  C   C503      1.0  0.94615  0.47219  0.72122  1.0000
  H   H861      1.0  0.58440  0.49992  0.85139  1.0000
  H   H862      1.0  0.59145  0.36997  0.56183  1.0000
  C   C504      1.0  0.53120  0.47059  0.72090  1.0000
  C   C505      1.0  0.75749  0.43489  0.77861  1.0000
  C   C506      1.0  0.56067  0.07289  0.77940  1.0000
  H   H863      1.0  0.77187  0.39489  0.78572  1.0000
  H   H864      1.0  0.63312  0.49891  0.95074  1.0000
  H   H865      1.0  0.76288  0.45839  0.71203  1.0000
  H   H866      1.0  0.96262  0.47810  0.74055  1.0000
  H   H867      1.0  0.57821  0.37131  0.62016  1.0000
  H   H868      1.0  0.56062  0.40315  0.62330  1.0000
  H   H869      1.0  0.97203  0.43461  0.65432  1.0000
  H   H870      1.0  0.61142  0.00722  0.66512  1.0000
  H   H871      1.0  0.95595  0.45243  0.64732  1.0000
  Fe  Fe65      1.0  0.50591  0.13587  0.81051  1.0000
  C   C507      1.0  0.55730  0.35788  0.62281  1.0000
  H   H872      1.0  0.61441  0.02646  0.56282  1.0000
  H   H873      1.0  0.51416  0.45110  0.72435  1.0000
  H   H874      1.0  0.61192  0.05325  0.57989  1.0000
  H   H875      1.0  0.65760  0.03926  0.67700  1.0000
  H   H876      1.0  0.65134  0.06092  0.60486  1.0000
  H   H877      1.0  0.53669  0.07126  0.84578  1.0000
  C   C508      1.0  0.52825  0.36236  0.50789  1.0000
  H   H878      1.0  0.70285  0.06123  0.66330  1.0000
  H   H879      1.0  0.69961  0.09941  0.50816  1.0000
  H   H880      1.0  0.91956  0.47458  0.76188  1.0000
  H   H881      1.0  0.62955  0.04904  0.64166  1.0000
  H   H882      1.0  0.52394  0.34268  0.51602  1.0000
  H   H883      1.0  0.53239  0.42289  0.57370  1.0000
  H   H884      1.0  0.52437  0.48332  0.70931  1.0000
  H   H885      1.0  0.67991  0.02859  0.54921  1.0000
  H   H886      1.0  0.79299  0.48813  0.71676  1.0000
  C   C509      1.0  0.51805  0.06082  0.83091  1.0000
  C   C510      1.0  0.54956  0.42517  0.58887  1.0000
  H   H887      1.0  0.72186  0.18167  0.52987  1.0000
  H   H888      1.0  0.51021  0.37060  0.55323  1.0000
  C   C511      1.0  0.61986  0.49284  0.97485  1.0000
  C   C512      1.0  0.66331  0.03254  0.65190  1.0000
  Fe  Fe66      1.0  0.64136  0.50210  0.82271  1.0000
  H   H889      1.0  0.91481  0.48156  0.71467  1.0000
  C   C513      1.0  0.54624  0.39881  0.60092  1.0000
  C   C514      1.0  0.88259  0.30922  0.99452  1.0000
  H   H890      1.0  0.57481  0.36654  0.51900  1.0000
  H   H891      1.0  0.50419  0.12659  0.00177  1.0000
  H   H892      1.0  0.52644  0.02604  0.77900  1.0000
  H   H893      1.0  0.63973  0.47606  0.00173  1.0000
  H   H894      1.0  0.68078  0.63998  0.10849  1.0000
  S   S137      1.0  0.89598  0.55031  0.26566  1.0000
  Fe  Fe67      1.0  0.88097  0.52594  0.36776  1.0000
  S   S138      1.0  0.89690  0.56741  0.35168  1.0000
  C   C515      1.0  0.53906  0.80875  0.01504  1.0000
  Fe  Fe68      1.0  0.86763  0.55212  0.30511  1.0000
  S   S139      1.0  0.84273  0.57093  0.29320  1.0000
  Fe  Fe69      1.0  0.92351  0.56147  0.31350  1.0000
  S   S140      1.0  0.96757  0.58596  0.31537  1.0000
  Fe  Fe70      1.0  0.64134  0.50512  0.19198  1.0000
  S   S141      1.0  0.90899  0.52057  0.33249  1.0000
  Fe  Fe71      1.0  0.66787  0.55861  0.22706  1.0000
  S   S142      1.0  0.64272  0.54236  0.17773  1.0000
  S   S143      1.0  0.66182  0.58416  0.26799  1.0000
  Fe  Fe72      1.0  0.69930  0.53209  0.20842  1.0000
  H   H895      1.0  0.59105  0.78134  0.40457  1.0000
  H   H896      1.0  0.77769  0.51001  0.37170  1.0000
  Fe  Fe73      1.0  0.67850  0.55196  0.14572  1.0000
  S   S144      1.0  0.67738  0.56967  0.09011  1.0000
  S   S145      1.0  0.67558  0.51356  0.15696  1.0000
  S   S146      1.0  0.70452  0.57146  0.19460  1.0000
  H   H897      1.0  0.64165  0.98235  0.18383  1.0000
  Fe  Fe74      1.0  0.55390  0.87341  0.13403  1.0000
  S   S147      1.0  0.57533  0.87094  0.18421  1.0000
  S   S148      1.0  0.57274  0.87699  0.07749  1.0000
  H   H898      1.0  0.60583  0.74684  0.30988  1.0000
  S   S149      1.0  0.52943  0.86952  0.23486  1.0000
  Fe  Fe75      1.0  0.56633  0.90025  0.20947  1.0000
  S   S150      1.0  0.59746  0.93327  0.24336  1.0000
  Fe  Fe76      1.0  0.53695  0.84038  0.20566  1.0000
  S   S151      1.0  0.52417  0.80240  0.23744  1.0000
  S   S152      1.0  0.54736  0.90449  0.15829  1.0000
  H   H899      1.0  0.57205  0.52783  0.22867  1.0000
  Fe  Fe77      1.0  0.55965  0.63686  0.29192  1.0000
  S   S153      1.0  0.53464  0.62179  0.34272  1.0000
  S   S154      1.0  0.57164  0.61202  0.25817  1.0000
  Fe  Fe78      1.0  0.55122  0.68446  0.28578  1.0000
  S   S155      1.0  0.52503  0.67182  0.33510  1.0000
  S   S156      1.0  0.56634  0.72254  0.25376  1.0000
  Fe  Fe79      1.0  0.55393  0.66306  0.36198  1.0000
  S   S157      1.0  0.56895  0.68110  0.41870  1.0000
  C   C516      1.0  0.77254  0.51947  0.24922  1.0000
  S   S158      1.0  0.58125  0.67756  0.31341  1.0000
  S   S159      1.0  0.53178  0.64497  0.26021  1.0000
  C   C517      1.0  0.55667  0.66643  0.46237  1.0000
  C   C518      1.0  0.54021  0.63990  0.46590  1.0000
  H   H900      1.0  0.76984  0.53728  0.33025  1.0000
  N   N39       1.0  0.96362  0.52010  0.22552  1.0000
  C   C519      1.0  0.66254  0.66371  0.10754  1.0000
  C   C520      1.0  0.53592  0.78011  0.24046  1.0000
  C   C521      1.0  0.55837  0.78421  0.22258  1.0000
  C   C522      1.0  0.56702  0.76610  0.22634  1.0000
  C   C523      1.0  0.55337  0.74363  0.24788  1.0000
  C   C524      1.0  0.53088  0.73948  0.26571  1.0000
  C   C525      1.0  0.52229  0.75765  0.26207  1.0000
  H   H901      1.0  0.56910  0.80135  0.20592  1.0000
  H   H902      1.0  0.58449  0.76959  0.21254  1.0000
  H   H903      1.0  0.63723  0.53210  0.30921  1.0000
  H   H904      1.0  0.61961  0.61814  0.13314  1.0000
  C   C526      1.0  0.62282  0.98251  0.27180  1.0000
  C   C527      1.0  0.55995  0.87907  0.03394  1.0000
  C   C528      1.0  0.53567  0.87699  0.03066  1.0000
  H   H905      1.0  0.55911  0.53711  0.27850  1.0000
  H   H906      1.0  0.52427  0.87435  0.05517  1.0000
  C   C529      1.0  0.59429  0.97642  0.22069  1.0000
  C   C530      1.0  0.60484  0.96608  0.24551  1.0000
  H   H907      1.0  0.61175  0.63210  0.18871  1.0000
  H   H908      1.0  0.58044  0.96406  0.20036  1.0000
  H   H909      1.0  0.57459  0.92587  0.09153  1.0000
  C   C531      1.0  0.63602  0.59089  0.26629  1.0000
  C   C532      1.0  0.61661  0.57970  0.23968  1.0000
  C   C533      1.0  0.59695  0.58622  0.23810  1.0000
  C   C534      1.0  0.59633  0.60390  0.26313  1.0000
  C   C535      1.0  0.61551  0.61483  0.29013  1.0000
  C   C536      1.0  0.63525  0.60832  0.29167  1.0000
  H   H910      1.0  0.61688  0.56622  0.22008  1.0000
  H   H911      1.0  0.58217  0.57767  0.21714  1.0000
  H   H912      1.0  0.61529  0.62849  0.30955  1.0000
  H   H913      1.0  0.65018  0.61708  0.31241  1.0000
  H   H914      1.0  0.67087  0.66257  0.19611  1.0000
  C   C537      1.0  0.68424  0.56171  0.04592  1.0000
  H   H915      1.0  0.80610  0.53094  0.34687  1.0000
  H   H916      1.0  0.70765  0.54589  0.06553  1.0000
  H   H917      1.0  0.63221  0.74982  0.38518  1.0000
  C   C538      1.0  0.99057  0.59858  0.27908  1.0000
  C   C539      1.0  0.98440  0.60369  0.24388  1.0000
  H   H918      1.0  0.81431  0.55969  0.48085  1.0000
  H   H919      1.0  0.96502  0.59979  0.23812  1.0000
  H   H920      1.0  0.61628  0.98279  0.07922  1.0000
  C   C540      1.0  0.81145  0.55653  0.27268  1.0000
  C   C541      1.0  0.79963  0.57169  0.26654  1.0000
  C   C542      1.0  0.77445  0.56084  0.25185  1.0000
  C   C543      1.0  0.76068  0.53458  0.24308  1.0000
  H   H921      1.0  0.80641  0.51832  0.26833  1.0000
  C   C544      1.0  0.79770  0.53030  0.26384  1.0000
  H   H922      1.0  0.80999  0.59198  0.27331  1.0000
  H   H923      1.0  0.76570  0.57278  0.24737  1.0000
  N   N40       1.0  0.65714  0.63021  0.15821  1.0000
  H   H924      1.0  0.54269  0.75332  0.35943  1.0000
  C   C545      1.0  0.87633  0.52492  0.47004  1.0000
  C   C546      1.0  0.88776  0.55172  0.47334  1.0000
  H   H925      1.0  0.61290  0.78729  0.28026  1.0000
  H   H926      1.0  0.89479  0.56370  0.44891  1.0000
  H   H927      1.0  0.60485  0.52983  0.26878  1.0000
  C   C547      1.0  0.61650  0.93909  0.14088  1.0000
  H   H928      1.0  0.53058  0.81302  0.03953  1.0000
  C   C548      1.0  0.61319  0.50529  0.05408  1.0000
  H   H929      1.0  0.64661  0.79733  0.38165  1.0000
  C   C549      1.0  0.79332  0.53041  0.36972  1.0000
  H   H930      1.0  0.69197  0.64056  0.22092  1.0000
  H   H931      1.0  0.66747  0.98050  0.12941  1.0000
  S   S160      1.0  0.66419  0.52053  0.24418  1.0000
  H   H932      1.0  0.63117  0.97476  0.29107  1.0000
  H   H933      1.0  0.63056  0.81633  0.37631  1.0000
  H   H934      1.0  0.61181  0.52852  0.33849  1.0000
  C   C550      1.0  0.69587  0.63317  0.19503  1.0000
  C   C551      1.0  0.78014  0.54578  0.35656  1.0000
  H   H935      1.0  0.98813  0.53945  0.31532  1.0000
  C   C552      1.0  0.79999  0.53927  0.47589  1.0000
  H   H936      1.0  0.61301  0.58103  0.10030  1.0000
  C   C553      1.0  0.78944  0.53495  0.43613  1.0000
  H   H937      1.0  0.51319  0.67954  0.44673  1.0000
  H   H938      1.0  0.95692  0.53169  0.29955  1.0000
  H   H939      1.0  0.99853  0.61858  0.18927  1.0000
  C   C554      1.0  0.67113  0.61656  0.17246  1.0000
  C   C555      1.0  0.82175  0.52379  0.41124  1.0000
  H   H940      1.0  0.65222  0.94435  0.08950  1.0000
  H   H941      1.0  0.57628  0.70239  0.49192  1.0000
  C   C556      1.0  0.56333  0.68187  0.49424  1.0000
  C   C557      1.0  0.56808  0.53621  0.30481  1.0000
  C   C558      1.0  0.67411  0.56739  0.01432  1.0000
  C   C559      1.0  0.67381  0.64910  0.12893  1.0000
  H   H942      1.0  0.57243  0.76884  0.31206  1.0000
  H   H943      1.0  0.71084  0.64925  0.17860  1.0000
  H   H944      1.0  0.63141  0.66173  0.21155  1.0000
  H   H945      1.0  0.91071  0.52494  0.19736  1.0000
  H   H946      1.0  0.56029  0.54368  0.32642  1.0000
  C   C560      1.0  0.58493  0.94383  0.07533  1.0000
  H   H947      1.0  0.96566  0.51745  0.16556  1.0000
  N   N41       1.0  0.62787  0.95891  0.11043  1.0000
  H   H948      1.0  0.66234  0.57643  0.01744  1.0000
  C   C561      1.0  0.82771  0.56766  0.40143  1.0000
  H   H949      1.0  0.64181  0.65204  0.10144  1.0000
  H   H950      1.0  0.83321  0.52927  0.43711  1.0000
  H   H951      1.0  0.55993  0.82293  0.01574  1.0000
  H   H952      1.0  0.53598  0.78897  0.01867  1.0000
  C   C562      1.0  0.54764  0.74090  0.37657  1.0000
  H   H953      1.0  0.86381  0.59942  0.42158  1.0000
  H   H954      1.0  0.61626  0.50952  0.11449  1.0000
  C   C563      1.0  0.64609  0.99514  0.15939  1.0000
  H   H955      1.0  0.98477  0.56585  0.18390  1.0000
  C   C564      1.0  0.69958  0.55019  0.04149  1.0000
  H   H956      1.0  0.99849  0.52725  0.25440  1.0000
  H   H957      1.0  0.59086  0.93936  0.04860  1.0000
  C   C565      1.0  0.99535  0.55509  0.18066  1.0000
  C   C566      1.0  0.61707  0.51849  0.31741  1.0000
  H   H958      1.0  0.59896  0.97006  0.12079  1.0000
  H   H959      1.0  0.99319  0.55407  0.25327  1.0000
  C   C567      1.0  0.94478  0.53016  0.22678  1.0000
  N   N42       1.0  0.80825  0.53929  0.40548  1.0000
  H   H960      1.0  0.80807  0.52660  0.48326  1.0000
  C   C568      1.0  0.63073  0.64997  0.18733  1.0000
  H   H961      1.0  0.67184  0.66929  0.07992  1.0000
  C   C569      1.0  0.60765  0.96525  0.09704  1.0000
  H   H962      1.0  0.55121  0.74783  0.40553  1.0000
  H   H963      1.0  0.63210  0.77456  0.32904  1.0000
  H   H964      1.0  0.58911  0.54954  0.30421  1.0000
  C   C570      1.0  0.56137  0.50850  0.31492  1.0000
  H   H965      1.0  0.50493  0.75424  0.27608  1.0000
  C   C571      1.0  0.65067  0.98337  0.12420  1.0000
  H   H966      1.0  0.64911  0.63243  0.21615  1.0000
  H   H967      1.0  0.66628  0.68150  0.12242  1.0000
  H   H968      1.0  0.57319  0.72566  0.38021  1.0000
  C   C572      1.0  0.64698  0.96486  0.04477  1.0000
  H   H969      1.0  0.66447  0.98348  0.05063  1.0000
  H   H970      1.0  0.62068  0.92868  0.07117  1.0000
  H   H971      1.0  0.69195  0.66438  0.14140  1.0000
  H   H972      1.0  0.57080  0.95030  0.06882  1.0000
  H   H973      1.0  0.60399  0.81127  0.28880  1.0000
  C   C573      1.0  0.97253  0.52701  0.29583  1.0000
  H   H974      1.0  0.64492  0.60505  0.08816  1.0000
  H   H975      1.0  0.83412  0.57247  0.37211  1.0000
  H   H976      1.0  0.63242  0.96861  0.03140  1.0000
  H   H977      1.0  0.81895  0.57986  0.40831  1.0000
  H   H978      1.0  0.77285  0.51500  0.43491  1.0000
  H   H979      1.0  0.62904  0.81119  0.31592  1.0000
  H   H980      1.0  0.95483  0.55072  0.23538  1.0000
  H   H981      1.0  0.70417  0.62090  0.20372  1.0000
  C   C574      1.0  0.65307  0.64401  0.19033  1.0000
  H   H982      1.0  0.63934  0.57998  0.12150  1.0000
  H   H983      1.0  0.86553  0.57112  0.41118  1.0000
  C   C575      1.0  0.63157  0.60988  0.14317  1.0000
  H   H984      1.0  0.92991  0.51987  0.24843  1.0000
  H   H985      1.0  0.60088  0.92056  0.12993  1.0000
  H   H986      1.0  0.58356  0.79269  0.34651  1.0000
  H   H987      1.0  0.67684  0.60810  0.14936  1.0000
  H   H988      1.0  0.85037  0.57279  0.45306  1.0000
  S   S161      1.0  0.51613  0.84079  0.15374  1.0000
  H   H989      1.0  0.63617  0.80752  0.42109  1.0000
  C   C576      1.0  0.63536  0.93239  0.16090  1.0000
  C   C577      1.0  0.93057  0.52926  0.19048  1.0000
  H   H990      1.0  0.65238  0.95455  0.02419  1.0000
  H   H991      1.0  0.60565  0.76204  0.41178  1.0000
  H   H992      1.0  0.56380  0.72777  0.33424  1.0000
  C   C578      1.0  0.63270  0.59330  0.11144  1.0000
  H   H993      1.0  0.63580  0.73691  0.34265  1.0000
  H   H994      1.0  0.65831  0.59999  0.19039  1.0000
  H   H995      1.0  0.63167  0.66103  0.16226  1.0000
  H   H996      1.0  0.53577  0.62776  0.44181  1.0000
  C   C579      1.0  0.85305  0.57804  0.42348  1.0000
  H   H997      1.0  0.65199  0.94940  0.17326  1.0000
  H   H998      1.0  0.60581  0.72094  0.36578  1.0000
  H   H999      1.0  0.61994  0.59642  0.16567  1.0000
  H   H1000     1.0  0.52021  0.72239  0.28248  1.0000
  H   H1001     1.0  0.53035  0.72143  0.37707  1.0000
  S   S162      1.0  0.72866  0.51943  0.22497  1.0000
  N   N43       1.0  0.59514  0.76353  0.35483  1.0000
  C   C580      1.0  0.57041  0.73854  0.36076  1.0000
  C   C581      1.0  0.61392  0.75699  0.33652  1.0000
  C   C582      1.0  0.58930  0.78060  0.32999  1.0000
  C   C583      1.0  0.60472  0.77595  0.39200  1.0000
  H   H1002     1.0  0.76545  0.54456  0.37629  1.0000
  C   C584      1.0  0.62211  0.74024  0.35931  1.0000
  C   C585      1.0  0.61032  0.79860  0.30256  1.0000
  C   C586      1.0  0.63107  0.80066  0.39215  1.0000
  H   H1003     1.0  0.78102  0.54784  0.43272  1.0000
  C   C587      1.0  0.63657  0.94792  0.07977  1.0000
  H   H1004     1.0  0.93961  0.54854  0.17706  1.0000
  H   H1005     1.0  0.79420  0.56625  0.35059  1.0000
  H   H1006     1.0  0.00189  0.55737  0.15148  1.0000
  H   H1007     1.0  0.83607  0.52814  0.38887  1.0000
  C   C588      1.0  0.52973  0.62907  0.50068  1.0000
  H   H1008     1.0  0.60711  0.94507  0.16223  1.0000
  H   H1009     1.0  0.65733  0.99877  0.10278  1.0000
  C   C589      1.0  0.70500  0.54477  0.00575  1.0000
  H   H1010     1.0  0.62515  0.91916  0.18427  1.0000
  C   C590      1.0  0.59981  0.51135  0.28276  1.0000
  C   C591      1.0  0.97841  0.52617  0.18970  1.0000
  H   H1011     1.0  0.64207  0.92207  0.14251  1.0000
  Fe  Fe80      1.0  0.88012  0.50966  0.28682  1.0000
  C   C592      1.0  0.98316  0.53274  0.25606  1.0000
  H   H1012     1.0  0.51213  0.65685  0.41392  1.0000
  H   H1013     1.0  0.92850  0.51455  0.17028  1.0000
  H   H1014     1.0  0.99120  0.51745  0.18974  1.0000
  Fe  Fe81      1.0  0.50794  0.63169  0.31178  1.0000
  H   H1015     1.0  0.59332  0.51659  0.09399  1.0000
  H   H1016     1.0  0.65537  0.50801  0.07801  1.0000
  H   H1017     1.0  0.78393  0.53445  0.49544  1.0000
  H   H1018     1.0  0.56856  0.50917  0.34356  1.0000
  C   C593      1.0  0.00348  0.61442  0.21627  1.0000
  H   H1019     1.0  0.58627  0.50963  0.21042  1.0000
  S   S163      1.0  0.85028  0.51086  0.32333  1.0000
  Fe  Fe82      1.0  0.51108  0.87170  0.18184  1.0000
  S   S164      1.0  0.87156  0.50934  0.42651  1.0000
  H   H1020     1.0  0.63067  0.00017  0.15548  1.0000
  H   H1021     1.0  0.63022  0.52495  0.05177  1.0000
  C   C594      1.0  0.56826  0.50839  0.22102  1.0000
  H   H1022     1.0  0.59934  0.50532  0.03377  1.0000
  H   H1023     1.0  0.65272  0.50945  0.01046  1.0000
  H   H1024     1.0  0.59334  0.88429  0.00392  1.0000
  H   H1025     1.0  0.51684  0.60855  0.50309  1.0000
  H   H1026     1.0  0.96584  0.50674  0.30406  1.0000
  C   C595      1.0  0.60138  0.50332  0.09263  1.0000
  C   C596      1.0  0.86789  0.50972  0.50230  1.0000
  Fe  Fe83      1.0  0.87796  0.54372  0.64103  1.0000
  S   S165      1.0  0.88973  0.56950  0.69158  1.0000
  S   S166      1.0  0.88498  0.56302  0.58410  1.0000
  C   C597      1.0  0.76417  0.59247  0.81832  1.0000
  C   C598      1.0  0.58284  0.51488  0.72687  1.0000
  Fe  Fe84      1.0  0.85315  0.53784  0.71745  1.0000
  S   S167      1.0  0.82549  0.53941  0.76024  1.0000
  Fe  Fe85      1.0  0.90928  0.54730  0.71066  1.0000
  S   S168      1.0  0.94955  0.55744  0.73101  1.0000
  C   C599      1.0  0.96526  0.56570  0.58725  1.0000
  S   S169      1.0  0.89931  0.52338  0.65898  1.0000
  Fe  Fe86      1.0  0.69368  0.54225  0.79218  1.0000
  H   H1027     1.0  0.94180  0.50433  0.74067  1.0000
  S   S170      1.0  0.72376  0.54944  0.74755  1.0000
  Fe  Fe87      1.0  0.65479  0.55872  0.81868  1.0000
  S   S171      1.0  0.64130  0.52945  0.86503  1.0000
  S   S172      1.0  0.63102  0.57955  0.81798  1.0000
  Fe  Fe88      1.0  0.68262  0.54135  0.87484  1.0000
  S   S173      1.0  0.70201  0.54285  0.92999  1.0000
  H   H1028     1.0  0.61843  0.54861  0.74744  1.0000
  S   S174      1.0  0.69677  0.57297  0.83188  1.0000
  S   S175      1.0  0.65262  0.53037  0.77583  1.0000
  Fe  Fe89      1.0  0.52376  0.87555  0.78013  1.0000
  S   S176      1.0  0.55896  0.87482  0.75957  1.0000
  Fe  Fe90      1.0  0.54116  0.88043  0.86140  1.0000
  S   S177      1.0  0.57756  0.88045  0.84591  1.0000
  S   S178      1.0  0.52608  0.88036  0.91955  1.0000
  Fe  Fe91      1.0  0.58014  0.90756  0.79963  1.0000
  S   S179      1.0  0.61717  0.94430  0.78384  1.0000
  Fe  Fe92      1.0  0.55297  0.84774  0.80687  1.0000
  S   S180      1.0  0.54886  0.80706  0.80883  1.0000
  S   S181      1.0  0.54523  0.90947  0.81775  1.0000
  H   H1029     1.0  0.63023  0.97045  0.63596  1.0000
  Fe  Fe93      1.0  0.57319  0.65089  0.69332  1.0000
  S   S182      1.0  0.53598  0.61771  0.67399  1.0000
  S   S183      1.0  0.60979  0.64801  0.70120  1.0000
  Fe  Fe94      1.0  0.55139  0.68882  0.69215  1.0000
  C   C600      1.0  0.64160  0.99562  0.76278  1.0000
  S   S184      1.0  0.56458  0.73233  0.69666  1.0000
  C   C601      1.0  0.89018  0.56304  0.50839  1.0000
  Fe  Fe95      1.0  0.53396  0.64563  0.63349  1.0000
  H   H1030     1.0  0.96343  0.63787  0.54551  1.0000
  S   S185      1.0  0.55503  0.66397  0.73626  1.0000
  S   S186      1.0  0.57257  0.67807  0.65001  1.0000
  C   C602      1.0  0.87061  0.52105  0.53739  1.0000
  C   C603      1.0  0.53594  0.64457  0.53247  1.0000
  C   C604      1.0  0.55308  0.67102  0.52913  1.0000
  N   N44       1.0  0.78160  0.58482  0.87990  1.0000
  H   H1031     1.0  0.55804  0.68318  0.55332  1.0000
  C   C605      1.0  0.55386  0.78679  0.77738  1.0000
  C   C606      1.0  0.56742  0.79597  0.74420  1.0000
  C   C607      1.0  0.57043  0.77902  0.72006  1.0000
  C   C608      1.0  0.55990  0.75261  0.72848  1.0000
  C   C609      1.0  0.54640  0.74343  0.76171  1.0000
  C   C610      1.0  0.54353  0.76042  0.78599  1.0000
  H   H1032     1.0  0.57585  0.81621  0.73729  1.0000
  H   H1033     1.0  0.58106  0.78646  0.69459  1.0000
  H   H1034     1.0  0.53818  0.72323  0.76875  1.0000
  H   H1035     1.0  0.99515  0.59716  0.66914  1.0000
  C   C611      1.0  0.54025  0.88113  0.96318  1.0000
  C   C612      1.0  0.56474  0.88363  0.96649  1.0000
  H   H1036     1.0  0.80335  0.61313  0.83740  1.0000
  H   H1037     1.0  0.57604  0.88616  0.94191  1.0000
  S   S187      1.0  0.51233  0.65768  0.67278  1.0000
  H   H1038     1.0  0.75988  0.54995  0.94220  1.0000
  C   C613      1.0  0.61782  0.97298  0.76794  1.0000
  C   C614      1.0  0.59522  0.97360  0.75973  1.0000
  H   H1039     1.0  0.93056  0.57520  0.62329  1.0000
  H   H1040     1.0  0.57680  0.95636  0.76331  1.0000
  C   C615      1.0  0.61428  0.62734  0.73243  1.0000
  C   C616      1.0  0.59816  0.61595  0.76288  1.0000
  C   C617      1.0  0.60356  0.60133  0.78854  1.0000
  C   C618      1.0  0.62476  0.59737  0.78375  1.0000
  C   C619      1.0  0.64050  0.60818  0.75278  1.0000
  C   C620      1.0  0.63542  0.62329  0.72753  1.0000
  H   H1041     1.0  0.58190  0.61897  0.76718  1.0000
  H   H1042     1.0  0.59132  0.59320  0.81248  1.0000
  H   H1043     1.0  0.65693  0.60544  0.74874  1.0000
  H   H1044     1.0  0.64805  0.63203  0.70413  1.0000
  C   C621      1.0  0.69464  0.55020  0.97418  1.0000
  H   H1045     1.0  0.57134  0.51158  0.70138  1.0000
  C   C622      1.0  0.67901  0.56139  0.97864  1.0000
  C   C623      1.0  0.56292  0.81873  0.94217  1.0000
  H   H1046     1.0  0.67103  0.56578  0.95458  1.0000
  C   C624      1.0  0.97948  0.60945  0.75009  1.0000
  C   C625      1.0  0.97820  0.58560  0.74468  1.0000
  C   C626      1.0  0.00294  0.63115  0.76054  1.0000
  H   H1047     1.0  0.96240  0.61118  0.74654  1.0000
  H   H1048     1.0  0.98064  0.56860  0.56725  1.0000
  C   C627      1.0  0.75085  0.54449  0.75022  1.0000
  C   C628      1.0  0.75582  0.53386  0.78159  1.0000
  C   C629      1.0  0.77858  0.53220  0.78398  1.0000
  C   C630      1.0  0.79624  0.54025  0.75448  1.0000
  C   C631      1.0  0.79070  0.54982  0.72241  1.0000
  C   C632      1.0  0.76827  0.55214  0.72048  1.0000
  H   H1049     1.0  0.98764  0.59730  0.89030  1.0000
  H   H1050     1.0  0.93701  0.55495  0.54143  1.0000
  H   H1051     1.0  0.80407  0.55620  0.69951  1.0000
  H   H1052     1.0  0.76457  0.56024  0.69593  1.0000
  H   H1053     1.0  0.65920  0.99539  0.76910  1.0000
  C   C633      1.0  0.88158  0.54779  0.54061  1.0000
  H   H1054     1.0  0.74369  0.52179  0.91482  1.0000
  H   H1055     1.0  0.96788  0.63949  0.59423  1.0000
  H   H1056     1.0  0.54342  0.54950  0.74166  1.0000
  H   H1057     1.0  0.60239  0.96139  0.66394  1.0000
  S   S188      1.0  0.68192  0.51164  0.83577  1.0000
  H   H1058     1.0  0.61395  0.50769  0.97773  1.0000
  C   C634      1.0  0.55643  0.52557  0.76956  1.0000
  H   H1059     1.0  0.57094  0.83861  0.95347  1.0000
  H   H1060     1.0  0.54348  0.51879  0.79398  1.0000
  H   H1061     1.0  0.57246  0.83577  0.88631  1.0000
  C   C635      1.0  0.59640  0.99649  0.74664  1.0000
  C   C636      1.0  0.52599  0.81160  0.97977  1.0000
  H   H1062     1.0  0.93872  0.52872  0.56230  1.0000
  H   H1063     1.0  0.78466  0.62191  0.89090  1.0000
  H   H1064     1.0  0.92265  0.54277  0.58611  1.0000
  C   C637      1.0  0.57448  0.88256  0.00169  1.0000
  C   C638      1.0  0.52592  0.87802  0.99550  1.0000
  S   S189      1.0  0.84034  0.51374  0.66575  1.0000
  H   H1065     1.0  0.97277  0.62636  0.65455  1.0000
  H   H1066     1.0  0.77793  0.53809  0.91708  1.0000
  H   H1067     1.0  0.93985  0.61600  0.64095  1.0000
  H   H1068     1.0  0.56934  0.80411  0.88893  1.0000
  C   C639      1.0  0.96166  0.60319  0.56798  1.0000
  H   H1069     1.0  0.50698  0.87610  0.99330  1.0000
  C   C640      1.0  0.51967  0.80931  0.69294  1.0000
  C   C641      1.0  0.95309  0.60982  0.65305  1.0000
  H   H1070     1.0  0.53302  0.75298  0.81153  1.0000
  H   H1071     1.0  0.52233  0.79930  0.66893  1.0000
  N   N45       1.0  0.63535  0.72411  0.75135  1.0000
  C   C642      1.0  0.65349  0.71322  0.75198  1.0000
  C   C643      1.0  0.62133  0.71671  0.71488  1.0000
  C   C644      1.0  0.61616  0.71123  0.78216  1.0000
  C   C645      1.0  0.65055  0.75298  0.75678  1.0000
  C   C646      1.0  0.66823  0.71644  0.78846  1.0000
  C   C647      1.0  0.63858  0.72466  0.68015  1.0000
  C   C648      1.0  0.59580  0.71967  0.78736  1.0000
  C   C649      1.0  0.63932  0.76921  0.73968  1.0000
  H   H1072     1.0  0.64297  0.69221  0.74550  1.0000
  H   H1073     1.0  0.66847  0.72231  0.73020  1.0000
  H   H1074     1.0  0.60804  0.72457  0.71171  1.0000
  H   H1075     1.0  0.60876  0.69546  0.71348  1.0000
  H   H1076     1.0  0.60583  0.68987  0.77845  1.0000
  H   H1077     1.0  0.62593  0.71480  0.80941  1.0000
  H   H1078     1.0  0.65356  0.75769  0.78678  1.0000
  H   H1079     1.0  0.67027  0.76108  0.74504  1.0000
  H   H1080     1.0  0.65560  0.70256  0.80981  1.0000
  H   H1081     1.0  0.68389  0.71185  0.78342  1.0000
  H   H1082     1.0  0.67721  0.73639  0.79924  1.0000
  H   H1083     1.0  0.65551  0.74418  0.68244  1.0000
  H   H1084     1.0  0.64517  0.71049  0.67461  1.0000
  H   H1085     1.0  0.62722  0.72451  0.65568  1.0000
  H   H1086     1.0  0.58115  0.70643  0.80744  1.0000
  H   H1087     1.0  0.58529  0.71866  0.76166  1.0000
  H   H1088     1.0  0.60439  0.73926  0.79942  1.0000
  H   H1089     1.0  0.64039  0.76965  0.70906  1.0000
  H   H1090     1.0  0.65091  0.78948  0.74912  1.0000
  H   H1091     1.0  0.61919  0.76263  0.74773  1.0000
  H   H1092     1.0  0.59873  0.52865  0.79841  1.0000
  C   C650      1.0  0.52282  0.77607  0.94265  1.0000
  H   H1093     1.0  0.78254  0.52470  0.80888  1.0000
  C   C651      1.0  0.78681  0.59314  0.83983  1.0000
  N   N46       1.0  0.56645  0.50732  0.76132  1.0000
  H   H1094     1.0  0.82017  0.61132  0.89860  1.0000
  H   H1095     1.0  0.50847  0.74426  0.90352  1.0000
  H   H1096     1.0  0.57220  0.54480  0.77849  1.0000
  C   C652      1.0  0.60435  0.54327  0.72469  1.0000
  C   C653      1.0  0.97237  0.63261  0.56852  1.0000
  H   H1097     1.0  0.80812  0.55783  0.86871  1.0000
  H   H1098     1.0  0.52497  0.77411  0.88093  1.0000
  H   H1099     1.0  0.83626  0.57860  0.89508  1.0000
  H   H1100     1.0  0.79245  0.58073  0.82391  1.0000
  H   H1101     1.0  0.99343  0.64320  0.56356  1.0000
  H   H1102     1.0  0.59677  0.83129  0.90764  1.0000
  N   N47       1.0  0.96863  0.59136  0.59995  1.0000
  H   H1103     1.0  0.74213  0.52713  0.80404  1.0000
  H   H1104     1.0  0.61525  0.54636  0.69857  1.0000
  H   H1105     1.0  0.76392  0.54602  0.85787  1.0000
  C   C654      1.0  0.52360  0.81460  0.91293  1.0000
  H   H1106     1.0  0.74192  0.55402  0.87777  1.0000
  H   H1107     1.0  0.76014  0.60792  0.82729  1.0000
  C   C655      1.0  0.95089  0.58628  0.63230  1.0000
  H   H1108     1.0  0.52187  0.84746  0.69807  1.0000
  H   H1109     1.0  0.94750  0.60433  0.68233  1.0000
  H   H1110     1.0  0.51358  0.83328  0.65222  1.0000
  H   H1111     1.0  0.98084  0.61281  0.85337  1.0000
  H   H1112     1.0  0.76919  0.59585  0.78848  1.0000
  S   S190      1.0  0.51632  0.84663  0.82493  1.0000
  H   H1113     1.0  0.54795  0.52957  0.71057  1.0000
  C   C656      1.0  0.00056  0.58373  0.75011  1.0000
  Fe  Fe96      1.0  0.51746  0.63214  0.71421  1.0000
  H   H1114     1.0  0.53201  0.76995  0.96427  1.0000
  C   C657      1.0  0.77199  0.60122  0.89828  1.0000
  H   H1115     1.0  0.80419  0.58322  0.92608  1.0000
  H   H1116     1.0  0.50681  0.77153  0.74545  1.0000
  H   H1117     1.0  0.53543  0.81298  0.71271  1.0000
  C   C658      1.0  0.80677  0.59014  0.89704  1.0000
  C   C659      1.0  0.52528  0.76393  0.90632  1.0000
  S   S191      1.0  0.87396  0.51786  0.74070  1.0000
  C   C660      1.0  0.93938  0.54731  0.56832  1.0000
  C   C661      1.0  0.61841  0.00025  0.64164  1.0000
  H   H1118     1.0  0.56117  0.50958  0.84149  1.0000
  H   H1119     1.0  0.83092  0.58945  0.85156  1.0000
  C   C662      1.0  0.82109  0.57816  0.87673  1.0000
  H   H1120     1.0  0.59655  0.55676  0.72416  1.0000
  C   C663      1.0  0.76109  0.54118  0.91606  1.0000
  C   C664      1.0  0.57563  0.82234  0.90391  1.0000
  H   H1121     1.0  0.75242  0.59607  0.88804  1.0000
  C   C665      1.0  0.54101  0.52985  0.73874  1.0000
  C   C666      1.0  0.76988  0.60013  0.94077  1.0000
  H   H1122     1.0  0.94037  0.59408  0.56516  1.0000
  H   H1123     1.0  0.95250  0.57326  0.65302  1.0000
  C   C667      1.0  0.99649  0.61074  0.86680  1.0000
  H   H1124     1.0  0.53250  0.83596  0.91454  1.0000
  H   H1125     1.0  0.57060  0.80881  0.96009  1.0000
  C   C668      1.0  0.76156  0.55659  0.88136  1.0000
  H   H1126     1.0  0.74654  0.57346  0.82066  1.0000
  H   H1127     1.0  0.00335  0.60224  0.84546  1.0000
  H   H1128     1.0  0.63101  0.99798  0.57554  1.0000
  S   S192      1.0  0.52035  0.63025  0.57488  1.0000
  H   H1129     1.0  0.96712  0.55468  0.61086  1.0000
  H   H1130     1.0  0.60210  0.99149  0.62175  1.0000
  H   H1131     1.0  0.75351  0.58179  0.95046  1.0000
  H   H1132     1.0  0.00126  0.62796  0.61727  1.0000
  H   H1133     1.0  0.52907  0.81124  0.88514  1.0000
  C   C669      1.0  0.58341  0.50859  0.79324  1.0000
  H   H1134     1.0  0.51767  0.76123  0.68546  1.0000
  H   H1135     1.0  0.57874  0.99657  0.74029  1.0000
  H   H1136     1.0  0.99984  0.56541  0.74600  1.0000
  C   C670      1.0  0.52502  0.83561  0.67755  1.0000
  H   H1137     1.0  0.54557  0.84680  0.66932  1.0000
  N   N48       1.0  0.53389  0.80492  0.94354  1.0000
  H   H1138     1.0  0.89882  0.58376  0.51056  1.0000
  H   H1139     1.0  0.52976  0.83180  0.97936  1.0000
  H   H1140     1.0  0.54297  0.76219  0.90646  1.0000
  C   C671      1.0  0.62164  0.97768  0.65658  1.0000
  H   H1141     1.0  0.78790  0.60414  0.95499  1.0000
  C   C672      1.0  0.99654  0.60802  0.61037  1.0000
  H   H1142     1.0  0.63300  0.98291  0.68256  1.0000
  H   H1143     1.0  0.65937  0.00225  0.59771  1.0000
  H   H1144     1.0  0.52023  0.51551  0.74078  1.0000
  H   H1145     1.0  0.76543  0.61528  0.94995  1.0000
  H   H1146     1.0  0.96856  0.59935  0.54138  1.0000
  H   H1147     1.0  0.86394  0.50905  0.56187  1.0000
  H   H1148     1.0  0.51020  0.81244  0.76263  1.0000
  H   H1149     1.0  0.59189  0.50251  0.72365  1.0000
  H   H1150     1.0  0.71717  0.53618  0.00258  1.0000
  H   H1151     1.0  0.50490  0.79958  0.98438  1.0000
  H   H1152     1.0  0.00376  0.64952  0.76462  1.0000
