data_image0
_chemical_formula_structural       HCH6C2H2C3NHC2SH3SCFeCHCH5SCFeH2CHCH2C2HC2H4CH2C2H2SHFeH2SH2FeS2CHFeH2SCFeC2HCSC2H2SHCHNH2SHSH6CHCSC2H2CHCH4CHC2HCSHCHFeSCHNHCSCH7C2HCH2FeHSFeHSCHCHSHCS2HC6H4C6H6FeNC8H21C2SHC2H3C2H2C2H3NH3SFeHCHNHCHCH6CFeC2FeSCFeS2FeSFeS3HSC4H2C6H5CFeCH3NC2H2C2H5CH2CH2C2H3NCH4CH2SH5CH2CSH5CHCH9CHCH4CH3CNC4H5CSCH4FeH8CHSNCSCFeS2HC2H6FeCH4CHFeS2HC3HCH4SHCH3SHCHCH2C2FeCHC3H2CSH5CSHFeHCSH2CHCHCHFeC2SH2CHCH4CH2SHFeH2CH2C2HC2HCSCHCHC2H3NH2CSC3H4SC2HNH3CFeS2FeS2FeSFeS3FeS2C6H3FeCH8C2HCH6NCNC6H2CH2CHCH7C3H2SCHCH6CFeH2CH3CHCHC2HCH6CH2SCHC2H7C3HC3HCHNCH7CHSCH3CH2S2FeSFeSHC6HCH2CH2C2H2NH2CH4CH7C2SCSHCH2C2HCHCHCH3CHFeH4CHC2HSH3CSH4CHCHFeNCH5NC3H2CH2SC2HCH5CH3
_chemical_formula_sum              "H432 C252 N18 S72 Fe36"
_cell_length_a       36.4907
_cell_length_b       36.0538
_cell_length_c       30.669
_cell_angle_alpha    87.8451
_cell_angle_beta     92.1593
_cell_angle_gamma    119.93

_space_group_name_H-M_alt    "P 1"
_space_group_IT_number       1

loop_
  _space_group_symop_operation_xyz
  'x, y, z'

loop_
  _atom_site_type_symbol
  _atom_site_label
  _atom_site_symmetry_multiplicity
  _atom_site_fract_x
  _atom_site_fract_y
  _atom_site_fract_z
  _atom_site_occupancy
  H   H1        1.0  0.10061  0.27406  0.03382  1.0000
  C   C1        1.0  0.13108  0.30266  0.04234  1.0000
  H   H2        1.0  0.33647  0.03993  0.28015  1.0000
  H   H3        1.0  0.06158  0.34531  0.25667  1.0000
  H   H4        1.0  0.04522  0.33035  0.31071  1.0000
  H   H5        1.0  0.29065  0.12075  0.21841  1.0000
  H   H6        1.0  0.02514  0.39436  0.48600  1.0000
  H   H7        1.0  0.18057  0.14617  0.07178  1.0000
  C   C2        1.0  0.15969  0.15603  0.05600  1.0000
  C   C3        1.0  0.14899  0.33478  0.00360  1.0000
  H   H8        1.0  0.06230  0.01443  0.05666  1.0000
  H   H9        1.0  0.14125  0.17040  0.11630  1.0000
  C   C4        1.0  0.31522  0.07594  0.13666  1.0000
  C   C5        1.0  0.30792  0.10897  0.20106  1.0000
  C   C6        1.0  0.29339  0.09159  0.15935  1.0000
  N   N1        1.0  0.01527  0.38725  0.32180  1.0000
  H   H10       1.0  0.26532  0.09028  0.14477  1.0000
  C   C7        1.0  0.06977  0.04570  0.04159  1.0000
  C   C8        1.0  0.03608  0.33967  0.27923  1.0000
  S   S1        1.0  0.18690  0.05626  0.06855  1.0000
  H   H11       1.0  0.30910  0.21873  0.28226  1.0000
  H   H12       1.0  0.06457  0.40877  0.27345  1.0000
  H   H13       1.0  0.33026  0.06887  0.34482  1.0000
  S   S2        1.0  0.08279  0.19927  0.09349  1.0000
  C   C9        1.0  0.13757  0.16992  0.08111  1.0000
  Fe  Fe1       1.0  0.23883  0.04457  0.04756  1.0000
  C   C10       1.0  0.11048  0.18280  0.06093  1.0000
  H   H14       1.0  0.15349  0.29252  0.05556  1.0000
  C   C11       1.0  0.34425  0.11074  0.22057  1.0000
  H   H15       1.0  0.33644  0.04131  0.42028  1.0000
  H   H16       1.0  0.10305  0.41375  0.33554  1.0000
  H   H17       1.0  0.05136  0.06588  0.09730  1.0000
  H   H18       1.0  0.33436  0.20730  0.24095  1.0000
  H   H19       1.0  0.05748  0.09740  0.04992  1.0000
  S   S3        1.0  0.29829  0.05370  0.08410  1.0000
  C   C12       1.0  0.10565  0.18184  0.01548  1.0000
  Fe  Fe2       1.0  0.02991  0.20766  0.06321  1.0000
  H   H20       1.0  0.10387  0.06758  0.04867  1.0000
  H   H21       1.0  0.27432  0.03926  0.34759  1.0000
  C   C13       1.0  0.03309  0.38073  0.28107  1.0000
  H   H22       1.0  0.30669  0.06816  0.41814  1.0000
  C   C14       1.0  0.30346  0.03804  0.35688  1.0000
  H   H23       1.0  0.09476  0.45160  0.36532  1.0000
  H   H24       1.0  0.12469  0.31816  0.06939  1.0000
  C   C15       1.0  0.34020  0.22333  0.27277  1.0000
  C   C16       1.0  0.04395  0.06375  0.06167  1.0000
  H   H25       1.0  0.22340  0.33721  0.02861  1.0000
  C   C17       1.0  0.08722  0.41785  0.36358  1.0000
  C   C18       1.0  0.30658  0.03904  0.40732  1.0000
  H   H26       1.0  0.24271  0.30644  0.00396  1.0000
  H   H27       1.0  0.26849  0.04074  0.27515  1.0000
  H   H28       1.0  0.10125  0.41138  0.39368  1.0000
  H   H29       1.0  0.05254  0.45670  0.31598  1.0000
  C   C19       1.0  0.01901  0.43093  0.31840  1.0000
  H   H30       1.0  0.06601  0.04346  0.00562  1.0000
  H   H31       1.0  0.02578  0.39299  0.39170  1.0000
  C   C20       1.0  0.15553  0.15595  0.01051  1.0000
  C   C21       1.0  0.03912  0.38637  0.36279  1.0000
  H   H32       1.0  0.03534  0.35431  0.36982  1.0000
  H   H33       1.0  0.27454  0.01579  0.22923  1.0000
  S   S4        1.0  0.02278  0.26436  0.07703  1.0000
  H   H34       1.0  0.17783  0.36363  0.01587  1.0000
  Fe  Fe3       1.0  0.19126  0.08451  0.00092  1.0000
  H   H35       1.0  0.08425  0.19085  0.99976  1.0000
  H   H36       1.0  0.05951  0.43156  0.55502  1.0000
  S   S5        1.0  0.03031  0.32507  0.96960  1.0000
  H   H37       1.0  0.14543  0.28871  0.87933  1.0000
  H   H38       1.0  0.20869  0.38293  0.94958  1.0000
  Fe  Fe4       1.0  0.11383  0.44189  0.73587  1.0000
  S   S6        1.0  0.11804  0.43826  0.66287  1.0000
  S   S7        1.0  0.08550  0.37659  0.77128  1.0000
  C   C22       1.0  0.32059  0.06633  0.91792  1.0000
  H   H39       1.0  0.13246  0.35149  0.88568  1.0000
  Fe  Fe5       1.0  0.09244  0.48347  0.65684  1.0000
  H   H40       1.0  0.26307  0.49813  0.72358  1.0000
  H   H41       1.0  0.02366  0.27412  0.89403  1.0000
  S   S8        1.0  0.08461  0.48404  0.72954  1.0000
  C   C23       1.0  0.06102  0.38112  0.89947  1.0000
  Fe  Fe6       1.0  0.18244  0.49716  0.67015  1.0000
  C   C24       1.0  0.03110  0.43100  0.54259  1.0000
  C   C25       1.0  0.11880  0.26622  0.89990  1.0000
  H   H42       1.0  0.02772  0.32776  0.61615  1.0000
  C   C26       1.0  0.12874  0.16921  0.99028  1.0000
  S   S9        1.0  0.18484  0.14132  0.97813  1.0000
  C   C27       1.0  0.18416  0.29735  0.97368  1.0000
  C   C28       1.0  0.06903  0.36286  0.82619  1.0000
  H   H43       1.0  0.28851  0.03754  0.91553  1.0000
  H   H44       1.0  0.09378  0.29740  0.93923  1.0000
  S   S10       1.0  0.14382  0.02276  0.97084  1.0000
  H   H45       1.0  0.02589  0.37610  0.61660  1.0000
  C   C29       1.0  0.07380  0.39347  0.85596  1.0000
  H   H46       1.0  0.13940  0.38307  0.93304  1.0000
  N   N2        1.0  0.15799  0.31835  0.96313  1.0000
  H   H47       1.0  0.08775  0.42671  0.84563  1.0000
  H   H48       1.0  0.17720  0.40368  0.89054  1.0000
  S   S11       1.0  0.24641  0.07770  0.98190  1.0000
  H   H49       1.0  0.08972  0.25770  0.87993  1.0000
  S   S12       1.0  0.03699  0.47848  0.61493  1.0000
  H   H50       1.0  0.19119  0.28617  0.94338  1.0000
  H   H51       1.0  0.12121  0.23693  0.90621  1.0000
  H   H52       1.0  0.12540  0.16907  0.95508  1.0000
  H   H53       1.0  0.10025  0.25758  0.96595  1.0000
  H   H54       1.0  0.06539  0.40517  0.92239  1.0000
  H   H55       1.0  0.16626  0.26772  0.99397  1.0000
  C   C30       1.0  0.18194  0.35583  0.93219  1.0000
  H   H56       1.0  0.32161  0.07940  0.95029  1.0000
  C   C31       1.0  0.11649  0.28539  0.94327  1.0000
  S   S13       1.0  0.18026  0.49744  0.74304  1.0000
  C   C32       1.0  0.15583  0.37419  0.90942  1.0000
  C   C33       1.0  0.34700  0.01902  0.94779  1.0000
  H   H57       1.0  0.04062  0.09210  0.97706  1.0000
  H   H58       1.0  0.01505  0.41228  0.68682  1.0000
  C   C34       1.0  0.05083  0.31976  0.84031  1.0000
  H   H59       1.0  0.19733  0.34787  0.90633  1.0000
  C   C35       1.0  0.04310  0.33810  0.91368  1.0000
  H   H60       1.0  0.03363  0.35616  0.69158  1.0000
  H   H61       1.0  0.24853  0.35340  0.97600  1.0000
  H   H62       1.0  0.29754  0.10791  0.89183  1.0000
  H   H63       1.0  0.04715  0.29582  0.81761  1.0000
  C   C36       1.0  0.32194  0.09951  0.88383  1.0000
  H   H64       1.0  0.31377  0.08630  0.85053  1.0000
  C   C37       1.0  0.03757  0.30735  0.88366  1.0000
  C   C38       1.0  0.22703  0.32576  0.99691  1.0000
  H   H65       1.0  0.12564  0.34563  0.99608  1.0000
  C   C39       1.0  0.01408  0.45164  0.56527  1.0000
  S   S14       1.0  0.24199  0.51282  0.63441  1.0000
  H   H66       1.0  0.29902  0.01593  0.99176  1.0000
  C   C40       1.0  0.33216  0.02236  0.99323  1.0000
  H   H67       1.0  0.26342  0.95406  0.38427  1.0000
  Fe  Fe7       1.0  0.14284  0.99353  0.03646  1.0000
  S   S15       1.0  0.08159  0.94315  0.06673  1.0000
  C   C41       1.0  0.03255  0.92545  0.03895  1.0000
  H   H68       1.0  0.26405  0.92279  0.29282  1.0000
  N   N3        1.0  0.30358  0.00071  0.33614  1.0000
  H   H69       1.0  0.23891  0.98277  0.27055  1.0000
  C   C42       1.0  0.26339  0.96057  0.34852  1.0000
  S   S16       1.0  0.19423  0.97908  0.02091  1.0000
  C   C43       1.0  0.25416  0.91868  0.32707  1.0000
  H   H70       1.0  0.33241  0.99746  0.01551  1.0000
  H   H71       1.0  0.27918  0.01122  0.42269  1.0000
  H   H72       1.0  0.21940  0.89664  0.32559  1.0000
  H   H73       1.0  0.23517  0.96456  0.34326  1.0000
  H   H74       1.0  0.30999  0.98502  0.26973  1.0000
  H   H75       1.0  0.26890  0.90268  0.34643  1.0000
  H   H76       1.0  0.33605  0.98353  0.38688  1.0000
  C   C44       1.0  0.26971  0.01217  0.26506  1.0000
  C   C45       1.0  0.34194  0.99897  0.35375  1.0000
  H   H77       1.0  0.33521  0.94379  0.31708  1.0000
  C   C46       1.0  0.30685  0.00942  0.28751  1.0000
  H   H78       1.0  0.11457  0.89559  0.02006  1.0000
  H   H79       1.0  0.07012  0.84662  0.00369  1.0000
  Fe  Fe8       1.0  0.29227  0.83816  0.68026  1.0000
  H   H80       1.0  0.34710  0.68621  0.75098  1.0000
  S   S17       1.0  0.24244  0.77347  0.65527  1.0000
  Fe  Fe9       1.0  0.31486  0.89845  0.75624  1.0000
  H   H81       1.0  0.06178  0.81239  0.93869  1.0000
  S   S18       1.0  0.27698  0.88984  0.69421  1.0000
  C   C47       1.0  0.33901  0.70731  0.73030  1.0000
  H   H82       1.0  0.23209  0.94331  0.93596  1.0000
  C   C48       1.0  0.28928  0.65037  0.68255  1.0000
  H   H83       1.0  0.25770  0.58479  0.70762  1.0000
  S   S19       1.0  0.17707  0.60096  0.76728  1.0000
  H   H84       1.0  0.15608  0.84690  0.85049  1.0000
  C   C49       1.0  0.32778  0.56450  0.64444  1.0000
  S   S20       1.0  0.29565  0.89915  0.82592  1.0000
  S   S21       1.0  0.32623  0.84398  0.74387  1.0000
  H   H85       1.0  0.11902  0.90754  0.86768  1.0000
  C   C50       1.0  0.22532  0.72571  0.68663  1.0000
  C   C51       1.0  0.19305  0.68705  0.66978  1.0000
  C   C52       1.0  0.17824  0.64852  0.69402  1.0000
  C   C53       1.0  0.19537  0.64844  0.73556  1.0000
  C   C54       1.0  0.22758  0.68705  0.75247  1.0000
  C   C55       1.0  0.24286  0.72545  0.72794  1.0000
  H   H86       1.0  0.17929  0.68684  0.63783  1.0000
  H   H87       1.0  0.15299  0.61903  0.68085  1.0000
  H   H88       1.0  0.24112  0.68708  0.78449  1.0000
  H   H89       1.0  0.26811  0.75475  0.74113  1.0000
  C   C56       1.0  0.26587  0.92238  0.84212  1.0000
  C   C57       1.0  0.25815  0.92212  0.88672  1.0000
  C   C58       1.0  0.23695  0.94275  0.90145  1.0000
  C   C59       1.0  0.22270  0.96315  0.87145  1.0000
  C   C60       1.0  0.22881  0.96180  0.82670  1.0000
  C   C61       1.0  0.25062  0.94177  0.81203  1.0000
  H   H90       1.0  0.12806  0.92198  0.94287  1.0000
  H   H91       1.0  0.25626  0.94203  0.77759  1.0000
  H   H92       1.0  0.01524  0.79342  0.87016  1.0000
  H   H93       1.0  0.02090  0.89060  0.92190  1.0000
  H   H94       1.0  0.32673  0.57435  0.61088  1.0000
  H   H95       1.0  0.32226  0.98713  0.93604  1.0000
  Fe  Fe10      1.0  0.15139  0.53944  0.73004  1.0000
  N   N4        1.0  0.18019  0.77255  0.80787  1.0000
  C   C62       1.0  0.20525  0.75370  0.82974  1.0000
  C   C63       1.0  0.13615  0.73552  0.79974  1.0000
  C   C64       1.0  0.17844  0.80256  0.83960  1.0000
  C   C65       1.0  0.20199  0.79629  0.76662  1.0000
  C   C66       1.0  0.25124  0.78553  0.84382  1.0000
  C   C67       1.0  0.13280  0.70188  0.76760  1.0000
  C   C68       1.0  0.15587  0.82711  0.82347  1.0000
  C   C69       1.0  0.17495  0.80402  0.73110  1.0000
  H   H96       1.0  0.18895  0.73428  0.85932  1.0000
  H   H97       1.0  0.20750  0.73123  0.80780  1.0000
  H   H98       1.0  0.11378  0.74605  0.78785  1.0000
  H   H99       1.0  0.12225  0.71813  0.83100  1.0000
  H   H100      1.0  0.16336  0.78502  0.87040  1.0000
  H   H101      1.0  0.21078  0.82801  0.84907  1.0000
  H   H102      1.0  0.22969  0.82804  0.77457  1.0000
  H   H103      1.0  0.21575  0.77917  0.75042  1.0000
  H   H104      1.0  0.26952  0.80749  0.81686  1.0000
  H   H105      1.0  0.25290  0.80419  0.87250  1.0000
  H   H106      1.0  0.26747  0.76732  0.85382  1.0000
  H   H107      1.0  0.09902  0.68018  0.75871  1.0000
  H   H108      1.0  0.14964  0.71636  0.73684  1.0000
  H   H109      1.0  0.14464  0.68125  0.78267  1.0000
  H   H110      1.0  0.17326  0.85007  0.79662  1.0000
  H   H111      1.0  0.12244  0.80571  0.81370  1.0000
  H   H112      1.0  0.19090  0.83849  0.72167  1.0000
  H   H113      1.0  0.14277  0.79548  0.74035  1.0000
  H   H114      1.0  0.17276  0.78672  0.70096  1.0000
  H   H115      1.0  0.26367  0.68922  0.62160  1.0000
  H   H116      1.0  0.30771  0.69451  0.59154  1.0000
  C   C70       1.0  0.28595  0.61590  0.71600  1.0000
  C   C71       1.0  0.08603  0.90040  0.87314  1.0000
  S   S22       1.0  0.15716  0.54213  0.65754  1.0000
  H   H117      1.0  0.31388  0.61157  0.71607  1.0000
  C   C72       1.0  0.29181  0.52159  0.70788  1.0000
  C   C73       1.0  0.07320  0.83376  0.90938  1.0000
  H   H118      1.0  0.26216  0.65526  0.68865  1.0000
  H   H119      1.0  0.05756  0.96896  0.98392  1.0000
  H   H120      1.0  0.26963  0.90684  0.91011  1.0000
  C   C74       1.0  0.29016  0.53445  0.66458  1.0000
  C   C75       1.0  0.29753  0.71061  0.61409  1.0000
  H   H121      1.0  0.10728  0.84353  0.90715  1.0000
  H   H122      1.0  0.29944  0.73893  0.59630  1.0000
  C   C76       1.0  0.08664  0.94358  0.87228  1.0000
  C   C77       1.0  0.02320  0.86144  0.91749  1.0000
  H   H123      1.0  0.31068  0.74064  0.67528  1.0000
  H   H124      1.0  0.33501  0.65008  0.61027  1.0000
  H   H125      1.0  0.12223  0.86195  0.98485  1.0000
  N   N5        1.0  0.06877  0.87287  0.91386  1.0000
  H   H126      1.0  0.31026  0.70479  0.74459  1.0000
  H   H127      1.0  0.28107  0.62327  0.74941  1.0000
  H   H128      1.0  0.08252  0.91860  0.96494  1.0000
  S   S23       1.0  0.19764  0.99110  0.88826  1.0000
  Fe  Fe11      1.0  0.33933  0.93480  0.66273  1.0000
  H   H129      1.0  0.21769  0.97741  0.80329  1.0000
  C   C78       1.0  0.09505  0.89863  0.95257  1.0000
  H   H130      1.0  0.28242  0.63576  0.64995  1.0000
  N   N6        1.0  0.33005  0.69273  0.68359  1.0000
  H   H131      1.0  0.06315  0.82122  0.83853  1.0000
  C   C79       1.0  0.04967  0.80508  0.87015  1.0000
  H   H132      1.0  0.05337  0.77628  0.87246  1.0000
  C   C80       1.0  0.33088  0.53840  0.73066  1.0000
  H   H133      1.0  0.33195  0.52785  0.76394  1.0000
  H   H134      1.0  0.10434  0.96281  0.84334  1.0000
  H   H135      1.0  0.05433  0.93919  0.86906  1.0000
  H   H136      1.0  0.31514  0.01215  0.86205  1.0000
  H   H137      1.0  0.10302  0.96299  0.90117  1.0000
  H   H138      1.0  0.06724  0.88364  0.84365  1.0000
  C   C81       1.0  0.32525  0.72588  0.65614  1.0000
  Fe  Fe12      1.0  0.19834  0.01311  0.95704  1.0000
  C   C82       1.0  0.02971  0.94299  0.99834  1.0000
  C   C83       1.0  0.10026  0.87370  0.99219  1.0000
  Fe  Fe13      1.0  0.41665  0.13707  0.31367  1.0000
  S   S24       1.0  0.41098  0.13777  0.38655  1.0000
  C   C84       1.0  0.37201  0.27189  0.26773  1.0000
  Fe  Fe14      1.0  0.50930  0.15798  0.32346  1.0000
  S   S25       1.0  0.50968  0.15916  0.39649  1.0000
  S   S26       1.0  0.56925  0.18082  0.28606  1.0000
  Fe  Fe15      1.0  0.44516  0.10033  0.39111  1.0000
  S   S27       1.0  0.42332  0.03739  0.42931  1.0000
  Fe  Fe16      1.0  0.47575  0.19633  0.38499  1.0000
  S   S28       1.0  0.49400  0.25685  0.42125  1.0000
  S   S29       1.0  0.44727  0.09617  0.31781  1.0000
  S   S30       1.0  0.47866  0.19813  0.31231  1.0000
  H   H139      1.0  0.45630  0.31233  0.34064  1.0000
  S   S31       1.0  0.56285  0.42602  0.30458  1.0000
  C   C85       1.0  0.64847  0.41342  0.39174  1.0000
  C   C86       1.0  0.61606  0.20444  0.31824  1.0000
  C   C87       1.0  0.65269  0.23969  0.30165  1.0000
  C   C88       1.0  0.61784  0.18716  0.35931  1.0000
  H   H140      1.0  0.65139  0.25327  0.26996  1.0000
  H   H141      1.0  0.58990  0.15968  0.37215  1.0000
  C   C89       1.0  0.51725  0.30517  0.39046  1.0000
  C   C90       1.0  0.51946  0.34189  0.40735  1.0000
  C   C91       1.0  0.53473  0.37973  0.38177  1.0000
  C   C92       1.0  0.54774  0.38090  0.33915  1.0000
  C   C93       1.0  0.54685  0.34469  0.32288  1.0000
  C   C94       1.0  0.53235  0.30724  0.34870  1.0000
  H   H142      1.0  0.50827  0.34073  0.43983  1.0000
  H   H143      1.0  0.53515  0.40751  0.39454  1.0000
  H   H144      1.0  0.55752  0.34563  0.29018  1.0000
  H   H145      1.0  0.53310  0.28014  0.33624  1.0000
  H   H146      1.0  0.60113  0.26329  0.38150  1.0000
  C   C95       1.0  0.68011  0.39802  0.40440  1.0000
  Fe  Fe17      1.0  0.59660  0.49011  0.33736  1.0000
  C   C96       1.0  0.65625  0.20434  0.38315  1.0000
  H   H147      1.0  0.39413  0.09633  0.21254  1.0000
  H   H148      1.0  0.34885  0.20582  0.29745  1.0000
  H   H149      1.0  0.45339  0.37858  0.30677  1.0000
  N   N7        1.0  0.41708  0.28718  0.28286  1.0000
  C   C97       1.0  0.61305  0.27441  0.41503  1.0000
  C   C98       1.0  0.44570  0.32971  0.26048  1.0000
  H   H150      1.0  0.64843  0.31233  0.33653  1.0000
  H   H151      1.0  0.47964  0.33956  0.26679  1.0000
  C   C99       1.0  0.44044  0.36774  0.27336  1.0000
  C   C100      1.0  0.40182  0.02568  0.48224  1.0000
  H   H152      1.0  0.64258  0.41343  0.35603  1.0000
  H   H153      1.0  0.41387  0.22508  0.28696  1.0000
  H   H154      1.0  0.36900  0.03198  0.35806  1.0000
  H   H155      1.0  0.41298  0.23181  0.35684  1.0000
  H   H156      1.0  0.61797  0.39437  0.40841  1.0000
  C   C101      1.0  0.36613  0.09517  0.19791  1.0000
  H   H157      1.0  0.46537  0.26921  0.28421  1.0000
  H   H158      1.0  0.44110  0.32735  0.22440  1.0000
  C   C102      1.0  0.43248  0.25706  0.27135  1.0000
  H   H159      1.0  0.66506  0.17914  0.25941  1.0000
  H   H160      1.0  0.58583  0.25598  0.43688  1.0000
  C   C103      1.0  0.62882  0.32261  0.41951  1.0000
  C   C104      1.0  0.35167  0.07791  0.15614  1.0000
  H   H161      1.0  0.45929  0.39544  0.25109  1.0000
  H   H162      1.0  0.63746  0.26586  0.42489  1.0000
  H   H163      1.0  0.66193  0.44702  0.40216  1.0000
  N   N8        1.0  0.66677  0.35264  0.39300  1.0000
  C   C105      1.0  0.65482  0.34472  0.34527  1.0000
  H   H164      1.0  0.62472  0.34463  0.33774  1.0000
  H   H165      1.0  0.37116  0.27977  0.23234  1.0000
  H   H166      1.0  0.65752  0.19030  0.41459  1.0000
  H   H167      1.0  0.63463  0.33029  0.45478  1.0000
  C   C106      1.0  0.42219  0.29440  0.33141  1.0000
  H   H168      1.0  0.60132  0.32665  0.41018  1.0000
  H   H169      1.0  0.40711  0.36033  0.27067  1.0000
  S   S32       1.0  0.61191  0.49673  0.40903  1.0000
  H   H170      1.0  0.40914  0.31491  0.34095  1.0000
  H   H171      1.0  0.36880  0.06595  0.13881  1.0000
  H   H172      1.0  0.41105  0.26536  0.39614  1.0000
  H   H173      1.0  0.66176  0.13065  0.27911  1.0000
  H   H174      1.0  0.40185  0.24068  0.20572  1.0000
  C   C107      1.0  0.40168  0.25468  0.36195  1.0000
  H   H175      1.0  0.45848  0.27755  0.20548  1.0000
  H   H176      1.0  0.43824  0.22212  0.21827  1.0000
  C   C108      1.0  0.43252  0.24934  0.22222  1.0000
  S   S33       1.0  0.35990  0.13107  0.27393  1.0000
  H   H177      1.0  0.36673  0.23865  0.36025  1.0000
  H   H178      1.0  0.35261  0.05352  0.00864  1.0000
  H   H179      1.0  0.35884  0.28931  0.28467  1.0000
  H   H180      1.0  0.67601  0.36610  0.27909  1.0000
  H   H181      1.0  0.41460  0.08940  0.49488  1.0000
  C   C109      1.0  0.54289  0.05345  0.57614  1.0000
  H   H182      1.0  0.57153  0.07590  0.55764  1.0000
  C   C110      1.0  0.41133  0.47524  0.63973  1.0000
  H   H183      1.0  0.48461  0.47853  0.60621  1.0000
  H   H184      1.0  0.35285  0.12958  0.88417  1.0000
  H   H185      1.0  0.47422  0.02790  0.62192  1.0000
  H   H186      1.0  0.43558  0.46767  0.65269  1.0000
  H   H187      1.0  0.50348  0.50179  0.55374  1.0000
  H   H188      1.0  0.38992  0.44722  0.61938  1.0000
  H   H189      1.0  0.42994  0.48294  0.55431  1.0000
  H   H190      1.0  0.35421  0.46990  0.66856  1.0000
  H   H191      1.0  0.38624  0.07114  0.56992  1.0000
  C   C111      1.0  0.38591  0.04663  0.55032  1.0000
  H   H192      1.0  0.40599  0.11403  0.88995  1.0000
  C   C112      1.0  0.49159  0.50654  0.58473  1.0000
  H   H193      1.0  0.37956  0.44688  0.70101  1.0000
  H   H194      1.0  0.51653  0.05385  0.55760  1.0000
  H   H195      1.0  0.54564  0.06654  0.60908  1.0000
  H   H196      1.0  0.35841  0.06094  0.84349  1.0000
  C   C113      1.0  0.38564  0.47448  0.67905  1.0000
  H   H197      1.0  0.37039  0.49124  0.57606  1.0000
  H   H198      1.0  0.40247  0.50377  0.69868  1.0000
  H   H199      1.0  0.42176  0.08054  0.91648  1.0000
  C   C114      1.0  0.39813  0.09130  0.91829  1.0000
  N   N9        1.0  0.35394  0.05362  0.91421  1.0000
  C   C115      1.0  0.34892  0.03547  0.86932  1.0000
  C   C116      1.0  0.40188  0.05704  0.50774  1.0000
  C   C117      1.0  0.45239  0.51101  0.57406  1.0000
  C   C118      1.0  0.40981  0.11715  0.96050  1.0000
  H   H200      1.0  0.40874  0.03397  0.86484  1.0000
  H   H201      1.0  0.43599  0.15018  0.95375  1.0000
  H   H202      1.0  0.38421  0.12164  0.97266  1.0000
  H   H203      1.0  0.37617  0.01666  0.95286  1.0000
  H   H204      1.0  0.42048  0.10235  0.98674  1.0000
  C   C119      1.0  0.63045  0.62186  0.03579  1.0000
  S   S34       1.0  0.65341  0.64097  0.27103  1.0000
  C   C120      1.0  0.62997  0.68076  0.07476  1.0000
  H   H205      1.0  0.59952  0.59974  0.17033  1.0000
  H   H206      1.0  0.62643  0.72915  0.11171  1.0000
  H   H207      1.0  0.38457  0.97428  0.34535  1.0000
  H   H208      1.0  0.63863  0.70156  0.04468  1.0000
  Fe  Fe18      1.0  0.64329  0.58727  0.31954  1.0000
  H   H209      1.0  0.57749  0.61497  0.12613  1.0000
  H   H210      1.0  0.63703  0.59490  0.03998  1.0000
  H   H211      1.0  0.66368  0.64805  0.14277  1.0000
  H   H212      1.0  0.67006  0.93464  0.04156  1.0000
  H   H213      1.0  0.58177  0.56735  0.12237  1.0000
  H   H214      1.0  0.50938  0.59386  0.49229  1.0000
  H   H215      1.0  0.45759  0.97492  0.47788  1.0000
  H   H216      1.0  0.65408  0.60343  0.11354  1.0000
  C   C121      1.0  0.58262  0.60171  0.02582  1.0000
  H   H217      1.0  0.59496  0.66277  0.07408  1.0000
  S   S35       1.0  0.66310  0.60108  0.39035  1.0000
  N   N10       1.0  0.64852  0.65156  0.07402  1.0000
  C   C122      1.0  0.59767  0.60074  0.13402  1.0000
  S   S36       1.0  0.57586  0.53913  0.33497  1.0000
  C   C123      1.0  0.64259  0.70995  0.11459  1.0000
  Fe  Fe19      1.0  0.59665  0.55013  0.40568  1.0000
  S   S37       1.0  0.55067  0.55618  0.44925  1.0000
  S   S38       1.0  0.66235  0.53713  0.31545  1.0000
  H   H218      1.0  0.63263  0.69135  0.14575  1.0000
  C   C124      1.0  0.64287  0.62680  0.11637  1.0000
  C   C125      1.0  0.56531  0.58793  0.49628  1.0000
  H   H219      1.0  0.56304  0.58601  0.05465  1.0000
  H   H220      1.0  0.38407  0.95907  0.47968  1.0000
  H   H221      1.0  0.67685  0.73304  0.11636  1.0000
  H   H222      1.0  0.64613  0.63902  0.00493  1.0000
  H   H223      1.0  0.37455  0.99589  0.29620  1.0000
  H   H224      1.0  0.57503  0.62587  0.01135  1.0000
  Fe  Fe20      1.0  0.67667  0.54655  0.38733  1.0000
  C   C126      1.0  0.35935  0.97661  0.32604  1.0000
  H   H225      1.0  0.65715  0.87276  0.01804  1.0000
  H   H226      1.0  0.65378  0.80646  0.01071  1.0000
  H   H227      1.0  0.57322  0.57676  0.00090  1.0000
  H   H228      1.0  0.48168  0.94357  0.49153  1.0000
  C   C127      1.0  0.38500  0.98375  0.49944  1.0000
  H   H229      1.0  0.51157  0.00162  0.49498  1.0000
  Fe  Fe21      1.0  0.38385  0.89189  0.70848  1.0000
  S   S39       1.0  0.44566  0.89339  0.72186  1.0000
  S   S40       1.0  0.41709  0.58854  0.73981  1.0000
  H   H230      1.0  0.39528  0.60541  0.65185  1.0000
  C   C128      1.0  0.45335  0.85617  0.69397  1.0000
  C   C129      1.0  0.62758  0.88679  0.94485  1.0000
  C   C130      1.0  0.43182  0.83911  0.65459  1.0000
  H   H231      1.0  0.40920  0.84781  0.64146  1.0000
  C   C131      1.0  0.44034  0.81142  0.63154  1.0000
  H   H232      1.0  0.38828  0.66427  0.61800  1.0000
  H   H233      1.0  0.37626  0.70486  0.59894  1.0000
  H   H234      1.0  0.63324  0.65261  0.70661  1.0000
  H   H235      1.0  0.42408  0.79872  0.60078  1.0000
  S   S41       1.0  0.37612  0.94731  0.72644  1.0000
  H   H236      1.0  0.61362  0.85196  0.95160  1.0000
  C   C132      1.0  0.40510  0.55923  0.56234  1.0000
  H   H237      1.0  0.40651  0.75802  0.72908  1.0000
  H   H238      1.0  0.61155  0.62051  0.77700  1.0000
  H   H239      1.0  0.39671  0.71964  0.67220  1.0000
  S   S42       1.0  0.49042  0.71427  0.73162  1.0000
  H   H240      1.0  0.43473  0.93906  0.55116  1.0000
  C   C133      1.0  0.63095  0.71457  0.88985  1.0000
  H   H241      1.0  0.63400  0.71908  0.70042  1.0000
  C   C134      1.0  0.46585  0.96910  0.54799  1.0000
  H   H242      1.0  0.61005  0.89008  0.91592  1.0000
  H   H243      1.0  0.46399  0.53924  0.55158  1.0000
  C   C135      1.0  0.47845  0.96833  0.62796  1.0000
  C   C136      1.0  0.36665  0.58219  0.66763  1.0000
  Fe  Fe22      1.0  0.50495  0.72897  0.66063  1.0000
  C   C137      1.0  0.60219  0.59796  0.52054  1.0000
  H   H244      1.0  0.35674  0.94113  0.55508  1.0000
  C   C138      1.0  0.52845  0.92475  0.61429  1.0000
  C   C139      1.0  0.48288  0.84489  0.71048  1.0000
  C   C140      1.0  0.37005  0.00496  0.56793  1.0000
  H   H245      1.0  0.46828  0.90151  0.58046  1.0000
  H   H246      1.0  0.61656  0.68269  0.90430  1.0000
  C   C141      1.0  0.48901  0.55110  0.67278  1.0000
  S   S43       1.0  0.47793  0.76336  0.61989  1.0000
  H   H247      1.0  0.49983  0.85821  0.74079  1.0000
  H   H248      1.0  0.41500  0.55477  0.53010  1.0000
  H   H249      1.0  0.37764  0.76035  0.77320  1.0000
  H   H250      1.0  0.58331  0.69683  0.83827  1.0000
  H   H251      1.0  0.65096  0.73685  0.75387  1.0000
  C   C142      1.0  0.46921  0.79944  0.64854  1.0000
  S   S44       1.0  0.59420  0.65859  0.62577  1.0000
  H   H252      1.0  0.55682  0.00643  0.55143  1.0000
  Fe  Fe23      1.0  0.47473  0.64783  0.71421  1.0000
  H   H253      1.0  0.47773  0.55076  0.70605  1.0000
  C   C143      1.0  0.48064  0.97245  0.50076  1.0000
  S   S45       1.0  0.60687  0.77575  0.78772  1.0000
  H   H254      1.0  0.36795  0.00139  0.82685  1.0000
  H   H255      1.0  0.47985  0.58188  0.61513  1.0000
  C   C144      1.0  0.37538  0.75355  0.73788  1.0000
  H   H256      1.0  0.51790  0.53638  0.59853  1.0000
  C   C145      1.0  0.36842  0.56892  0.71072  1.0000
  H   H257      1.0  0.66780  0.96595  0.99428  1.0000
  C   C146      1.0  0.66293  0.73647  0.72139  1.0000
  H   H258      1.0  0.50354  0.97838  0.65395  1.0000
  Fe  Fe24      1.0  0.55782  0.72822  0.73997  1.0000
  C   C147      1.0  0.36948  0.97346  0.54218  1.0000
  C   C148      1.0  0.39367  0.52058  0.59368  1.0000
  S   S46       1.0  0.54074  0.66011  0.72936  1.0000
  H   H259      1.0  0.65829  0.65927  0.80414  1.0000
  H   H260      1.0  0.62356  0.58783  0.50944  1.0000
  C   C149      1.0  0.62988  0.76373  0.83400  1.0000
  H   H261      1.0  0.42965  0.58991  0.57630  1.0000
  C   C150      1.0  0.53771  0.60110  0.51120  1.0000
  H   H262      1.0  0.37644  0.56217  0.55609  1.0000
  H   H263      1.0  0.56229  0.94905  0.61056  1.0000
  H   H264      1.0  0.51296  0.80725  0.70129  1.0000
  H   H265      1.0  0.44063  0.56634  0.65523  1.0000
  C   C151      1.0  0.49035  0.81606  0.68816  1.0000
  H   H266      1.0  0.37286  0.66671  0.69055  1.0000
  H   H267      1.0  0.52080  0.58020  0.67097  1.0000
  S   S47       1.0  0.48509  0.66159  0.64254  1.0000
  H   H268      1.0  0.61907  0.67268  0.78242  1.0000
  Fe  Fe25      1.0  0.55216  0.67880  0.65823  1.0000
  H   H269      1.0  0.52536  0.63408  0.56107  1.0000
  H   H270      1.0  0.51343  0.93072  0.54756  1.0000
  C   C152      1.0  0.63594  0.65501  0.77671  1.0000
  H   H271      1.0  0.63906  0.62706  0.57880  1.0000
  H   H272      1.0  0.37581  0.52399  0.62028  1.0000
  C   C153      1.0  0.50010  0.93094  0.57947  1.0000
  C   C154      1.0  0.58287  0.63267  0.57511  1.0000
  H   H273      1.0  0.45446  0.93471  0.63672  1.0000
  C   C155      1.0  0.61208  0.72245  0.85239  1.0000
  C   C156      1.0  0.61079  0.62005  0.55991  1.0000
  H   H274      1.0  0.45084  0.99533  0.66913  1.0000
  C   C157      1.0  0.54655  0.62365  0.55029  1.0000
  S   S48       1.0  0.57337  0.74795  0.66945  1.0000
  C   C158      1.0  0.45943  0.55516  0.63773  1.0000
  H   H275      1.0  0.45821  0.99503  0.55085  1.0000
  C   C159      1.0  0.36686  0.68867  0.66892  1.0000
  H   H276      1.0  0.52574  0.89298  0.60998  1.0000
  C   C160      1.0  0.66701  0.79682  0.85300  1.0000
  C   C161      1.0  0.45606  0.99443  0.63385  1.0000
  H   H277      1.0  0.65889  0.82509  0.95497  1.0000
  H   H278      1.0  0.42438  0.97863  0.61762  1.0000
  H   H279      1.0  0.49402  0.52359  0.66970  1.0000
  N   N11       1.0  0.49622  0.97049  0.58357  1.0000
  H   H280      1.0  0.51880  0.92492  0.64806  1.0000
  H   H281      1.0  0.56005  0.01075  0.60812  1.0000
  C   C162      1.0  0.36601  0.67652  0.62118  1.0000
  S   S49       1.0  0.35108  0.99368  0.62196  1.0000
  C   C163      1.0  0.53975  0.00914  0.57942  1.0000
  C   C164      1.0  0.67506  0.83181  0.98739  1.0000
  C   C165      1.0  0.66797  0.74770  0.90895  1.0000
  H   H282      1.0  0.36990  0.77796  0.72055  1.0000
  H   H283      1.0  0.36387  0.98338  0.88205  1.0000
  H   H284      1.0  0.66937  0.79977  0.71332  1.0000
  H   H285      1.0  0.35670  0.75274  0.64670  1.0000
  S   S50       1.0  0.35117  0.88233  0.64300  1.0000
  C   C166      1.0  0.37415  0.01250  0.86108  1.0000
  C   C167      1.0  0.65832  0.66655  0.73262  1.0000
  H   H286      1.0  0.62127  0.90138  0.97251  1.0000
  N   N12       1.0  0.43017  0.51582  0.61213  1.0000
  H   H287      1.0  0.67524  0.64809  0.73252  1.0000
  H   H288      1.0  0.67948  0.70787  0.65245  1.0000
  H   H289      1.0  0.67655  0.88893  0.90718  1.0000
  C   C168      1.0  0.67497  0.90813  0.93401  1.0000
  Fe  Fe26      1.0  0.80069  0.31743  0.37467  1.0000
  S   S51       1.0  0.80422  0.35251  0.31207  1.0000
  S   S52       1.0  0.74068  0.25908  0.39720  1.0000
  Fe  Fe27      1.0  0.89413  0.37627  0.39811  1.0000
  S   S53       1.0  0.90370  0.41658  0.33709  1.0000
  S   S54       1.0  0.95226  0.38326  0.43635  1.0000
  Fe  Fe28      1.0  0.84140  0.41156  0.35147  1.0000
  S   S55       1.0  0.82665  0.46326  0.32884  1.0000
  Fe  Fe29      1.0  0.86579  0.35452  0.30239  1.0000
  S   S56       1.0  0.88456  0.35013  0.23373  1.0000
  S   S57       1.0  0.83444  0.37632  0.41572  1.0000
  S   S58       1.0  0.85919  0.31408  0.36202  1.0000
  Fe  Fe30      1.0  0.95500  0.21697  0.09115  1.0000
  S   S59       1.0  0.92380  0.21321  0.15558  1.0000
  S   S60       1.0  0.96402  0.16029  0.08261  1.0000
  C   C169      1.0  0.89874  0.31373  0.21382  1.0000
  C   C170      1.0  0.89607  0.27969  0.23955  1.0000
  C   C171      1.0  0.90503  0.24983  0.22153  1.0000
  C   C172      1.0  0.91690  0.25383  0.17774  1.0000
  C   C173      1.0  0.92064  0.28852  0.15237  1.0000
  C   C174      1.0  0.91142  0.31823  0.17035  1.0000
  H   H290      1.0  0.88622  0.27588  0.27293  1.0000
  H   H291      1.0  0.71072  0.42071  0.38925  1.0000
  H   H292      1.0  0.91353  0.34448  0.15018  1.0000
  Fe  Fe31      1.0  0.94684  0.16313  0.01248  1.0000
  C   C175      1.0  0.95748  0.31106  0.34797  1.0000
  H   H293      1.0  0.94570  0.05337  0.05847  1.0000
  H   H294      1.0  0.78729  0.21659  0.34275  1.0000
  H   H295      1.0  0.95207  0.36715  0.34387  1.0000
  H   H296      1.0  0.78865  0.28890  0.17369  1.0000
  H   H297      1.0  0.86895  0.08099  0.05784  1.0000
  H   H298      1.0  0.69359  0.40919  0.31564  1.0000
  H   H299      1.0  0.75168  0.30465  0.18848  1.0000
  H   H300      1.0  0.73246  0.37002  0.38610  1.0000
  C   C176      1.0  0.79607  0.47959  0.35694  1.0000
  C   C177      1.0  0.97585  0.06284  0.12210  1.0000
  H   H301      1.0  0.80692  0.26603  0.27041  1.0000
  C   C178      1.0  0.78266  0.50857  0.42084  1.0000
  H   H302      1.0  0.76249  0.48125  0.29833  1.0000
  H   H303      1.0  0.82351  0.21793  0.30388  1.0000
  H   H304      1.0  0.71589  0.22609  0.18618  1.0000
  H   H305      1.0  0.82541  0.48327  0.42005  1.0000
  H   H306      1.0  0.71852  0.37649  0.31642  1.0000
  H   H307      1.0  0.71884  0.28452  0.31284  1.0000
  N   N13       1.0  0.99683  0.03917  0.05318  1.0000
  C   C179      1.0  0.79013  0.20920  0.30857  1.0000
  N   N14       1.0  0.75456  0.21523  0.23488  1.0000
  C   C180      1.0  0.73643  0.24191  0.21526  1.0000
  C   C181      1.0  0.71802  0.17032  0.24113  1.0000
  C   C182      1.0  0.78485  0.21545  0.20247  1.0000
  C   C183      1.0  0.68420  0.16525  0.27321  1.0000
  C   C184      1.0  0.79737  0.18053  0.20827  1.0000
  C   C185      1.0  0.96883  0.35435  0.32532  1.0000
  H   H308      1.0  0.92311  0.28853  0.34351  1.0000
  H   H309      1.0  0.69721  0.31438  0.38948  1.0000
  C   C186      1.0  0.97808  0.06402  0.07191  1.0000
  H   H310      1.0  0.77143  0.21201  0.16860  1.0000
  H   H311      1.0  0.71566  0.24503  0.23872  1.0000
  C   C187      1.0  0.76890  0.28807  0.20076  1.0000
  H   H312      1.0  0.95361  0.03030  0.13495  1.0000
  C   C188      1.0  0.69301  0.23924  0.36643  1.0000
  H   H313      1.0  0.78959  0.30706  0.22815  1.0000
  H   H314      1.0  0.77058  0.14838  0.20037  1.0000
  H   H315      1.0  0.81053  0.17997  0.24112  1.0000
  H   H316      1.0  0.92964  0.29185  0.11860  1.0000
  H   H317      1.0  0.76998  0.17419  0.30665  1.0000
  H   H318      1.0  0.97407  0.29564  0.33451  1.0000
  H   H319      1.0  0.00694  0.43739  0.34849  1.0000
  C   C189      1.0  0.76756  0.48805  0.33280  1.0000
  C   C190      1.0  0.77724  0.23544  0.27712  1.0000
  C   C191      1.0  0.70348  0.34525  0.40274  1.0000
  H   H320      1.0  0.90203  0.22299  0.24131  1.0000
  H   H321      1.0  0.75866  0.24574  0.29627  1.0000
  S   S61       1.0  0.93240  0.21646  0.02137  1.0000
  C   C192      1.0  0.98642  0.03402  0.00501  1.0000
  H   H322      1.0  0.95310  0.34716  0.29255  1.0000
  C   C193      1.0  0.86338  0.05168  0.04330  1.0000
  H   H323      1.0  0.99657  0.09849  0.06200  1.0000
  H   H324      1.0  0.82250  0.18722  0.18471  1.0000
  H   H325      1.0  0.70165  0.15750  0.20920  1.0000
  H   H326      1.0  0.81479  0.24674  0.20234  1.0000
  H   H327      1.0  0.69803  0.17925  0.30539  1.0000
  H   H328      1.0  0.72854  0.14756  0.25247  1.0000
  C   C194      1.0  0.71633  0.34574  0.45130  1.0000
  Fe  Fe32      1.0  0.00157  0.26051  0.00630  1.0000
  H   H329      1.0  0.96363  0.08397  0.13181  1.0000
  H   H330      1.0  0.68604  0.40273  0.44015  1.0000
  C   C195      1.0  0.99599  0.43866  0.27883  1.0000
  H   H331      1.0  0.72761  0.37744  0.46582  1.0000
  H   H332      1.0  0.74309  0.33924  0.45381  1.0000
  H   H333      1.0  0.92988  0.43013  0.49630  1.0000
  C   C196      1.0  0.80286  0.48895  0.40136  1.0000
  H   H334      1.0  0.96360  0.31483  0.38376  1.0000
  C   C197      1.0  0.68805  0.37625  0.31287  1.0000
  H   H335      1.0  0.72387  0.51161  0.33367  1.0000
  C   C198      1.0  0.69098  0.25730  0.32583  1.0000
  C   C199      1.0  0.97504  0.40965  0.48625  1.0000
  H   H336      1.0  0.96238  0.41357  0.27587  1.0000
  C   C200      1.0  0.74596  0.50574  0.35272  1.0000
  H   H337      1.0  0.99661  0.46948  0.28284  1.0000
  H   H338      1.0  0.00742  0.07503  0.13804  1.0000
  H   H339      1.0  0.69057  0.32033  0.47093  1.0000
  H   H340      1.0  0.00586  0.31256  0.26679  1.0000
  H   H341      1.0  0.01319  0.37933  0.25202  1.0000
  H   H342      1.0  0.01198  0.44143  0.24783  1.0000
  C   C201      1.0  0.88091  0.05327  0.00301  1.0000
  H   H343      1.0  0.97814  0.39173  0.64250  1.0000
  H   H344      1.0  0.92339  0.39421  0.68111  1.0000
  S   S62       1.0  0.91117  0.10209  0.97431  1.0000
  C   C202      1.0  0.95545  0.40894  0.69635  1.0000
  H   H345      1.0  0.85834  0.28271  0.68420  1.0000
  C   C203      1.0  0.98119  0.38979  0.67863  1.0000
  C   C204      1.0  0.88775  0.30272  0.70351  1.0000
  H   H346      1.0  0.92420  0.28132  0.67074  1.0000
  H   H347      1.0  0.94843  0.34801  0.75830  1.0000
  H   H348      1.0  0.88689  0.33154  0.71278  1.0000
  H   H349      1.0  0.97119  0.44339  0.68651  1.0000
  H   H350      1.0  0.96449  0.30069  0.79847  1.0000
  H   H351      1.0  0.99552  0.09831  0.98843  1.0000
  H   H352      1.0  0.92066  0.32315  0.64274  1.0000
  C   C205      1.0  0.96903  0.30169  0.76272  1.0000
  C   C206      1.0  0.97273  0.34335  0.74276  1.0000
  C   C207      1.0  0.92629  0.31278  0.67581  1.0000
  H   H353      1.0  0.97781  0.32552  0.60735  1.0000
  C   C208      1.0  0.00203  0.33561  0.67585  1.0000
  C   C209      1.0  0.00561  0.07589  0.97739  1.0000
  C   C210      1.0  0.87341  0.01506  0.98446  1.0000
  H   H354      1.0  0.96400  0.46691  0.56555  1.0000
  C   C211      1.0  0.97737  0.45096  0.54832  1.0000
  H   H355      1.0  0.95426  0.40786  0.73240  1.0000
  N   N15       1.0  0.96946  0.34497  0.69362  1.0000
  C   C212      1.0  0.95793  0.43013  0.50903  1.0000
  H   H356      1.0  0.00353  0.37037  0.75451  1.0000
  H   H357      1.0  0.94220  0.27259  0.74851  1.0000
  H   H358      1.0  0.88624  0.28390  0.73350  1.0000
  H   H359      1.0  0.99400  0.30202  0.68361  1.0000
  H   H360      1.0  0.99410  0.06817  0.94307  1.0000
  H   H361      1.0  0.99862  0.30077  0.75839  1.0000
  H   H362      1.0  0.88700  0.01611  0.95336  1.0000
  C   C213      1.0  0.00818  0.34163  0.62603  1.0000
  H   H363      1.0  0.95159  0.01789  0.99928  1.0000
  S   S63       1.0  0.01388  0.20711  0.99196  1.0000
  C   C214      1.0  0.01161  0.41007  0.50334  1.0000
  H   H364      1.0  0.82011  0.69100  0.27620  1.0000
  H   H365      1.0  0.99740  0.87892  0.08923  1.0000
  H   H366      1.0  0.70581  0.99052  0.03698  1.0000
  C   C215      1.0  0.82970  0.97369  0.04543  1.0000
  H   H367      1.0  0.85958  0.67782  0.28664  1.0000
  H   H368      1.0  0.86285  0.63904  0.34675  1.0000
  S   S64       1.0  0.84678  0.85290  0.07004  1.0000
  S   S65       1.0  0.74297  0.79791  0.06276  1.0000
  Fe  Fe33      1.0  0.79460  0.86535  0.04780  1.0000
  S   S66       1.0  0.79433  0.92411  0.07054  1.0000
  Fe  Fe34      1.0  0.79565  0.78406  0.07843  1.0000
  S   S67       1.0  0.79708  0.73809  0.13076  1.0000
  H   H369      1.0  0.91320  0.98372  0.07135  1.0000
  C   C216      1.0  0.69541  0.67962  0.06698  1.0000
  C   C217      1.0  0.93069  0.96609  0.07025  1.0000
  C   C218      1.0  0.75782  0.71195  0.17059  1.0000
  C   C219      1.0  0.75116  0.67300  0.18956  1.0000
  C   C220      1.0  0.71929  0.65079  0.22042  1.0000
  C   C221      1.0  0.75609  0.67711  0.33487  1.0000
  H   H370      1.0  0.82992  0.65528  0.43067  1.0000
  C   C222      1.0  0.73285  0.72887  0.18325  1.0000
  H   H371      1.0  0.77014  0.65955  0.17963  1.0000
  H   H372      1.0  0.87569  0.75597  0.29737  1.0000
  C   C223      1.0  0.83871  0.68667  0.30361  1.0000
  H   H373      1.0  0.73812  0.75912  0.16933  1.0000
  H   H374      1.0  0.76263  0.62155  0.28383  1.0000
  C   C224      1.0  0.78394  0.66291  0.36132  1.0000
  C   C225      1.0  0.95645  0.87600  0.03522  1.0000
  H   H375      1.0  0.92839  0.84962  0.04932  1.0000
  H   H376      1.0  0.98943  0.99670  0.10891  1.0000
  N   N16       1.0  0.81063  0.65123  0.33483  1.0000
  H   H377      1.0  0.82169  0.61405  0.25622  1.0000
  H   H378      1.0  0.78952  0.51763  0.45468  1.0000
  C   C226      1.0  0.84865  0.97550  0.00600  1.0000
  H   H379      1.0  0.75653  0.58759  0.32953  1.0000
  H   H380      1.0  0.92154  0.94772  0.03959  1.0000
  H   H381      1.0  0.75410  0.68017  0.05552  1.0000
  H   H382      1.0  0.76267  0.63529  0.38276  1.0000
  C   C227      1.0  0.80083  0.59221  0.28206  1.0000
  H   H383      1.0  0.81833  0.58044  0.30329  1.0000
  H   H384      1.0  0.87684  0.65303  0.42257  1.0000
  H   H385      1.0  0.85490  0.73941  0.34964  1.0000
  H   H386      1.0  0.77446  0.70412  0.31187  1.0000
  H   H387      1.0  0.81658  0.60391  0.37577  1.0000
  H   H388      1.0  0.77519  0.56378  0.26534  1.0000
  H   H389      1.0  0.89899  0.73313  0.33456  1.0000
  C   C228      1.0  0.85514  0.66309  0.40686  1.0000
  C   C229      1.0  0.70140  0.70694  0.21449  1.0000
  S   S68       1.0  0.73359  0.54680  0.42001  1.0000
  C   C230      1.0  0.83626  0.63790  0.36458  1.0000
  S   S69       1.0  0.79982  0.76765  0.00931  1.0000
  H   H390      1.0  0.71311  0.62000  0.23347  1.0000
  C   C231      1.0  0.78062  0.61303  0.30816  1.0000
  H   H391      1.0  0.91955  0.94330  0.09856  1.0000
  H   H392      1.0  0.74078  0.68821  0.35768  1.0000
  C   C232      1.0  0.97917  0.99526  0.07405  1.0000
  C   C233      1.0  0.86872  0.73087  0.32306  1.0000
  H   H393      1.0  0.73006  0.65006  0.31714  1.0000
  C   C234      1.0  0.99561  0.89245  0.05765  1.0000
  H   H394      1.0  0.80319  0.68898  0.38425  1.0000
  C   C235      1.0  0.72069  0.65611  0.06238  1.0000
  H   H395      1.0  0.87356  0.69806  0.40109  1.0000
  C   C236      1.0  0.69455  0.66792  0.23331  1.0000
  H   H396      1.0  0.72144  0.63927  0.09312  1.0000
  H   H397      1.0  0.99240  0.97712  0.05879  1.0000
  H   H398      1.0  0.71084  0.70201  0.09416  1.0000
  C   C237      1.0  0.83732  0.01192  0.06409  1.0000
  H   H399      1.0  0.70837  0.88279  0.03277  1.0000
  Fe  Fe35      1.0  0.84649  0.83763  0.99995  1.0000
  H   H400      1.0  0.70911  0.63381  0.03478  1.0000
  H   H401      1.0  0.70132  0.70032  0.03723  1.0000
  H   H402      1.0  0.68229  0.72034  0.22424  1.0000
  H   H403      1.0  0.82293  0.01084  0.09468  1.0000
  C   C238      1.0  0.75453  0.51753  0.39642  1.0000
  H   H404      1.0  0.74657  0.95878  0.01870  1.0000
  C   C239      1.0  0.68868  0.96077  0.01785  1.0000
  C   C240      1.0  0.68632  0.87619  0.00417  1.0000
  H   H405      1.0  0.75356  0.75848  0.74031  1.0000
  S   S70       1.0  0.90695  0.86857  0.96220  1.0000
  H   H406      1.0  0.73350  0.88346  0.93382  1.0000
  H   H407      1.0  0.96517  0.82403  0.95295  1.0000
  H   H408      1.0  0.68984  0.72866  0.81513  1.0000
  C   C241      1.0  0.99837  0.83059  0.95508  1.0000
  S   S71       1.0  0.79658  0.85348  0.97691  1.0000
  H   H409      1.0  0.75016  0.69487  0.69663  1.0000
  H   H410      1.0  0.71520  0.81426  0.90386  1.0000
  H   H411      1.0  0.74589  0.75925  0.82007  1.0000
  H   H412      1.0  0.79347  0.94409  0.90536  1.0000
  C   C242      1.0  0.77033  0.95061  0.92101  1.0000
  H   H413      1.0  0.99597  0.01228  0.99069  1.0000
  C   C243      1.0  0.71862  0.75101  0.79729  1.0000
  H   H414      1.0  0.71935  0.80140  0.71746  1.0000
  Fe  Fe36      1.0  0.74947  0.78491  0.99304  1.0000
  N   N17       1.0  0.68794  0.71347  0.72290  1.0000
  C   C244      1.0  0.72693  0.69087  0.67026  1.0000
  H   H415      1.0  0.68737  0.78426  0.66782  1.0000
  H   H416      1.0  0.73331  0.70759  0.76613  1.0000
  H   H417      1.0  0.98894  0.93941  0.94391  1.0000
  H   H418      1.0  0.75104  0.95482  0.89462  1.0000
  H   H419      1.0  0.71803  0.78109  0.79021  1.0000
  N   N18       1.0  0.70535  0.91259  0.97106  1.0000
  C   C245      1.0  0.99069  0.92637  0.97578  1.0000
  C   C246      1.0  0.72455  0.73208  0.75549  1.0000
  C   C247      1.0  0.95411  0.89233  0.99377  1.0000
  H   H420      1.0  0.72880  0.75106  0.66969  1.0000
  H   H421      1.0  0.68110  0.82879  0.83878  1.0000
  C   C248      1.0  0.68631  0.78876  0.88996  1.0000
  H   H422      1.0  0.73665  0.98213  0.97097  1.0000
  H   H423      1.0  0.78933  0.98100  0.93866  1.0000
  S   S72       1.0  0.68968  0.73645  0.95685  1.0000
  C   C249      1.0  0.74326  0.91295  0.95247  1.0000
  C   C250      1.0  0.70506  0.71724  0.67782  1.0000
  H   H424      1.0  0.99700  0.79930  0.95339  1.0000
  C   C251      1.0  0.68663  0.78320  0.70404  1.0000
  H   H425      1.0  0.76468  0.91300  0.97925  1.0000
  H   H426      1.0  0.84359  0.94642  0.99152  1.0000
  H   H427      1.0  0.74424  0.70181  0.63912  1.0000
  H   H428      1.0  0.70332  0.65643  0.66645  1.0000
  H   H429      1.0  0.70377  0.82882  0.98551  1.0000
  C   C252      1.0  0.72146  0.95438  0.99414  1.0000
  H   H430      1.0  0.00527  0.84750  0.88664  1.0000
  H   H431      1.0  0.68419  0.94002  0.91868  1.0000
  H   H432      1.0  0.01111  0.84517  0.98722  1.0000
