data_image0
_chemical_formula_structural       FeS2FeS2FeSFeS3NSH7NCHCFeSCH3CHSHSC2HSCH4CHCHCH2FeH6CH2FeHC3H2CH3C4SC6H4C6H4CH2C2HC2H2C2H2CHCH3C2H5CNH3FeH3CH2CHSNHS2H7C3HCH2C2HCNHCH11C2H7FeHFeS2FeS2FeSFeS3FeS2FeSFeSFeS3CHC6H4C6H4CH2C3H8NH2CH2NHCFeSH6CHCNCH2CH2CH4C3HCH3CNSHCH2CHC3H6CHC2H2FeSH2SCH3C2HCH6C2H8C2H2CHFeHCFeCHC2NFeCHCH2SH3CNHNCHC6HC2H3CH4CH4CHCHCSHNCH8C2HC2HCHC2SCSC2HC2HCH2C2HCHCH3SH2CHC2S2H3CHSHCHCH2CHCNCH3C2HC3H2CH2CHFeCH2CSFeH2C2SH5FeH3SH9CHCHC2H2CH6CHCH3CH3CH2CH3CH3CHSHSHC4H4CH2CHSHFeH2CHSH2CFeS2Fe2S2H2FeH3FeH4C3H2C3H4CH2FeHC2HCHSC3HFeH4C2H2CH3SC3H3NHCH2CHCHSH2CH2NH3FeH2C3H3SH3CHCH5CHCH3CFeHSC4H2NH2S2C2H2CH2CH2C2HCSCHC2H3SCH5C2H4SH2SC2H2CNC3HCH2CHCHCNH4SFeS2FeSFeSH2CHCH2CSH4CHC2HC4H2CHSH3CH2CH5CH3CHC2H3C3HCHSHFeH3CH2CH5CHNCNH2CH3CNHC2HCHCH3CHCH4CHC2HSH10C2H2SH2CH2C4H3CSHCHSHNHCHCH2NH4FeNSFeHS2FeS3CHC4H3CH2C2HCH3SH4CHC6SH4C3H2CFeH2CHCFeC3H6CHCH2CH4CNH3CHC2H4CH2NH3C2H2SHFe2HCHC2SH2C2SHFeH2CH2CHCHFeH2CH3SCSCH3CH4CHCH2CH2CH5CFeCHNH3CHCH2CHNC2H2C2HSH5FeHCHC2HC2HSH2FeS3HSH2C5H2CHCH6CHNH5CHSC2H4C2H3C3H3SHCH3C3H3CH3NH2CH2CSHC2H3NH4SHC2HCH2CH3CH4CH7CSCH4CH3CH2CHCHSCFeHC3FeSCH2CHC3SNHC2HNC2HSHCH4CH3CH9C2HS2H3C2HC3HCH2C2H9C3H5CH3CSH8FeHCH3CH2CFeCHC2HCFeSCH2CSC2HFeSHSCFeC2H2SHCH2C2H3C2HSH2FeCSC2H2FeH5CH2S2H4CH2CHC2SC2SH2S2HC2H3SCHFeSCFeHFeSCH2CHCH2FeSHCFeSHFeSFeSFeS3CHSCH2CFeSH2C6H4C6H5CH2CHCHCH8CFeSH2NHC6H4S2CHC2H2CH3NH2CHCH12CH3Fe2H2SH2CHCH2CH2SC3HCH2CNH5CNCH5C2SHSH3C5H2NH2CH2CH3SC2HC2HCHCH3CHFeH3CHCS2CH4CNH2CSHCSH2CHSH6CHC2HCHFeCFeS2CHC2HCS2C2FeHSC2SC6H6CHC2H3CHCH2CSH4FeCHSHCH3CH4SCNCHCHCHCHCHC2H7CSHFeH2SHFeH2CH5CNH2SH3CHSHC2HFeC2SHFeS2FeSFeSFeS3HFeS2FeS2FeSFeCS2HCH4CSC2NCH2C6H4C3HC2H7CHC7H14CHSH4CH4SCH2NH2CH3CHFeC3HFeH5CH6CH2CHCHC3HC2HNC2HCH5C2H4CSHCHSH3C2H4NCHCH6FeS2FeS2FeSFeS3HSHC3HCHSHCFeHSHNHS2CFeS2FeS2FeSFeS3C6H4C3HCHCH2CHC4SCH2CHC8H4C5H3C8H4C3HSH4CH7CH2C2HCFeCHC2HCH4C2H4CHSFeH4SNC8H16CH5FeHNCHC3SC2HFeCHCH3C2SHFe2C2H5SCHC2HNFeH13CNC2HC2H12C2S2C2H2CHCH5FeH4CH4CH2SH4CH3CH3CH2CNH4CHCH2NHC2H2CH2CH4CHCH4CNH3CH2CSHCHC2H5CNC2HSH3C2NH2CH2CH2CH2SCH3C3HCHC2H4CHSCH2C3HCHCH13FeHCH4CH2SH4CHCH3CHCSCHC3HCFeH5NC3H3SCHSHCHCHFeCH2C3H5CH4CSHFeSH3NHC3HCHCS3H2CHCHNFe2H3SCH3CH4C2S2C6H2CH4C3SHC3H2CFeH6CH2C2H2CFeH7CH10CHCHCH4C2HFeCH2NH3FeHC3HC2H2CH2SHC2HC2SCH6C4HCSHFeHSCH2CSC2H4CH3CHC2NH3SCFeSH2S2FeHCFeHC3HS2H3CFeHCS2HSH4CHCH2C2HNCHCH4C2H5CH5C3HSH4CH3CH3NCH2CFeC2HFeCH2SCS2HCHC2SCSCHFeCFeH2CSH4SHFeSCSC4HSH2C2HC2H3C4HSHFeH2FeCHNH6C2H11CHCH7CHCNSHCFeH5CSHC2S2H2CHSH2C2H2C5H5CHCHSHC2FeS2FeSFeSFeS3FeS2FeS2FeSFeS3HCHCH3SC4SHCH4C6H4CHC3SFeHC6H6FeC2H2CHCHC5H3CNC8H11NH2CH2CH2C5H2CH4CH7CH4NH3FeCFeH3C6H3CSCH2CH2NHC2HCH2C2HNH2CH2SH2C4H2SH5C2H2FeCHCS2CH5C4HSH2CH3NC2H5CH2NHSHCHCH3SH14CH2CSHFeH2CHSHCHC2H3C2HCH4CH5CHCH5C2H
_chemical_formula_sum              "Fe144 S288 N72 H1728 C1008"
_cell_length_a       63.1948
_cell_length_b       69.5162
_cell_length_c       46.785
_cell_angle_alpha    79.2766
_cell_angle_beta     79.501
_cell_angle_gamma    107.867

_space_group_name_H-M_alt    "P 1"
_space_group_IT_number       1

loop_
  _space_group_symop_operation_xyz
  'x, y, z'

loop_
  _atom_site_type_symbol
  _atom_site_label
  _atom_site_symmetry_multiplicity
  _atom_site_fract_x
  _atom_site_fract_y
  _atom_site_fract_z
  _atom_site_occupancy
  Fe  Fe1       1.0  0.36842  0.04920  0.23641  1.0000
  S   S1        1.0  0.40616  0.05957  0.21565  1.0000
  S   S2        1.0  0.34746  0.01568  0.24137  1.0000
  Fe  Fe2       1.0  0.37086  0.09190  0.24433  1.0000
  S   S3        1.0  0.40878  0.10582  0.22504  1.0000
  S   S4        1.0  0.35224  0.11259  0.25843  1.0000
  Fe  Fe3       1.0  0.40198  0.08813  0.19052  1.0000
  S   S5        1.0  0.42187  0.10339  0.14273  1.0000
  Fe  Fe4       1.0  0.40968  0.07625  0.25196  1.0000
  S   S6        1.0  0.43871  0.07765  0.27342  1.0000
  S   S7        1.0  0.36358  0.07644  0.20760  1.0000
  S   S8        1.0  0.37207  0.06351  0.27532  1.0000
  N   N1        1.0  0.46482  0.16076  0.17450  1.0000
  S   S9        1.0  0.39029  0.19613  0.09978  1.0000
  H   H1        1.0  0.31359  0.04482  0.31658  1.0000
  H   H2        1.0  0.29517  0.99000  0.27704  1.0000
  H   H3        1.0  0.43017  0.16122  0.17688  1.0000
  H   H4        1.0  0.46627  0.15553  0.05395  1.0000
  H   H5        1.0  0.36485  0.15246  0.13476  1.0000
  H   H6        1.0  0.46692  0.08694  0.13014  1.0000
  H   H7        1.0  0.46322  0.08765  0.07393  1.0000
  N   N2        1.0  0.34359  0.12854  0.11759  1.0000
  C   C1        1.0  0.33125  0.14030  0.06906  1.0000
  H   H8        1.0  0.34967  0.16057  0.09324  1.0000
  C   C2        1.0  0.43209  0.03649  0.11548  1.0000
  Fe  Fe5       1.0  0.36959  0.09653  0.01483  1.0000
  S   S10       1.0  0.35717  0.07382  0.06011  1.0000
  C   C3        1.0  0.33673  0.14449  0.09858  1.0000
  H   H9        1.0  0.32096  0.14599  0.11147  1.0000
  H   H10       1.0  0.39846  0.13970  0.07107  1.0000
  H   H11       1.0  0.31714  0.12525  0.17725  1.0000
  C   C4        1.0  0.38553  0.14422  0.08502  1.0000
  H   H12       1.0  0.43151  0.01775  0.26739  1.0000
  S   S11       1.0  0.38985  0.20661  0.18063  1.0000
  H   H13       1.0  0.47376  0.21687  0.06543  1.0000
  S   S12       1.0  0.43050  0.23396  0.04440  1.0000
  C   C5        1.0  0.36462  0.20910  0.02310  1.0000
  C   C6        1.0  0.46416  0.12990  0.00577  1.0000
  H   H14       1.0  0.31324  0.12962  0.07317  1.0000
  S   S13       1.0  0.44066  0.22053  0.11039  1.0000
  C   C7        1.0  0.37387  0.18056  0.00717  1.0000
  H   H15       1.0  0.45168  0.17760  0.12249  1.0000
  H   H16       1.0  0.30129  0.02838  0.35391  1.0000
  H   H17       1.0  0.35960  0.11704  0.08225  1.0000
  H   H18       1.0  0.47181  0.06479  0.04814  1.0000
  C   C8        1.0  0.37737  0.19575  0.02365  1.0000
  H   H19       1.0  0.32548  0.09949  0.15244  1.0000
  C   C9        1.0  0.32346  0.10819  0.13112  1.0000
  H   H20       1.0  0.40835  0.02588  0.16008  1.0000
  C   C10       1.0  0.46141  0.00008  0.24107  1.0000
  H   H21       1.0  0.38993  0.19709  0.03673  1.0000
  H   H22       1.0  0.38210  0.15639  0.06957  1.0000
  Fe  Fe6       1.0  0.39433  0.22682  0.06992  1.0000
  H   H23       1.0  0.39792  0.03851  0.13213  1.0000
  H   H24       1.0  0.30715  0.11122  0.13751  1.0000
  H   H25       1.0  0.43327  0.13736  0.17402  1.0000
  H   H26       1.0  0.41510  0.04049  0.06867  1.0000
  H   H27       1.0  0.33219  0.08450  0.11139  1.0000
  H   H28       1.0  0.33339  0.15538  0.05363  1.0000
  C   C11       1.0  0.44223  0.15454  0.16599  1.0000
  H   H29       1.0  0.36887  0.11346  0.11546  1.0000
  H   H30       1.0  0.32546  0.15212  0.15523  1.0000
  Fe  Fe7       1.0  0.42729  0.20462  0.07649  1.0000
  H   H31       1.0  0.31938  0.09915  0.08860  1.0000
  C   C12       1.0  0.45335  0.07515  0.09487  1.0000
  C   C13       1.0  0.35779  0.17888  0.98988  1.0000
  C   C14       1.0  0.35915  0.99882  0.26016  1.0000
  H   H32       1.0  0.38357  0.17020  0.00794  1.0000
  H   H33       1.0  0.42600  0.15569  0.12898  1.0000
  C   C15       1.0  0.34529  0.19238  0.98913  1.0000
  H   H34       1.0  0.44299  0.17642  0.22068  1.0000
  H   H35       1.0  0.43938  0.08829  0.04379  1.0000
  H   H36       1.0  0.44161  0.15610  0.25115  1.0000
  C   C16       1.0  0.46432  0.08594  0.24508  1.0000
  C   C17       1.0  0.36383  0.12469  0.10029  1.0000
  C   C18       1.0  0.44122  0.15981  0.22714  1.0000
  C   C19       1.0  0.46592  0.03613  0.21416  1.0000
  S   S14       1.0  0.36821  0.22795  0.04395  1.0000
  C   C20       1.0  0.40487  0.09414  0.11924  1.0000
  C   C21       1.0  0.38465  0.07667  0.13100  1.0000
  C   C22       1.0  0.37031  0.07004  0.11253  1.0000
  C   C23       1.0  0.37646  0.08064  0.08212  1.0000
  C   C24       1.0  0.39754  0.09711  0.06990  1.0000
  C   C25       1.0  0.41166  0.10403  0.08850  1.0000
  H   H37       1.0  0.38004  0.06816  0.15429  1.0000
  H   H38       1.0  0.35429  0.05692  0.12192  1.0000
  H   H39       1.0  0.40305  0.10459  0.04617  1.0000
  H   H40       1.0  0.42767  0.11719  0.07915  1.0000
  C   C26       1.0  0.36348  0.13850  0.23585  1.0000
  C   C27       1.0  0.35757  0.15382  0.24742  1.0000
  C   C28       1.0  0.36597  0.17460  0.23023  1.0000
  C   C29       1.0  0.37988  0.18022  0.20095  1.0000
  C   C30       1.0  0.38572  0.16494  0.18896  1.0000
  C   C31       1.0  0.37777  0.14407  0.20660  1.0000
  H   H41       1.0  0.34655  0.14961  0.26992  1.0000
  H   H42       1.0  0.36138  0.18632  0.23959  1.0000
  H   H43       1.0  0.39637  0.16922  0.16624  1.0000
  H   H44       1.0  0.38225  0.13225  0.19743  1.0000
  C   C32       1.0  0.37656  0.00653  0.27415  1.0000
  H   H45       1.0  0.47100  0.20521  0.18672  1.0000
  H   H46       1.0  0.38357  0.02309  0.27246  1.0000
  C   C33       1.0  0.46107  0.05031  0.06615  1.0000
  C   C34       1.0  0.46739  0.19965  0.16675  1.0000
  H   H47       1.0  0.44464  0.06924  0.02447  1.0000
  C   C35       1.0  0.47554  0.22184  0.98362  1.0000
  C   C36       1.0  0.31363  0.03071  0.33233  1.0000
  H   H48       1.0  0.44057  0.01619  0.19568  1.0000
  H   H49       1.0  0.35786  0.12649  0.15645  1.0000
  C   C37       1.0  0.42444  0.05594  0.07225  1.0000
  C   C38       1.0  0.35077  0.13697  0.14324  1.0000
  H   H50       1.0  0.34323  0.13429  0.05639  1.0000
  H   H51       1.0  0.45159  0.13622  0.01501  1.0000
  C   C39       1.0  0.47610  0.16966  0.05892  1.0000
  H   H52       1.0  0.44926  0.09342  0.20860  1.0000
  C   C40       1.0  0.43217  0.07218  0.04150  1.0000
  H   H53       1.0  0.46112  0.17852  0.00205  1.0000
  H   H54       1.0  0.41689  0.07141  0.03255  1.0000
  H   H55       1.0  0.45224  0.04117  0.26759  1.0000
  C   C41       1.0  0.44367  0.16050  0.13223  1.0000
  C   C42       1.0  0.33174  0.14006  0.16586  1.0000
  H   H56       1.0  0.42386  0.02180  0.10916  1.0000
  H   H57       1.0  0.42396  0.14988  0.22634  1.0000
  H   H58       1.0  0.33900  0.14581  0.18387  1.0000
  H   H59       1.0  0.43470  0.01278  0.31724  1.0000
  H   H60       1.0  0.41122  0.06000  0.08651  1.0000
  C   C43       1.0  0.31925  0.09226  0.11191  1.0000
  N   N3        1.0  0.44317  0.05455  0.08769  1.0000
  H   H61       1.0  0.46673  0.06145  0.13197  1.0000
  H   H62       1.0  0.39378  0.15089  0.10167  1.0000
  H   H63       1.0  0.43974  0.08079  0.10441  1.0000
  Fe  Fe8       1.0  0.40379  0.21504  0.13055  1.0000
  H   H64       1.0  0.45649  0.13763  0.21686  1.0000
  H   H65       1.0  0.33137  0.03454  0.33517  1.0000
  H   H66       1.0  0.46760  0.13133  0.16820  1.0000
  C   C44       1.0  0.41371  0.03909  0.13967  1.0000
  H   H67       1.0  0.30220  0.07973  0.12247  1.0000
  H   H68       1.0  0.34169  0.00036  0.32218  1.0000
  C   C45       1.0  0.45050  0.01435  0.30057  1.0000
  H   H69       1.0  0.47046  0.05262  0.21559  1.0000
  S   S15       1.0  0.39075  0.13050  0.00659  1.0000
  N   N4        1.0  0.46624  0.02242  0.24305  1.0000
  H   H70       1.0  0.29040  0.01152  0.31248  1.0000
  S   S16       1.0  0.34551  0.10223  0.98732  1.0000
  S   S17       1.0  0.43907  0.18148  0.05752  1.0000
  H   H71       1.0  0.45268  0.03875  0.05433  1.0000
  H   H72       1.0  0.44483  0.03306  0.12699  1.0000
  H   H73       1.0  0.44442  0.04328  0.18576  1.0000
  H   H74       1.0  0.43301  0.19388  0.99605  1.0000
  H   H75       1.0  0.44864  0.19395  0.16921  1.0000
  H   H76       1.0  0.46932  0.02545  0.09359  1.0000
  H   H77       1.0  0.42030  0.05371  0.14674  1.0000
  C   C46       1.0  0.44947  0.02440  0.26877  1.0000
  C   C47       1.0  0.46454  0.09221  0.21473  1.0000
  C   C48       1.0  0.46722  0.18563  0.06006  1.0000
  H   H78       1.0  0.33878  0.21765  0.00521  1.0000
  C   C49       1.0  0.34863  0.20737  0.00576  1.0000
  H   H79       1.0  0.30094  0.12193  0.99023  1.0000
  H   H80       1.0  0.47454  0.21337  0.14682  1.0000
  C   C50       1.0  0.46963  0.07633  0.11592  1.0000
  C   C51       1.0  0.46068  0.15482  0.20834  1.0000
  H   H81       1.0  0.45278  0.15211  0.11968  1.0000
  C   C52       1.0  0.32786  0.99321  0.34351  1.0000
  N   N5        1.0  0.30471  0.99102  0.33732  1.0000
  H   H82       1.0  0.42460  0.99147  0.23956  1.0000
  C   C53       1.0  0.38411  0.99264  0.29175  1.0000
  H   H83       1.0  0.40484  0.22545  0.23231  1.0000
  H   H84       1.0  0.45167  0.99859  0.30263  1.0000
  H   H85       1.0  0.38435  0.23676  0.22108  1.0000
  H   H86       1.0  0.33205  0.00396  0.35819  1.0000
  H   H87       1.0  0.42984  0.23692  0.18776  1.0000
  H   H88       1.0  0.46530  0.02453  0.30688  1.0000
  H   H89       1.0  0.31965  0.01612  0.29654  1.0000
  H   H90       1.0  0.29273  0.99566  0.38104  1.0000
  H   H91       1.0  0.47660  0.16245  0.21502  1.0000
  H   H92       1.0  0.39675  0.99850  0.30373  1.0000
  H   H93       1.0  0.47034  0.99221  0.25516  1.0000
  C   C54       1.0  0.30671  0.01196  0.31844  1.0000
  C   C55       1.0  0.44327  0.03026  0.20449  1.0000
  H   H94       1.0  0.46863  0.99969  0.21771  1.0000
  H   H95       1.0  0.42809  0.02805  0.22254  1.0000
  H   H96       1.0  0.47619  0.12542  0.04624  1.0000
  H   H97       1.0  0.38855  0.23470  0.25804  1.0000
  H   H98       1.0  0.26149  0.99746  0.35390  1.0000
  H   H99       1.0  0.46701  0.21506  0.00801  1.0000
  H   H100      1.0  0.27488  0.10966  0.98072  1.0000
  Fe  Fe9       1.0  0.23957  0.08350  0.82850  1.0000
  H   H101      1.0  0.03623  0.17410  0.54387  1.0000
  Fe  Fe10      1.0  0.20247  0.09329  0.67341  1.0000
  S   S18       1.0  0.19820  0.09832  0.62649  1.0000
  S   S19       1.0  0.18552  0.06208  0.70633  1.0000
  Fe  Fe11      1.0  0.22876  0.13892  0.66634  1.0000
  S   S20       1.0  0.22663  0.14823  0.61875  1.0000
  S   S21       1.0  0.24202  0.16240  0.69167  1.0000
  Fe  Fe12      1.0  0.19010  0.12607  0.63586  1.0000
  S   S22       1.0  0.16091  0.13402  0.62223  1.0000
  Fe  Fe13      1.0  0.23494  0.11962  0.61410  1.0000
  S   S23       1.0  0.26108  0.12006  0.57446  1.0000
  S   S24       1.0  0.19161  0.11934  0.68386  1.0000
  S   S25       1.0  0.24010  0.11206  0.66043  1.0000
  Fe  Fe14      1.0  0.07050  0.19117  0.64886  1.0000
  S   S26       1.0  0.08575  0.19986  0.68638  1.0000
  S   S27       1.0  0.08919  0.20512  0.59986  1.0000
  Fe  Fe15      1.0  0.02738  0.15755  0.69151  1.0000
  S   S28       1.0  0.03811  0.16319  0.73321  1.0000
  Fe  Fe16      1.0  0.05008  0.19731  0.70900  1.0000
  S   S29       1.0  0.04245  0.22304  0.72654  1.0000
  Fe  Fe17      1.0  0.07278  0.16525  0.70714  1.0000
  S   S30       1.0  0.09398  0.14844  0.72704  1.0000
  S   S31       1.0  0.03590  0.19134  0.66987  1.0000
  S   S32       1.0  0.06077  0.15670  0.66751  1.0000
  C   C56       1.0  0.17165  0.02292  0.66395  1.0000
  H   H102      1.0  0.46121  0.07737  0.87603  1.0000
  C   C57       1.0  0.14178  0.13722  0.65160  1.0000
  C   C58       1.0  0.13038  0.15117  0.64493  1.0000
  C   C59       1.0  0.11606  0.15496  0.66814  1.0000
  C   C60       1.0  0.11262  0.14441  0.69805  1.0000
  C   C61       1.0  0.12388  0.13035  0.70477  1.0000
  C   C62       1.0  0.13832  0.12663  0.68155  1.0000
  H   H103      1.0  0.13307  0.15948  0.62181  1.0000
  H   H104      1.0  0.10810  0.16640  0.66277  1.0000
  H   H105      1.0  0.12110  0.12209  0.72789  1.0000
  H   H106      1.0  0.14626  0.11519  0.68676  1.0000
  C   C63       1.0  0.24410  0.15017  0.72688  1.0000
  C   C64       1.0  0.24455  0.12982  0.73272  1.0000
  C   C65       1.0  0.24577  0.12008  0.76115  1.0000
  C   C66       1.0  0.24574  0.13038  0.78409  1.0000
  C   C67       1.0  0.24558  0.15082  0.77819  1.0000
  C   C68       1.0  0.24493  0.16076  0.74955  1.0000
  H   H107      1.0  0.24412  0.12160  0.71534  1.0000
  H   H108      1.0  0.24631  0.10447  0.76551  1.0000
  H   H109      1.0  0.24576  0.15890  0.79584  1.0000
  H   H110      1.0  0.24470  0.17652  0.74512  1.0000
  C   C69       1.0  0.04296  0.21924  0.54074  1.0000
  H   H111      1.0  0.17406  0.00938  0.65658  1.0000
  H   H112      1.0  0.11681  0.99790  0.86928  1.0000
  C   C70       1.0  0.07210  0.21176  0.57679  1.0000
  C   C71       1.0  0.05205  0.21500  0.58913  1.0000
  C   C72       1.0  0.03756  0.21882  0.57121  1.0000
  H   H113      1.0  0.30928  0.10036  0.89717  1.0000
  H   H114      1.0  0.06788  0.21733  0.50428  1.0000
  H   H115      1.0  0.04749  0.21435  0.61259  1.0000
  H   H116      1.0  0.02183  0.22074  0.58135  1.0000
  H   H117      1.0  0.43791  0.06727  0.96479  1.0000
  H   H118      1.0  0.29849  0.11006  0.54517  1.0000
  H   H119      1.0  0.99595  0.05000  0.71974  1.0000
  H   H120      1.0  0.44067  0.12278  0.85040  1.0000
  N   N6        1.0  0.05360  0.08258  0.70607  1.0000
  H   H121      1.0  0.08263  0.06758  0.75912  1.0000
  H   H122      1.0  0.06170  0.07019  0.66796  1.0000
  C   C73       1.0  0.04964  0.10213  0.71109  1.0000
  H   H123      1.0  0.22294  0.02680  0.77985  1.0000
  H   H124      1.0  0.05013  0.14637  0.56103  1.0000
  N   N7        1.0  0.01593  0.13854  0.58923  1.0000
  H   H125      1.0  0.43602  0.21297  0.96390  1.0000
  C   C74       1.0  0.02392  0.15648  0.60324  1.0000
  Fe  Fe18      1.0  0.99096  0.22087  0.54914  1.0000
  S   S33       1.0  0.02339  0.22143  0.51924  1.0000
  H   H126      1.0  0.02722  0.15098  0.62529  1.0000
  H   H127      1.0  0.02575  0.06046  0.74363  1.0000
  H   H128      1.0  0.32022  0.06941  0.96291  1.0000
  H   H129      1.0  0.25345  0.06539  0.73069  1.0000
  H   H130      1.0  0.98280  0.14886  0.75333  1.0000
  H   H131      1.0  0.06232  0.12091  0.58994  1.0000
  C   C75       1.0  0.04214  0.10279  0.74397  1.0000
  H   H132      1.0  0.32446  0.12857  0.94198  1.0000
  C   C76       1.0  0.27395  0.05843  0.58252  1.0000
  N   N8        1.0  0.29910  0.12333  0.91545  1.0000
  C   C77       1.0  0.29194  0.12237  0.97192  1.0000
  H   H133      1.0  0.08762  0.10190  0.63128  1.0000
  H   H134      1.0  0.00041  0.13121  0.55313  1.0000
  C   C78       1.0  0.00599  0.14448  0.56343  1.0000
  H   H135      1.0  0.29184  0.05017  0.71333  1.0000
  H   H136      1.0  0.31467  0.04703  0.65096  1.0000
  C   C79       1.0  0.06354  0.21689  0.52792  1.0000
  H   H137      1.0  0.01295  0.17902  0.62281  1.0000
  H   H138      1.0  0.13095  0.03287  0.79437  1.0000
  H   H139      1.0  0.22622  0.21666  0.65852  1.0000
  H   H140      1.0  0.00352  0.11701  0.63376  1.0000
  C   C80       1.0  0.17796  0.16343  0.71658  1.0000
  C   C81       1.0  0.07296  0.07968  0.71913  1.0000
  C   C82       1.0  0.27440  0.10901  0.92140  1.0000
  H   H141      1.0  0.05622  0.07229  0.76797  1.0000
  C   C83       1.0  0.22947  0.01793  0.76632  1.0000
  H   H142      1.0  0.03609  0.04917  0.71588  1.0000
  H   H143      1.0  0.16087  0.21959  0.62993  1.0000
  H   H144      1.0  0.02773  0.08858  0.75788  1.0000
  C   C84       1.0  0.29018  0.07700  0.56309  1.0000
  N   N9        1.0  0.15325  0.03280  0.62059  1.0000
  S   S34       1.0  0.26817  0.07160  0.83382  1.0000
  H   H145      1.0  0.03035  0.15784  0.51865  1.0000
  C   C85       1.0  0.30045  0.14570  0.90523  1.0000
  H   H146      1.0  0.03764  0.10633  0.69856  1.0000
  H   H147      1.0  0.40762  0.09831  0.91291  1.0000
  C   C86       1.0  0.03213  0.06336  0.71897  1.0000
  H   H148      1.0  0.05729  0.04986  0.75422  1.0000
  C   C87       1.0  0.33125  0.07173  0.91568  1.0000
  C   C88       1.0  0.11751  0.02938  0.73144  1.0000
  C   C89       1.0  0.12569  0.99694  0.84780  1.0000
  H   H149      1.0  0.27158  0.10004  0.87902  1.0000
  H   H150      1.0  0.45522  0.09506  0.84878  1.0000
  H   H151      1.0  0.14570  0.09666  0.84970  1.0000
  H   H152      1.0  0.23014  0.22206  0.70746  1.0000
  H   H153      1.0  0.01436  0.06077  0.68263  1.0000
  H   H154      1.0  0.98651  0.15502  0.80483  1.0000
  C   C90       1.0  0.98610  0.10242  0.73173  1.0000
  H   H155      1.0  0.14333  0.04854  0.58318  1.0000
  C   C91       1.0  0.15213  0.05215  0.60094  1.0000
  C   C92       1.0  0.16289  0.02116  0.60055  1.0000
  H   H156      1.0  0.08228  0.07169  0.70595  1.0000
  H   H157      1.0  0.15736  0.00348  0.56734  1.0000
  Fe  Fe19      1.0  0.24364  0.05035  0.87693  1.0000
  S   S35       1.0  0.45109  0.13664  0.95210  1.0000
  H   H158      1.0  0.26823  0.09183  0.73018  1.0000
  H   H159      1.0  0.43629  0.11293  0.90932  1.0000
  S   S36       1.0  0.16403  0.02294  0.85846  1.0000
  C   C93       1.0  0.43031  0.18246  0.95664  1.0000
  H   H160      1.0  0.16982  0.06302  0.58821  1.0000
  H   H161      1.0  0.17941  0.03192  0.58434  1.0000
  H   H162      1.0  0.28220  0.07336  0.73619  1.0000
  C   C94       1.0  0.24004  0.05624  0.67679  1.0000
  C   C95       1.0  0.27057  0.07796  0.72350  1.0000
  H   H163      1.0  0.30585  0.10256  0.95028  1.0000
  C   C96       1.0  0.29128  0.05858  0.94430  1.0000
  H   H164      1.0  0.33664  0.15866  0.91028  1.0000
  H   H165      1.0  0.26129  0.03784  0.66865  1.0000
  H   H166      1.0  0.01249  0.17278  0.52837  1.0000
  H   H167      1.0  0.26675  0.12434  0.88043  1.0000
  H   H168      1.0  0.40946  0.11264  0.86131  1.0000
  H   H169      1.0  0.00696  0.13521  0.79622  1.0000
  C   C97       1.0  0.28397  0.05527  0.91848  1.0000
  C   C98       1.0  0.00712  0.16818  0.60887  1.0000
  H   H170      1.0  0.22013  0.99204  0.82241  1.0000
  H   H171      1.0  0.03152  0.12082  0.56431  1.0000
  H   H172      1.0  0.16331  0.15439  0.73654  1.0000
  H   H173      1.0  0.09375  0.21085  0.53616  1.0000
  H   H174      1.0  0.10063  0.99728  0.63316  1.0000
  H   H175      1.0  0.11730  0.07060  0.67945  1.0000
  H   H176      1.0  0.16311  0.08864  0.87195  1.0000
  H   H177      1.0  0.34660  0.12485  0.90376  1.0000
  C   C99       1.0  0.12105  0.04275  0.80099  1.0000
  C   C100      1.0  0.98832  0.09989  0.60424  1.0000
  H   H178      1.0  0.20340  0.17215  0.65712  1.0000
  H   H179      1.0  0.12265  0.05546  0.63115  1.0000
  C   C101      1.0  0.02206  0.21332  0.76135  1.0000
  H   H180      1.0  0.19034  0.09662  0.74928  1.0000
  Fe  Fe20      1.0  0.07180  0.99633  0.72509  1.0000
  H   H181      1.0  0.24511  0.07110  0.65949  1.0000
  C   C102      1.0  0.30041  0.05950  0.89147  1.0000
  Fe  Fe21      1.0  0.36894  0.13572  0.97529  1.0000
  C   C103      1.0  0.26026  0.04927  0.68220  1.0000
  H   H182      1.0  0.42502  0.13379  0.87442  1.0000
  C   C104      1.0  0.26527  0.09608  0.57690  1.0000
  C   C105      1.0  0.28577  0.09572  0.56006  1.0000
  N   N10       1.0  0.46731  0.20605  0.96619  1.0000
  Fe  Fe22      1.0  0.25052  0.04669  0.81292  1.0000
  C   C106      1.0  0.21253  0.21604  0.70425  1.0000
  H   H183      1.0  0.22112  0.19292  0.68461  1.0000
  C   C107      1.0  0.31483  0.06685  0.94289  1.0000
  H   H184      1.0  0.05385  0.13592  0.61380  1.0000
  H   H185      1.0  0.43927  0.18558  0.93272  1.0000
  S   S37       1.0  0.28135  0.03587  0.58819  1.0000
  H   H186      1.0  0.98505  0.21636  0.89141  1.0000
  H   H187      1.0  0.15927  0.19341  0.63649  1.0000
  H   H188      1.0  0.40967  0.06499  0.93596  1.0000
  C   C108      1.0  0.99753  0.12059  0.61315  1.0000
  N   N11       1.0  0.19080  0.19555  0.67113  1.0000
  H   H189      1.0  0.03530  0.10936  0.61740  1.0000
  N   N12       1.0  0.28325  0.06654  0.67561  1.0000
  C   C109      1.0  0.25312  0.05864  0.59881  1.0000
  H   H190      1.0  0.15609  0.01724  0.68306  1.0000
  C   C110      1.0  0.29219  0.07502  0.64197  1.0000
  C   C111      1.0  0.22318  0.99390  0.73468  1.0000
  C   C112      1.0  0.30530  0.04081  0.67509  1.0000
  C   C113      1.0  0.10901  0.04151  0.71252  1.0000
  C   C114      1.0  0.31671  0.09146  0.63039  1.0000
  C   C115      1.0  0.14102  0.03591  0.73002  1.0000
  H   H191      1.0  0.31570  0.07021  0.68740  1.0000
  C   C116      1.0  0.06656  0.06668  0.75207  1.0000
  C   C117      1.0  0.28124  0.08412  0.68927  1.0000
  H   H192      1.0  0.29845  0.09624  0.68543  1.0000
  H   H193      1.0  0.29180  0.06215  0.63090  1.0000
  H   H194      1.0  0.28091  0.08255  0.63256  1.0000
  C   C118      1.0  0.14027  0.06494  0.61720  1.0000
  H   H195      1.0  0.99989  0.22887  0.74653  1.0000
  H   H196      1.0  0.17876  0.01562  0.79933  1.0000
  H   H197      1.0  0.28980  0.02696  0.67791  1.0000
  H   H198      1.0  0.44111  0.09338  0.94812  1.0000
  C   C119      1.0  0.42795  0.07044  0.92266  1.0000
  H   H199      1.0  0.16684  0.05175  0.64966  1.0000
  H   H200      1.0  0.23297  0.07771  0.60918  1.0000
  H   H201      1.0  0.31785  0.10605  0.63738  1.0000
  H   H202      1.0  0.32121  0.09583  0.60537  1.0000
  C   C120      1.0  0.46676  0.12794  0.97611  1.0000
  H   H203      1.0  0.30635  0.07696  0.55058  1.0000
  C   C121      1.0  0.12367  0.06111  0.69423  1.0000
  H   H204      1.0  0.16761  0.19048  0.71450  1.0000
  C   C122      1.0  0.24591  0.99464  0.73107  1.0000
  S   S38       1.0  0.27013  0.03401  0.78081  1.0000
  H   H205      1.0  0.27790  0.00739  0.74286  1.0000
  N   N13       1.0  0.43123  0.08494  0.89257  1.0000
  C   C123      1.0  0.10877  0.01442  0.63010  1.0000
  H   H206      1.0  0.19351  0.16905  0.72488  1.0000
  H   H207      1.0  0.04080  0.16826  0.58961  1.0000
  H   H208      1.0  0.99567  0.11512  0.83168  1.0000
  H   H209      1.0  0.03555  0.11581  0.74440  1.0000
  H   H210      1.0  0.31676  0.03518  0.68709  1.0000
  H   H211      1.0  0.24069  0.04450  0.61417  1.0000
  H   H212      1.0  0.04752  0.08859  0.66157  1.0000
  H   H213      1.0  0.15840  0.08267  0.67838  1.0000
  C   C124      1.0  0.42507  0.10359  0.89754  1.0000
  C   C125      1.0  0.15589  0.05495  0.71047  1.0000
  H   H214      1.0  0.09840  0.10082  0.66386  1.0000
  C   C126      1.0  0.08376  0.10261  0.65512  1.0000
  C   C127      1.0  0.41418  0.07327  0.87731  1.0000
  H   H215      1.0  0.46002  0.23581  0.92465  1.0000
  C   C128      1.0  0.14708  0.06788  0.69339  1.0000
  H   H216      1.0  0.00198  0.09360  0.59720  1.0000
  C   C129      1.0  0.14935  0.00815  0.83641  1.0000
  C   C130      1.0  0.18312  0.21299  0.65811  1.0000
  S   S39       1.0  0.24510  0.11776  0.82054  1.0000
  C   C131      1.0  0.17236  0.18142  0.69875  1.0000
  S   S40       1.0  0.22427  0.06087  0.80285  1.0000
  C   C132      1.0  0.26431  0.10850  0.89373  1.0000
  C   C133      1.0  0.21334  0.20495  0.67860  1.0000
  H   H217      1.0  0.14532  0.20173  0.66646  1.0000
  C   C134      1.0  0.45526  0.09095  0.87296  1.0000
  C   C135      1.0  0.04729  0.12422  0.60136  1.0000
  H   H218      1.0  0.34546  0.14475  0.87297  1.0000
  C   C136      1.0  0.19449  0.18285  0.64907  1.0000
  H   H219      1.0  0.13755  0.06944  0.87013  1.0000
  H   H220      1.0  0.08611  0.09505  0.71731  1.0000
  C   C137      1.0  0.47416  0.10980  0.87714  1.0000
  C   C138      1.0  0.20869  0.19548  0.61686  1.0000
  H   H221      1.0  0.20005  0.20518  0.60561  1.0000
  C   C139      1.0  0.24883  0.07749  0.59614  1.0000
  H   H222      1.0  0.14788  0.08210  0.74823  1.0000
  C   C140      1.0  0.33962  0.12781  0.88397  1.0000
  H   H223      1.0  0.05689  0.10578  0.75437  1.0000
  H   H224      1.0  0.16744  0.00873  0.61361  1.0000
  H   H225      1.0  0.10378  0.03171  0.81450  1.0000
  S   S41       1.0  0.08096  0.03097  0.70906  1.0000
  H   H226      1.0  0.14971  0.10809  0.74501  1.0000
  H   H227      1.0  0.13797  0.09695  0.80515  1.0000
  C   C141      1.0  0.03620  0.13260  0.57740  1.0000
  H   H228      1.0  0.22983  0.05703  0.69821  1.0000
  C   C142      1.0  0.02550  0.20045  0.78547  1.0000
  C   C143      1.0  0.47083  0.22839  0.91293  1.0000
  S   S42       1.0  0.21589  0.06372  0.87298  1.0000
  S   S43       1.0  0.39233  0.13304  0.93531  1.0000
  H   H229      1.0  0.27229  0.09253  0.93198  1.0000
  H   H230      1.0  0.32979  0.08535  0.63719  1.0000
  H   H231      1.0  0.41581  0.08308  0.85476  1.0000
  C   C144      1.0  0.15209  0.08382  0.85666  1.0000
  H   H232      1.0  0.18225  0.09423  0.82043  1.0000
  S   S44       1.0  0.22802  0.02432  0.85664  1.0000
  H   H233      1.0  0.19773  0.00555  0.75418  1.0000
  C   C145      1.0  0.29933  0.05762  0.68883  1.0000
  H   H234      1.0  0.28493  0.14775  0.91797  1.0000
  C   C146      1.0  0.16667  0.07982  0.82967  1.0000
  H   H235      1.0  0.16661  0.10746  0.78392  1.0000
  H   H236      1.0  0.17296  0.06733  0.83915  1.0000
  C   C147      1.0  0.13051  0.01900  0.64231  1.0000
  H   H237      1.0  0.28976  0.13776  0.96714  1.0000
  C   C148      1.0  0.14744  0.01028  0.58206  1.0000
  N   N14       1.0  0.15483  0.07413  0.80545  1.0000
  C   C149      1.0  0.15083  0.09321  0.78971  1.0000
  H   H238      1.0  0.13459  0.04504  0.83911  1.0000
  H   H239      1.0  0.11923  0.06211  0.83147  1.0000
  H   H240      1.0  0.20408  0.07771  0.75286  1.0000
  C   C150      1.0  0.99579  0.11877  0.80754  1.0000
  C   C151      1.0  0.13234  0.05627  0.82058  1.0000
  H   H241      1.0  0.14772  0.02599  0.74357  1.0000
  C   C152      1.0  0.17052  0.06729  0.78456  1.0000
  C   C153      1.0  0.19324  0.08467  0.76583  1.0000
  C   C154      1.0  0.16059  0.00681  0.80856  1.0000
  H   H242      1.0  0.17474  0.05440  0.79742  1.0000
  H   H243      1.0  0.20328  0.09229  0.78016  1.0000
  C   C155      1.0  0.32135  0.16294  0.90896  1.0000
  H   H244      1.0  0.41225  0.18132  0.95766  1.0000
  H   H245      1.0  0.11171  0.02220  0.60619  1.0000
  C   C156      1.0  0.06060  0.08511  0.67255  1.0000
  H   H246      1.0  0.16226  0.06040  0.76817  1.0000
  Fe  Fe23      1.0  0.25317  0.00541  0.61320  1.0000
  C   C157      1.0  0.32400  0.06758  0.89013  1.0000
  H   H247      1.0  0.18818  0.04821  0.62330  1.0000
  H   H248      1.0  0.25515  0.04028  0.70606  1.0000
  C   C158      1.0  0.30638  0.11899  0.94425  1.0000
  S   S45       1.0  0.36081  0.08376  0.91267  1.0000
  Fe  Fe24      1.0  0.37034  0.09904  0.94943  1.0000
  H   H249      1.0  0.31633  0.16851  0.92904  1.0000
  H   H250      1.0  0.22802  0.04406  0.66925  1.0000
  C   C159      1.0  0.14227  0.09229  0.76094  1.0000
  C   C160      1.0  0.01153  0.06327  0.70556  1.0000
  S   S46       1.0  0.99576  0.13632  0.68374  1.0000
  H   H251      1.0  0.29498  0.05657  0.87160  1.0000
  H   H252      1.0  0.39621  0.06958  0.89043  1.0000
  H   H253      1.0  0.08312  0.11841  0.65476  1.0000
  H   H254      1.0  0.12323  0.08731  0.76623  1.0000
  H   H255      1.0  0.22631  0.20533  0.61644  1.0000
  Fe  Fe25      1.0  0.20265  0.03988  0.84791  1.0000
  H   H256      1.0  0.27129  0.09244  0.67815  1.0000
  H   H257      1.0  0.17791  0.17221  0.64733  1.0000
  H   H258      1.0  0.33659  0.07111  0.86906  1.0000
  S   S47       1.0  0.25427  0.04654  0.92059  1.0000
  H   H259      1.0  0.24550  0.09963  0.90148  1.0000
  H   H260      1.0  0.97890  0.10139  0.58662  1.0000
  H   H261      1.0  0.00392  0.10877  0.79721  1.0000
  H   H262      1.0  0.15050  0.07289  0.63116  1.0000
  H   H263      1.0  0.30878  0.12126  0.86943  1.0000
  H   H264      1.0  0.10607  0.01467  0.74675  1.0000
  H   H265      1.0  0.13147  0.00362  0.65251  1.0000
  H   H266      1.0  0.43374  0.05423  0.86061  1.0000
  H   H267      1.0  0.11856  0.05195  0.78080  1.0000
  C   C161      1.0  0.25209  0.01854  0.76313  1.0000
  H   H268      1.0  0.40956  0.03992  0.89328  1.0000
  C   C162      1.0  0.26038  0.00696  0.74536  1.0000
  H   H269      1.0  0.26271  0.11334  0.93776  1.0000
  C   C163      1.0  0.31329  0.11752  0.89120  1.0000
  C   C164      1.0  0.00954  0.19352  0.81363  1.0000
  H   H270      1.0  0.47078  0.11327  0.89924  1.0000
  H   H271      1.0  0.18004  0.15241  0.70298  1.0000
  C   C165      1.0  0.16082  0.20636  0.64746  1.0000
  H   H272      1.0  0.34743  0.12070  0.86747  1.0000
  H   H273      1.0  0.30007  0.14951  0.88116  1.0000
  H   H274      1.0  0.06582  0.11587  0.70138  1.0000
  H   H275      1.0  0.12700  0.02585  0.66164  1.0000
  H   H276      1.0  0.98987  0.14750  0.57124  1.0000
  H   H277      1.0  0.18648  0.02978  0.67302  1.0000
  C   C166      1.0  0.98960  0.19861  0.81723  1.0000
  H   H278      1.0  0.13881  0.07757  0.60010  1.0000
  C   C167      1.0  0.17050  0.04003  0.63844  1.0000
  H   H279      1.0  0.04078  0.19630  0.78256  1.0000
  H   H280      1.0  0.46783  0.17509  0.96559  1.0000
  H   H281      1.0  0.98228  0.12486  0.62081  1.0000
  C   C168      1.0  0.98590  0.21111  0.79296  1.0000
  H   H282      1.0  0.17965  0.22161  0.67514  1.0000
  H   H283      1.0  0.32698  0.17680  0.88942  1.0000
  H   H284      1.0  0.43149  0.05612  0.91979  1.0000
  C   C169      1.0  0.00243  0.21888  0.76522  1.0000
  H   H285      1.0  0.09575  0.01922  0.64345  1.0000
  H   H286      1.0  0.98947  0.15756  0.62112  1.0000
  C   C170      1.0  0.14838  0.99349  0.79305  1.0000
  H   H287      1.0  0.00751  0.07770  0.70505  1.0000
  H   H288      1.0  0.21043  0.18438  0.60308  1.0000
  H   H289      1.0  0.99901  0.11242  0.73993  1.0000
  C   C171      1.0  0.41603  0.05251  0.87200  1.0000
  H   H290      1.0  0.15619  0.17397  0.69252  1.0000
  H   H291      1.0  0.19697  0.22529  0.63950  1.0000
  H   H292      1.0  0.14205  0.02108  0.56701  1.0000
  C   C172      1.0  0.02231  0.16327  0.53721  1.0000
  H   H293      1.0  0.13227  0.99696  0.59674  1.0000
  S   S48       1.0  0.21658  0.00140  0.63325  1.0000
  H   H294      1.0  0.20142  0.20522  0.72605  1.0000
  S   S49       1.0  0.98201  0.22108  0.65657  1.0000
  H   H295      1.0  0.40482  0.04711  0.85718  1.0000
  C   C173      1.0  0.44317  0.07911  0.94286  1.0000
  C   C174      1.0  0.07813  0.21317  0.54594  1.0000
  C   C175      1.0  0.42522  0.11894  0.86900  1.0000
  C   C176      1.0  0.98227  0.11021  0.70411  1.0000
  H   H296      1.0  0.46123  0.21948  0.89907  1.0000
  H   H297      1.0  0.46152  0.08184  0.93307  1.0000
  H   H298      1.0  0.00680  0.17772  0.58731  1.0000
  H   H299      1.0  0.01241  0.18386  0.83242  1.0000
  C   C177      1.0  0.21511  0.00573  0.75198  1.0000
  H   H300      1.0  0.20709  0.22971  0.69886  1.0000
  H   H301      1.0  0.15729  0.99181  0.77215  1.0000
  C   C178      1.0  0.98398  0.22572  0.90817  1.0000
  H   H302      1.0  0.27866  0.05503  0.96538  1.0000
  S   S50       1.0  0.35262  0.16014  0.96898  1.0000
  H   H303      1.0  0.01919  0.22918  0.90848  1.0000
  Fe  Fe26      1.0  0.41230  0.12463  0.96770  1.0000
  H   H304      1.0  0.98260  0.17357  0.75839  1.0000
  H   H305      1.0  0.42968  0.16700  0.96905  1.0000
  C   C179      1.0  0.44153  0.19967  0.97145  1.0000
  H   H306      1.0  0.18370  0.99046  0.85063  1.0000
  S   S51       1.0  0.39252  0.09027  0.97813  1.0000
  H   H307      1.0  0.33287  0.19117  0.97580  1.0000
  H   H308      1.0  0.97772  0.21414  0.93049  1.0000
  C   C180      1.0  0.47222  0.18669  0.97893  1.0000
  Fe  Fe27      1.0  0.03116  0.40816  0.36233  1.0000
  S   S52       1.0  0.04168  0.38679  0.33692  1.0000
  S   S53       1.0  0.00704  0.39520  0.40852  1.0000
  Fe  Fe28      1.0  0.07751  0.40925  0.33122  1.0000
  Fe  Fe29      1.0  0.04069  0.40895  0.29596  1.0000
  S   S54       1.0  0.02632  0.40402  0.25563  1.0000
  S   S55       1.0  0.02698  0.42851  0.32214  1.0000
  H   H309      1.0  0.09110  0.48370  0.41553  1.0000
  H   H310      1.0  0.40782  0.27063  0.23123  1.0000
  Fe  Fe30      1.0  0.44056  0.24961  0.08010  1.0000
  H   H311      1.0  0.16560  0.36105  0.40454  1.0000
  H   H312      1.0  0.14073  0.37554  0.39349  1.0000
  H   H313      1.0  0.01772  0.33953  0.46259  1.0000
  Fe  Fe31      1.0  0.21174  0.47729  0.44031  1.0000
  H   H314      1.0  0.11154  0.35936  0.39928  1.0000
  H   H315      1.0  0.15368  0.46615  0.31837  1.0000
  H   H316      1.0  0.01295  0.45043  0.21943  1.0000
  H   H317      1.0  0.04362  0.34168  0.41850  1.0000
  C   C181      1.0  0.47235  0.35450  0.99355  1.0000
  C   C182      1.0  0.98315  0.31845  0.47004  1.0000
  C   C183      1.0  0.17298  0.43100  0.32003  1.0000
  H   H318      1.0  0.04461  0.43960  0.20091  1.0000
  H   H319      1.0  0.45350  0.32080  0.18966  1.0000
  C   C184      1.0  0.44697  0.31714  0.10649  1.0000
  C   C185      1.0  0.44866  0.30104  0.09309  1.0000
  C   C186      1.0  0.03138  0.32908  0.41212  1.0000
  H   H320      1.0  0.11015  0.47680  0.33660  1.0000
  H   H321      1.0  0.00819  0.47338  0.45406  1.0000
  H   H322      1.0  0.43052  0.31901  0.11285  1.0000
  H   H323      1.0  0.43355  0.29056  0.08906  1.0000
  C   C187      1.0  0.99266  0.38276  0.23198  1.0000
  H   H324      1.0  0.02944  0.47372  0.40060  1.0000
  H   H325      1.0  0.99856  0.39703  0.21416  1.0000
  Fe  Fe32      1.0  0.06406  0.44745  0.31574  1.0000
  H   H326      1.0  0.03295  0.29874  0.42947  1.0000
  C   C188      1.0  0.02170  0.30766  0.43578  1.0000
  C   C189      1.0  0.00736  0.32318  0.47551  1.0000
  H   H327      1.0  0.10336  0.44331  0.20323  1.0000
  C   C190      1.0  0.44549  0.37356  0.05867  1.0000
  H   H328      1.0  0.98312  0.31843  0.44640  1.0000
  S   S56       1.0  0.23844  0.44108  0.40638  1.0000
  C   C191      1.0  0.02273  0.38609  0.43159  1.0000
  C   C192      1.0  0.04376  0.38476  0.41838  1.0000
  C   C193      1.0  0.05778  0.37978  0.43615  1.0000
  H   H329      1.0  0.46668  0.39438  0.99564  1.0000
  Fe  Fe33      1.0  0.21447  0.43426  0.45170  1.0000
  H   H330      1.0  0.45595  0.37298  0.07511  1.0000
  H   H331      1.0  0.04946  0.38769  0.39436  1.0000
  H   H332      1.0  0.07421  0.37918  0.42553  1.0000
  H   H333      1.0  0.07453  0.43349  0.22617  1.0000
  C   C194      1.0  0.03481  0.46949  0.25525  1.0000
  C   C195      1.0  0.00339  0.38173  0.25571  1.0000
  H   H334      1.0  0.45226  0.25129  0.20182  1.0000
  H   H335      1.0  0.01820  0.42207  0.45679  1.0000
  C   C196      1.0  0.17722  0.48725  0.35915  1.0000
  H   H336      1.0  0.00406  0.36216  0.29676  1.0000
  H   H337      1.0  0.06867  0.46807  0.25214  1.0000
  H   H338      1.0  0.12028  0.41892  0.38657  1.0000
  S   S57       1.0  0.07795  0.42929  0.28739  1.0000
  C   C197      1.0  0.12160  0.35935  0.44142  1.0000
  C   C198      1.0  0.05067  0.47758  0.35704  1.0000
  C   C199      1.0  0.39758  0.23796  0.23399  1.0000
  H   H339      1.0  0.12178  0.34338  0.44146  1.0000
  H   H340      1.0  0.11327  0.47313  0.41903  1.0000
  H   H341      1.0  0.04082  0.32742  0.39077  1.0000
  N   N15       1.0  0.06371  0.46956  0.20736  1.0000
  H   H342      1.0  0.97853  0.45745  0.46414  1.0000
  C   C200      1.0  0.44675  0.28920  0.18473  1.0000
  H   H343      1.0  0.40303  0.29439  0.16131  1.0000
  H   H344      1.0  0.99824  0.45061  0.43941  1.0000
  C   C201      1.0  0.05081  0.37598  0.46732  1.0000
  H   H345      1.0  0.44885  0.39009  0.04727  1.0000
  C   C202      1.0  0.17638  0.43755  0.34591  1.0000
  H   H346      1.0  0.04219  0.46167  0.35637  1.0000
  S   S58       1.0  0.06692  0.42936  0.35870  1.0000
  H   H347      1.0  0.14866  0.41366  0.29896  1.0000
  H   H348      1.0  0.08002  0.43687  0.18601  1.0000
  C   C203      1.0  0.12336  0.37033  0.40877  1.0000
  H   H349      1.0  0.19030  0.36547  0.41894  1.0000
  H   H350      1.0  0.40341  0.25045  0.17101  1.0000
  N   N16       1.0  0.01959  0.30853  0.46811  1.0000
  H   H351      1.0  0.42724  0.36688  0.07192  1.0000
  H   H352      1.0  0.18762  0.43424  0.30140  1.0000
  H   H353      1.0  0.42318  0.27372  0.14703  1.0000
  Fe  Fe34      1.0  0.21466  0.45606  0.38958  1.0000
  H   H354      1.0  0.15980  0.43847  0.38978  1.0000
  H   H355      1.0  0.01956  0.45542  0.26793  1.0000
  C   C204      1.0  0.13177  0.41513  0.34237  1.0000
  C   C205      1.0  0.14749  0.39377  0.44604  1.0000
  C   C206      1.0  0.99622  0.45701  0.45935  1.0000
  H   H356      1.0  0.13604  0.42048  0.44218  1.0000
  H   H357      1.0  0.38006  0.26967  0.16927  1.0000
  H   H358      1.0  0.05254  0.33316  0.46065  1.0000
  S   S59       1.0  0.46386  0.35104  0.12779  1.0000
  H   H359      1.0  0.47260  0.27450  0.14897  1.0000
  H   H360      1.0  0.15424  0.39947  0.42125  1.0000
  H   H361      1.0  0.01844  0.26710  0.46261  1.0000
  C   C207      1.0  0.46991  0.29869  0.08465  1.0000
  H   H362      1.0  0.11756  0.38383  0.40807  1.0000
  C   C208      1.0  0.46506  0.33058  0.00608  1.0000
  H   H363      1.0  0.09819  0.47374  0.21285  1.0000
  H   H364      1.0  0.00455  0.29897  0.43284  1.0000
  H   H365      1.0  0.11303  0.39605  0.44972  1.0000
  H   H366      1.0  0.01725  0.33409  0.40638  1.0000
  H   H367      1.0  0.43678  0.30136  0.22346  1.0000
  C   C209      1.0  0.99578  0.36316  0.27850  1.0000
  H   H368      1.0  0.14368  0.46710  0.38703  1.0000
  C   C210      1.0  0.10385  0.47822  0.40307  1.0000
  H   H369      1.0  0.11821  0.45861  0.35970  1.0000
  H   H370      1.0  0.05836  0.42786  0.43444  1.0000
  H   H371      1.0  0.05428  0.30807  0.46337  1.0000
  C   C211      1.0  0.43938  0.30532  0.19868  1.0000
  Fe  Fe35      1.0  0.25645  0.47187  0.41526  1.0000
  H   H372      1.0  0.46216  0.28848  0.19267  1.0000
  S   S60       1.0  0.20470  0.45155  0.34664  1.0000
  C   C212      1.0  0.01517  0.38130  0.46298  1.0000
  C   C213      1.0  0.39578  0.27808  0.17570  1.0000
  C   C214      1.0  0.46657  0.33103  0.11127  1.0000
  C   C215      1.0  0.08579  0.44368  0.20415  1.0000
  H   H373      1.0  0.03372  0.44864  0.43764  1.0000
  H   H374      1.0  0.05388  0.42018  0.47422  1.0000
  N   N17       1.0  0.42910  0.26749  0.19130  1.0000
  H   H375      1.0  0.01455  0.44837  0.18204  1.0000
  H   H376      1.0  0.99869  0.38187  0.47335  1.0000
  S   S61       1.0  0.10511  0.39713  0.34233  1.0000
  S   S62       1.0  0.40440  0.24546  0.10288  1.0000
  C   C216      1.0  0.44928  0.36043  0.03630  1.0000
  C   C217      1.0  0.41316  0.26680  0.17082  1.0000
  H   H377      1.0  0.43685  0.36068  0.02222  1.0000
  H   H378      1.0  0.47016  0.44154  0.19782  1.0000
  C   C218      1.0  0.17479  0.36982  0.41877  1.0000
  H   H379      1.0  0.42872  0.25991  0.23841  1.0000
  H   H380      1.0  0.38960  0.27817  0.19928  1.0000
  C   C219      1.0  0.41637  0.25995  0.22417  1.0000
  H   H381      1.0  0.18125  0.38691  0.40844  1.0000
  H   H382      1.0  0.06884  0.44723  0.45365  1.0000
  C   C220      1.0  0.13496  0.42242  0.36790  1.0000
  C   C221      1.0  0.04775  0.45653  0.19221  1.0000
  H   H383      1.0  0.04252  0.47514  0.46200  1.0000
  C   C222      1.0  0.15087  0.41955  0.31847  1.0000
  S   S63       1.0  0.18940  0.44707  0.43435  1.0000
  C   C223      1.0  0.05458  0.46265  0.24112  1.0000
  H   H384      1.0  0.46550  0.32318  0.98698  1.0000
  C   C224      1.0  0.12944  0.40378  0.45493  1.0000
  C   C225      1.0  0.15729  0.43334  0.36986  1.0000
  H   H385      1.0  0.42400  0.30753  0.19283  1.0000
  H   H386      1.0  0.12750  0.45746  0.30796  1.0000
  H   H387      1.0  0.04860  0.44541  0.24905  1.0000
  S   S64       1.0  0.47236  0.27852  0.06819  1.0000
  C   C226      1.0  0.97770  0.34566  0.27728  1.0000
  H   H388      1.0  0.44348  0.34403  0.05025  1.0000
  H   H389      1.0  0.10385  0.35675  0.45428  1.0000
  H   H390      1.0  0.02362  0.47381  0.18800  1.0000
  H   H391      1.0  0.15475  0.34617  0.45870  1.0000
  H   H392      1.0  0.44930  0.25950  0.13557  1.0000
  C   C227      1.0  0.44194  0.25296  0.18517  1.0000
  C   C228      1.0  0.12536  0.47400  0.34269  1.0000
  H   H393      1.0  0.46678  0.24738  0.15195  1.0000
  H   H394      1.0  0.18491  0.47983  0.37556  1.0000
  H   H395      1.0  0.09382  0.46469  0.39587  1.0000
  H   H396      1.0  0.04002  0.47832  0.27186  1.0000
  S   S65       1.0  0.23442  0.46368  0.46216  1.0000
  H   H397      1.0  0.47702  0.32632  0.01853  1.0000
  H   H398      1.0  0.44723  0.32342  0.02054  1.0000
  S   S66       1.0  0.07843  0.48256  0.30214  1.0000
  C   C229      1.0  0.02351  0.45776  0.19595  1.0000
  C   C230      1.0  0.03129  0.43653  0.45836  1.0000
  H   H399      1.0  0.45318  0.29631  0.16008  1.0000
  H   H400      1.0  0.02896  0.47922  0.23937  1.0000
  C   C231      1.0  0.08659  0.46651  0.19945  1.0000
  N   N18       1.0  0.47346  0.36707  0.01666  1.0000
  C   C232      1.0  0.13901  0.47066  0.31441  1.0000
  C   C233      1.0  0.15224  0.48395  0.37495  1.0000
  C   C234      1.0  0.05440  0.43281  0.45545  1.0000
  H   H401      1.0  0.17856  0.48026  0.33997  1.0000
  C   C235      1.0  0.15998  0.36348  0.45136  1.0000
  H   H402      1.0  0.16235  0.40087  0.45505  1.0000
  H   H403      1.0  0.05584  0.46058  0.16760  1.0000
  C   C236      1.0  0.04341  0.31642  0.47293  1.0000
  H   H404      1.0  0.09583  0.47453  0.17542  1.0000
  C   C237      1.0  0.45851  0.25925  0.15356  1.0000
  H   H405      1.0  0.14480  0.48446  0.29484  1.0000
  C   C238      1.0  0.04353  0.48433  0.38226  1.0000
  N   N19       1.0  0.13934  0.37022  0.45648  1.0000
  H   H406      1.0  0.28393  0.47785  0.46746  1.0000
  H   H407      1.0  0.17167  0.36975  0.46531  1.0000
  H   H408      1.0  0.46024  0.35739  0.98013  1.0000
  H   H409      1.0  0.47763  0.25224  0.99058  1.0000
  S   S67       1.0  0.03111  0.37868  0.56083  1.0000
  Fe  Fe36      1.0  0.08789  0.38101  0.58246  1.0000
  S   S68       1.0  0.05800  0.38262  0.61464  1.0000
  S   S69       1.0  0.12006  0.38090  0.59585  1.0000
  Fe  Fe37      1.0  0.03633  0.35687  0.59851  1.0000
  S   S70       1.0  0.00876  0.32737  0.62890  1.0000
  Fe  Fe38      1.0  0.05550  0.40424  0.57429  1.0000
  S   S71       1.0  0.04735  0.43235  0.58203  1.0000
  H   H410      1.0  0.12254  0.42732  0.57341  1.0000
  H   H411      1.0  0.14955  0.46360  0.48576  1.0000
  C   C239      1.0  0.14341  0.38737  0.56469  1.0000
  H   H412      1.0  0.15428  0.46415  0.60314  1.0000
  C   C240      1.0  0.02933  0.37637  0.48089  1.0000
  H   H413      1.0  0.15750  0.36586  0.58633  1.0000
  H   H414      1.0  0.00551  0.25521  0.50152  1.0000
  C   C241      1.0  0.05531  0.25812  0.62168  1.0000
  S   S72       1.0  0.06666  0.35305  0.57035  1.0000
  H   H415      1.0  0.04904  0.26084  0.68002  1.0000
  H   H416      1.0  0.10186  0.29891  0.60607  1.0000
  H   H417      1.0  0.09375  0.44708  0.60823  1.0000
  H   H418      1.0  0.02306  0.28945  0.63024  1.0000
  C   C242      1.0  0.03685  0.28824  0.58622  1.0000
  H   H419      1.0  0.11036  0.33036  0.49445  1.0000
  C   C243      1.0  0.09185  0.48414  0.51799  1.0000
  C   C244      1.0  0.13976  0.46426  0.50762  1.0000
  H   H420      1.0  0.98834  0.28956  0.73046  1.0000
  C   C245      1.0  0.06598  0.45789  0.56298  1.0000
  C   C246      1.0  0.03268  0.47514  0.50834  1.0000
  C   C247      1.0  0.16224  0.43843  0.59014  1.0000
  C   C248      1.0  0.10672  0.43928  0.60798  1.0000
  H   H421      1.0  0.03388  0.27395  0.49050  1.0000
  H   H422      1.0  0.17587  0.43994  0.60247  1.0000
  C   C249      1.0  0.16554  0.40819  0.51428  1.0000
  H   H423      1.0  0.04951  0.30435  0.58048  1.0000
  S   S73       1.0  0.08702  0.40445  0.54314  1.0000
  H   H424      1.0  0.05677  0.46972  0.60096  1.0000
  H   H425      1.0  0.16791  0.43327  0.56997  1.0000
  H   H426      1.0  0.11788  0.44523  0.62238  1.0000
  C   C250      1.0  0.06694  0.29380  0.63191  1.0000
  H   H427      1.0  0.06013  0.30652  0.63486  1.0000
  H   H428      1.0  0.02348  0.37265  0.50505  1.0000
  C   C251      1.0  0.11998  0.44220  0.57534  1.0000
  H   H429      1.0  0.09769  0.42231  0.61889  1.0000
  H   H430      1.0  0.03425  0.29202  0.68079  1.0000
  H   H431      1.0  0.03826  0.29862  0.51974  1.0000
  H   H432      1.0  0.11099  0.33752  0.52918  1.0000
  H   H433      1.0  0.15543  0.44550  0.53140  1.0000
  C   C252      1.0  0.15958  0.37753  0.56615  1.0000
  H   H434      1.0  0.13374  0.40996  0.53715  1.0000
  H   H435      1.0  0.08183  0.29714  0.58277  1.0000
  H   H436      1.0  0.17069  0.47243  0.52303  1.0000
  C   C253      1.0  0.12129  0.34045  0.50582  1.0000
  H   H437      1.0  0.01897  0.41110  0.50872  1.0000
  C   C254      1.0  0.08641  0.30243  0.60238  1.0000
  C   C255      1.0  0.17818  0.38239  0.54125  1.0000
  H   H438      1.0  0.04013  0.24396  0.62394  1.0000
  H   H439      1.0  0.19034  0.37435  0.54217  1.0000
  H   H440      1.0  0.99023  0.32067  0.70643  1.0000
  C   C256      1.0  0.18127  0.39781  0.51537  1.0000
  C   C257      1.0  0.03942  0.46426  0.48426  1.0000
  C   C258      1.0  0.99191  0.31370  0.60804  1.0000
  H   H441      1.0  0.11316  0.36808  0.49540  1.0000
  C   C259      1.0  0.00597  0.28692  0.48826  1.0000
  H   H442      1.0  0.14094  0.37257  0.50165  1.0000
  S   S74       1.0  0.20392  0.40277  0.48400  1.0000
  H   H443      1.0  0.06324  0.26394  0.59718  1.0000
  Fe  Fe39      1.0  0.06301  0.37650  0.53381  1.0000
  H   H444      1.0  0.02008  0.26814  0.70971  1.0000
  H   H445      1.0  0.07839  0.45091  0.52150  1.0000
  H   H446      1.0  0.06367  0.23925  0.65826  1.0000
  C   C260      1.0  0.14621  0.40245  0.53855  1.0000
  H   H447      1.0  0.07555  0.29163  0.65043  1.0000
  H   H448      1.0  0.12255  0.45201  0.51293  1.0000
  C   C261      1.0  0.07251  0.25064  0.63602  1.0000
  H   H449      1.0  0.14641  0.42602  0.60530  1.0000
  H   H450      1.0  0.10764  0.44345  0.56160  1.0000
  H   H451      1.0  0.08033  0.24237  0.62151  1.0000
  H   H452      1.0  0.09201  0.31980  0.59588  1.0000
  H   H453      1.0  0.98633  0.41414  0.54081  1.0000
  C   C262      1.0  0.15896  0.45971  0.58186  1.0000
  H   H454      1.0  0.02337  0.24744  0.67107  1.0000
  N   N20       1.0  0.02284  0.44284  0.48626  1.0000
  C   C263      1.0  0.02230  0.42676  0.51345  1.0000
  N   N21       1.0  0.04748  0.27379  0.63478  1.0000
  H   H455      1.0  0.01650  0.47809  0.50762  1.0000
  H   H456      1.0  0.04320  0.27848  0.57315  1.0000
  C   C264      1.0  0.00872  0.23938  0.90635  1.0000
  H   H457      1.0  0.98703  0.42668  0.48933  1.0000
  H   H458      1.0  0.03534  0.32399  0.51676  1.0000
  H   H459      1.0  0.00939  0.24691  0.92519  1.0000
  C   C265      1.0  0.15299  0.46060  0.53156  1.0000
  N   N22       1.0  0.14212  0.46070  0.56304  1.0000
  H   H460      1.0  0.98297  0.25708  0.77248  1.0000
  C   C266      1.0  0.07886  0.46305  0.53310  1.0000
  C   C267      1.0  0.00382  0.42246  0.54285  1.0000
  H   H461      1.0  0.99173  0.44761  0.50685  1.0000
  C   C268      1.0  0.02945  0.27831  0.62038  1.0000
  H   H462      1.0  0.13636  0.33576  0.50778  1.0000
  C   C269      1.0  0.06678  0.47363  0.57793  1.0000
  H   H463      1.0  0.03930  0.43081  0.51889  1.0000
  H   H464      1.0  0.03173  0.46643  0.53114  1.0000
  H   H465      1.0  0.05658  0.46365  0.48552  1.0000
  C   C270      1.0  0.98113  0.29196  0.61826  1.0000
  H   H466      1.0  0.00691  0.27368  0.67998  1.0000
  C   C271      1.0  0.12881  0.36392  0.49003  1.0000
  H   H467      1.0  0.98875  0.28076  0.48388  1.0000
  H   H468      1.0  0.00523  0.32330  0.49954  1.0000
  H   H469      1.0  0.00693  0.41191  0.56127  1.0000
  H   H470      1.0  0.08670  0.26371  0.63860  1.0000
  C   C272      1.0  0.98988  0.32418  0.58066  1.0000
  H   H471      1.0  0.00406  0.43672  0.55017  1.0000
  C   C273      1.0  0.04466  0.31500  0.50592  1.0000
  C   C274      1.0  0.03616  0.26338  0.66782  1.0000
  H   H472      1.0  0.98860  0.26005  0.82587  1.0000
  S   S75       1.0  0.06912  0.37022  0.48854  1.0000
  H   H473      1.0  0.06292  0.32200  0.50626  1.0000
  H   H474      1.0  0.02160  0.28979  0.57878  1.0000
  H   H475      1.0  0.99617  0.27225  0.92042  1.0000
  H   H476      1.0  0.13827  0.47996  0.50395  1.0000
  H   H477      1.0  0.01423  0.26373  0.62494  1.0000
  H   H478      1.0  0.99730  0.34093  0.57309  1.0000
  H   H479      1.0  0.98235  0.28366  0.63945  1.0000
  H   H480      1.0  0.99203  0.26630  0.87361  1.0000
  H   H481      1.0  0.00233  0.28724  0.51231  1.0000
  H   H482      1.0  0.16782  0.42013  0.49443  1.0000
  C   C275      1.0  0.02371  0.27526  0.68523  1.0000
  C   C276      1.0  0.01694  0.27016  0.48517  1.0000
  H   H483      1.0  0.17634  0.47147  0.56999  1.0000
  H   H484      1.0  0.01706  0.25121  0.88446  1.0000
  S   S76       1.0  0.99339  0.24647  0.57228  1.0000
  H   H485      1.0  0.12618  0.40349  0.47917  1.0000
  H   H486      1.0  0.12286  0.48062  0.55161  1.0000
  C   C277      1.0  0.13662  0.48028  0.56319  1.0000
  H   H487      1.0  0.99428  0.23852  0.84586  1.0000
  H   H488      1.0  0.12930  0.48053  0.58659  1.0000
  C   C278      1.0  0.99888  0.44286  0.48697  1.0000
  C   C279      1.0  0.47211  0.24291  0.97461  1.0000
  C   C280      1.0  0.97792  0.31297  0.56301  1.0000
  C   C281      1.0  0.98131  0.24622  0.84562  1.0000
  H   H489      1.0  0.97938  0.25330  0.73617  1.0000
  H   H490      1.0  0.45388  0.24115  0.97620  1.0000
  H   H491      1.0  0.32521  0.68318  0.47437  1.0000
  C   C282      1.0  0.12005  0.49632  0.37596  1.0000
  S   S77       1.0  0.13087  0.56949  0.44375  1.0000
  H   H492      1.0  0.44595  0.58531  0.37381  1.0000
  C   C283      1.0  0.28758  0.55405  0.40258  1.0000
  H   H493      1.0  0.45742  0.58558  0.41982  1.0000
  S   S78       1.0  0.36227  0.59249  0.44109  1.0000
  H   H494      1.0  0.45918  0.64946  0.45548  1.0000
  N   N23       1.0  0.27061  0.54780  0.43290  1.0000
  H   H495      1.0  0.41607  0.61371  0.30066  1.0000
  C   C284      1.0  0.37087  0.65637  0.42541  1.0000
  H   H496      1.0  0.10355  0.65696  0.40211  1.0000
  C   C285      1.0  0.15338  0.70873  0.41300  1.0000
  H   H497      1.0  0.44144  0.55975  0.39489  1.0000
  H   H498      1.0  0.13111  0.53009  0.32577  1.0000
  N   N24       1.0  0.47550  0.57556  0.36434  1.0000
  H   H499      1.0  0.12731  0.51038  0.30464  1.0000
  H   H500      1.0  0.18883  0.71441  0.36313  1.0000
  H   H501      1.0  0.28733  0.52729  0.45055  1.0000
  H   H502      1.0  0.21182  0.65415  0.45924  1.0000
  Fe  Fe40      1.0  0.07729  0.53512  0.42541  1.0000
  N   N25       1.0  0.46100  0.70484  0.29958  1.0000
  S   S79       1.0  0.04696  0.51196  0.41708  1.0000
  Fe  Fe41      1.0  0.12893  0.55402  0.40611  1.0000
  H   H503      1.0  0.14944  0.72492  0.34104  1.0000
  S   S80       1.0  0.16128  0.55442  0.37668  1.0000
  S   S81       1.0  0.40183  0.59899  0.36459  1.0000
  Fe  Fe42      1.0  0.10124  0.57773  0.43323  1.0000
  S   S82       1.0  0.10219  0.60993  0.43562  1.0000
  S   S83       1.0  0.10472  0.52290  0.43542  1.0000
  S   S84       1.0  0.10159  0.56507  0.39237  1.0000
  C   C286      1.0  0.35977  0.73328  0.41894  1.0000
  H   H504      1.0  0.46285  0.73239  0.31557  1.0000
  C   C287      1.0  0.19689  0.51931  0.40707  1.0000
  C   C288      1.0  0.18963  0.53268  0.38808  1.0000
  C   C289      1.0  0.17263  0.53994  0.40025  1.0000
  C   C290      1.0  0.16390  0.53474  0.43145  1.0000
  H   H505      1.0  0.26353  0.51459  0.43829  1.0000
  H   H506      1.0  0.35925  0.64096  0.42655  1.0000
  H   H507      1.0  0.19677  0.53703  0.36399  1.0000
  C   C291      1.0  0.12247  0.71861  0.39410  1.0000
  H   H508      1.0  0.41201  0.69504  0.30726  1.0000
  H   H509      1.0  0.16474  0.51817  0.47451  1.0000
  C   C292      1.0  0.33610  0.53011  0.43753  1.0000
  C   C293      1.0  0.32658  0.51967  0.41734  1.0000
  H   H510      1.0  0.07783  0.50410  0.23327  1.0000
  C   C294      1.0  0.22213  0.64418  0.45486  1.0000
  H   H511      1.0  0.10709  0.67130  0.42967  1.0000
  H   H512      1.0  0.35050  0.54474  0.42902  1.0000
  H   H513      1.0  0.33373  0.52632  0.39334  1.0000
  S   S85       1.0  0.39782  0.71363  0.36687  1.0000
  H   H514      1.0  0.31283  0.71964  0.40650  1.0000
  H   H515      1.0  0.46618  0.52336  0.14865  1.0000
  H   H516      1.0  0.18812  0.50404  0.35127  1.0000
  H   H517      1.0  0.29111  0.57056  0.39064  1.0000
  C   C295      1.0  0.14430  0.62836  0.39437  1.0000
  H   H518      1.0  0.38815  0.72745  0.46915  1.0000
  C   C296      1.0  0.05484  0.50463  0.38396  1.0000
  C   C297      1.0  0.38062  0.65978  0.44941  1.0000
  C   C298      1.0  0.29844  0.49239  0.45905  1.0000
  C   C299      1.0  0.43017  0.62139  0.30945  1.0000
  C   C300      1.0  0.07902  0.51217  0.33360  1.0000
  C   C301      1.0  0.07257  0.51862  0.35953  1.0000
  S   S86       1.0  0.20209  0.67804  0.38315  1.0000
  H   H519      1.0  0.17705  0.64409  0.36159  1.0000
  H   H520      1.0  0.09250  0.52307  0.31458  1.0000
  H   H521      1.0  0.08110  0.53446  0.36043  1.0000
  H   H522      1.0  0.25473  0.56972  0.38712  1.0000
  C   C302      1.0  0.13015  0.62829  0.42116  1.0000
  C   C303      1.0  0.13835  0.64314  0.43669  1.0000
  C   C304      1.0  0.17174  0.52208  0.45044  1.0000
  H   H523      1.0  0.47146  0.52715  0.08150  1.0000
  H   H524      1.0  0.18866  0.72573  0.32590  1.0000
  C   C305      1.0  0.33328  0.71690  0.46920  1.0000
  Fe  Fe43      1.0  0.36638  0.56612  0.47247  1.0000
  H   H525      1.0  0.10860  0.50139  0.36337  1.0000
  H   H526      1.0  0.41678  0.67075  0.30566  1.0000
  C   C306      1.0  0.45098  0.63526  0.28964  1.0000
  H   H527      1.0  0.44328  0.56971  0.32725  1.0000
  C   C307      1.0  0.15268  0.51093  0.33181  1.0000
  Fe  Fe44      1.0  0.20807  0.73242  0.44335  1.0000
  C   C308      1.0  0.30748  0.50099  0.42799  1.0000
  C   C309      1.0  0.19788  0.60493  0.41971  1.0000
  C   C310      1.0  0.13989  0.52159  0.31283  1.0000
  H   H528      1.0  0.14281  0.67889  0.38566  1.0000
  H   H529      1.0  0.18723  0.58877  0.42011  1.0000
  H   H530      1.0  0.27907  0.52410  0.38967  1.0000
  H   H531      1.0  0.21389  0.60461  0.42578  1.0000
  H   H532      1.0  0.16602  0.50813  0.31582  1.0000
  H   H533      1.0  0.16237  0.52278  0.34226  1.0000
  C   C311      1.0  0.17451  0.65876  0.39819  1.0000
  H   H534      1.0  0.47682  0.56023  0.40857  1.0000
  C   C312      1.0  0.31869  0.71113  0.42431  1.0000
  H   H535      1.0  0.12846  0.50979  0.38473  1.0000
  H   H536      1.0  0.33492  0.68673  0.42511  1.0000
  C   C313      1.0  0.47631  0.59066  0.41089  1.0000
  H   H537      1.0  0.22642  0.64509  0.43044  1.0000
  H   H538      1.0  0.15255  0.53351  0.29285  1.0000
  H   H539      1.0  0.30263  0.70151  0.44219  1.0000
  H   H540      1.0  0.46814  0.49875  0.12224  1.0000
  C   C314      1.0  0.26978  0.52690  0.45006  1.0000
  N   N26       1.0  0.13787  0.49117  0.35572  1.0000
  H   H541      1.0  0.29491  0.54662  0.35956  1.0000
  H   H542      1.0  0.12212  0.70131  0.45046  1.0000
  H   H543      1.0  0.47201  0.69740  0.35705  1.0000
  C   C315      1.0  0.16632  0.64382  0.38264  1.0000
  H   H544      1.0  0.09307  0.67806  0.40082  1.0000
  C   C316      1.0  0.24680  0.54570  0.42970  1.0000
  C   C317      1.0  0.44980  0.57088  0.37219  1.0000
  H   H545      1.0  0.36817  0.67045  0.38168  1.0000
  H   H546      1.0  0.20958  0.51338  0.39746  1.0000
  H   H547      1.0  0.47523  0.65148  0.40009  1.0000
  H   H548      1.0  0.30457  0.55354  0.40527  1.0000
  C   C318      1.0  0.18400  0.61428  0.44020  1.0000
  H   H549      1.0  0.30555  0.57891  0.46973  1.0000
  H   H550      1.0  0.14806  0.70636  0.46104  1.0000
  N   N27       1.0  0.14085  0.70913  0.38850  1.0000
  H   H551      1.0  0.12801  0.68845  0.36108  1.0000
  H   H552      1.0  0.31424  0.56499  0.44408  1.0000
  H   H553      1.0  0.16596  0.60758  0.43903  1.0000
  C   C319      1.0  0.24456  0.56533  0.41080  1.0000
  C   C320      1.0  0.46275  0.72741  0.29440  1.0000
  H   H554      1.0  0.13806  0.61679  0.38236  1.0000
  H   H555      1.0  0.47310  0.71511  0.42117  1.0000
  S   S87       1.0  0.07470  0.54855  0.46552  1.0000
  H   H556      1.0  0.15095  0.54027  0.44125  1.0000
  Fe  Fe45      1.0  0.41615  0.59105  0.46892  1.0000
  Fe  Fe46      1.0  0.21547  0.70034  0.41060  1.0000
  H   H557      1.0  0.05225  0.49613  0.19709  1.0000
  C   C321      1.0  0.40126  0.69607  0.42227  1.0000
  H   H558      1.0  0.40386  0.68208  0.46588  1.0000
  C   C322      1.0  0.15818  0.72271  0.35941  1.0000
  C   C323      1.0  0.08424  0.50763  0.20848  1.0000
  S   S88       1.0  0.24852  0.70253  0.42320  1.0000
  H   H559      1.0  0.22627  0.56192  0.41035  1.0000
  H   H560      1.0  0.47483  0.49329  0.18012  1.0000
  C   C324      1.0  0.43617  0.56099  0.35115  1.0000
  C   C325      1.0  0.16065  0.65795  0.42563  1.0000
  S   S89       1.0  0.40002  0.56841  0.44371  1.0000
  H   H561      1.0  0.44393  0.67670  0.33635  1.0000
  Fe  Fe47      1.0  0.38185  0.61283  0.46641  1.0000
  H   H562      1.0  0.18869  0.63111  0.42918  1.0000
  H   H563      1.0  0.34098  0.70393  0.38859  1.0000
  C   C326      1.0  0.39579  0.67961  0.44780  1.0000
  H   H564      1.0  0.10791  0.70862  0.41359  1.0000
  H   H565      1.0  0.16689  0.66881  0.43829  1.0000
  C   C327      1.0  0.41719  0.68254  0.31883  1.0000
  H   H566      1.0  0.23454  0.54154  0.45215  1.0000
  C   C328      1.0  0.46673  0.64088  0.33203  1.0000
  H   H567      1.0  0.12753  0.64290  0.45765  1.0000
  Fe  Fe48      1.0  0.39718  0.59631  0.41405  1.0000
  H   H568      1.0  0.41829  0.56088  0.35773  1.0000
  H   H569      1.0  0.17093  0.69913  0.34327  1.0000
  C   C329      1.0  0.10732  0.67292  0.40570  1.0000
  H   H570      1.0  0.28317  0.58035  0.43392  1.0000
  H   H571      1.0  0.36564  0.71987  0.41802  1.0000
  H   H572      1.0  0.40390  0.67435  0.34043  1.0000
  S   S90       1.0  0.19603  0.69755  0.45699  1.0000
  C   C330      1.0  0.37593  0.67300  0.40008  1.0000
  S   S91       1.0  0.41654  0.61930  0.43637  1.0000
  C   C331      1.0  0.27853  0.56449  0.44910  1.0000
  H   H573      1.0  0.23863  0.65104  0.46069  1.0000
  H   H574      1.0  0.46740  0.51128  0.19899  1.0000
  H   H575      1.0  0.46870  0.60237  0.30915  1.0000
  C   C332      1.0  0.32774  0.69581  0.41019  1.0000
  H   H576      1.0  0.47462  0.55595  0.33285  1.0000
  H   H577      1.0  0.20331  0.61482  0.39620  1.0000
  H   H578      1.0  0.43486  0.54444  0.35362  1.0000
  H   H579      1.0  0.15393  0.49231  0.39307  1.0000
  C   C333      1.0  0.45951  0.69699  0.27178  1.0000
  H   H580      1.0  0.45839  0.68035  0.27656  1.0000
  C   C334      1.0  0.13870  0.69883  0.44581  1.0000
  H   H581      1.0  0.44399  0.62396  0.37588  1.0000
  H   H582      1.0  0.13825  0.60586  0.47571  1.0000
  C   C335      1.0  0.46941  0.64479  0.30089  1.0000
  H   H583      1.0  0.46376  0.68103  0.42181  1.0000
  H   H584      1.0  0.23990  0.53238  0.41997  1.0000
  C   C336      1.0  0.28088  0.54056  0.38066  1.0000
  H   H585      1.0  0.17368  0.63668  0.47576  1.0000
  H   H586      1.0  0.26501  0.54117  0.37429  1.0000
  H   H587      1.0  0.42877  0.73052  0.30261  1.0000
  H   H588      1.0  0.31328  0.68436  0.40500  1.0000
  H   H589      1.0  0.44357  0.69676  0.26496  1.0000
  C   C337      1.0  0.44583  0.62719  0.35189  1.0000
  Fe  Fe49      1.0  0.10468  0.53910  0.47226  1.0000
  C   C338      1.0  0.39122  0.69283  0.39848  1.0000
  H   H590      1.0  0.46734  0.62698  0.42678  1.0000
  N   N28       1.0  0.33506  0.72626  0.43666  1.0000
  H   H591      1.0  0.08508  0.52382  0.19904  1.0000
  H   H592      1.0  0.43847  0.69918  0.34374  1.0000
  H   H593      1.0  0.11454  0.71966  0.37469  1.0000
  C   C339      1.0  0.13068  0.68748  0.38415  1.0000
  H   H594      1.0  0.46713  0.54401  0.10561  1.0000
  C   C340      1.0  0.44078  0.69098  0.32570  1.0000
  H   H595      1.0  0.45781  0.69208  0.46944  1.0000
  H   H596      1.0  0.16540  0.70014  0.40935  1.0000
  C   C341      1.0  0.42761  0.61727  0.34057  1.0000
  H   H597      1.0  0.41343  0.71116  0.42102  1.0000
  N   N29       1.0  0.18560  0.61088  0.47237  1.0000
  C   C342      1.0  0.06853  0.49146  0.33276  1.0000
  C   C343      1.0  0.18792  0.51401  0.43829  1.0000
  H   H598      1.0  0.47174  0.54299  0.37016  1.0000
  H   H599      1.0  0.16515  0.72466  0.41179  1.0000
  C   C344      1.0  0.20993  0.62137  0.47403  1.0000
  C   C345      1.0  0.17753  0.71474  0.34765  1.0000
  H   H600      1.0  0.13563  0.68186  0.45266  1.0000
  S   S92       1.0  0.19691  0.49775  0.46271  1.0000
  H   H601      1.0  0.45291  0.63825  0.26560  1.0000
  H   H602      1.0  0.10208  0.50770  0.20277  1.0000
  H   H603      1.0  0.18943  0.58077  0.47396  1.0000
  H   H604      1.0  0.35594  0.69822  0.46243  1.0000
  H   H605      1.0  0.22103  0.61235  0.46765  1.0000
  Fe  Fe50      1.0  0.22946  0.70172  0.46891  1.0000
  H   H606      1.0  0.29103  0.72897  0.45197  1.0000
  C   C346      1.0  0.44345  0.73321  0.28334  1.0000
  H   H607      1.0  0.26449  0.56350  0.46813  1.0000
  C   C347      1.0  0.33910  0.69686  0.47627  1.0000
  C   C348      1.0  0.29960  0.56467  0.46151  1.0000
  H   H608      1.0  0.24950  0.57881  0.42074  1.0000
  C   C349      1.0  0.32680  0.52172  0.46857  1.0000
  C   C350      1.0  0.06820  0.49247  0.19473  1.0000
  H   H609      1.0  0.43726  0.72503  0.26675  1.0000
  S   S93       1.0  0.22482  0.73518  0.39558  1.0000
  H   H610      1.0  0.07582  0.49713  0.16994  1.0000
  H   H611      1.0  0.47559  0.70291  0.22429  1.0000
  Fe  Fe51      1.0  0.25592  0.73718  0.41320  1.0000
  S   S94       1.0  0.23973  0.73669  0.46044  1.0000
  S   S95       1.0  0.23503  0.48767  0.39391  1.0000
  S   S96       1.0  0.29487  0.48930  0.40194  1.0000
  H   H612      1.0  0.34456  0.72865  0.47831  1.0000
  S   S97       1.0  0.38272  0.58615  0.50067  1.0000
  H   H613      1.0  0.42176  0.66839  0.54112  1.0000
  H   H614      1.0  0.41136  0.50147  0.60121  1.0000
  C   C351      1.0  0.09278  0.49981  0.53333  1.0000
  C   C352      1.0  0.15701  0.50107  0.54908  1.0000
  C   C353      1.0  0.24988  0.68263  0.52530  1.0000
  C   C354      1.0  0.38383  0.70381  0.55987  1.0000
  C   C355      1.0  0.40916  0.67633  0.53841  1.0000
  H   H615      1.0  0.26297  0.71547  0.50302  1.0000
  H   H616      1.0  0.42484  0.54543  0.49308  1.0000
  C   C356      1.0  0.25448  0.51843  0.48273  1.0000
  H   H617      1.0  0.36602  0.52168  0.54023  1.0000
  C   C357      1.0  0.36773  0.71654  0.56167  1.0000
  H   H618      1.0  0.46301  0.68518  0.50549  1.0000
  H   H619      1.0  0.36419  0.50678  0.49884  1.0000
  H   H620      1.0  0.37300  0.68828  0.55817  1.0000
  H   H621      1.0  0.19599  0.58640  0.52248  1.0000
  H   H622      1.0  0.13844  0.59351  0.51304  1.0000
  H   H623      1.0  0.15057  0.51423  0.54953  1.0000
  C   C358      1.0  0.42514  0.53647  0.51530  1.0000
  H   H624      1.0  0.39359  0.66747  0.55714  1.0000
  N   N30       1.0  0.40557  0.71286  0.53471  1.0000
  H   H625      1.0  0.42408  0.69851  0.56162  1.0000
  H   H626      1.0  0.47700  0.72458  0.50549  1.0000
  H   H627      1.0  0.29261  0.72426  0.53134  1.0000
  H   H628      1.0  0.41499  0.71209  0.48803  1.0000
  H   H629      1.0  0.41157  0.52760  0.59808  1.0000
  C   C359      1.0  0.19938  0.72455  0.59981  1.0000
  H   H630      1.0  0.16065  0.57932  0.48406  1.0000
  S   S98       1.0  0.22710  0.67650  0.50828  1.0000
  C   C360      1.0  0.26902  0.67181  0.56248  1.0000
  C   C361      1.0  0.25213  0.66686  0.54664  1.0000
  H   H631      1.0  0.39447  0.51564  0.48447  1.0000
  H   H632      1.0  0.40751  0.56406  0.52949  1.0000
  H   H633      1.0  0.27043  0.65968  0.57942  1.0000
  H   H634      1.0  0.24048  0.65089  0.55145  1.0000
  C   C362      1.0  0.41994  0.69930  0.53944  1.0000
  C   C363      1.0  0.23561  0.71704  0.58635  1.0000
  H   H635      1.0  0.18762  0.72864  0.64410  1.0000
  H   H636      1.0  0.41879  0.55549  0.55878  1.0000
  H   H637      1.0  0.08131  0.50642  0.57537  1.0000
  C   C364      1.0  0.47276  0.63715  0.53818  1.0000
  C   C365      1.0  0.40012  0.71250  0.50460  1.0000
  C   C366      1.0  0.38063  0.50997  0.50567  1.0000
  H   H638      1.0  0.24937  0.53025  0.49215  1.0000
  H   H639      1.0  0.38614  0.56422  0.57900  1.0000
  H   H640      1.0  0.20764  0.68762  0.61418  1.0000
  S   S99       1.0  0.30305  0.69901  0.57905  1.0000
  H   H641      1.0  0.41051  0.73283  0.58298  1.0000
  C   C367      1.0  0.28350  0.69255  0.55718  1.0000
  H   H642      1.0  0.24367  0.72398  0.60307  1.0000
  H   H643      1.0  0.38085  0.73449  0.50339  1.0000
  H   H644      1.0  0.39874  0.49888  0.55620  1.0000
  C   C368      1.0  0.38284  0.52676  0.52332  1.0000
  C   C369      1.0  0.46311  0.68082  0.48381  1.0000
  C   C370      1.0  0.28163  0.70821  0.53527  1.0000
  H   H645      1.0  0.38752  0.70015  0.58224  1.0000
  H   H646      1.0  0.17439  0.62230  0.51062  1.0000
  H   H647      1.0  0.43964  0.54733  0.52148  1.0000
  C   C371      1.0  0.26488  0.70324  0.51920  1.0000
  H   H648      1.0  0.36752  0.54819  0.56167  1.0000
  H   H649      1.0  0.21042  0.62171  0.49763  1.0000
  H   H650      1.0  0.18836  0.70783  0.60854  1.0000
  N   N31       1.0  0.22025  0.72793  0.57526  1.0000
  H   H651      1.0  0.38554  0.69799  0.50650  1.0000
  H   H652      1.0  0.40511  0.67498  0.51665  1.0000
  C   C372      1.0  0.14414  0.60867  0.49592  1.0000
  H   H653      1.0  0.37724  0.53647  0.59239  1.0000
  H   H654      1.0  0.43862  0.63842  0.54561  1.0000
  C   C373      1.0  0.45004  0.63129  0.53556  1.0000
  S   S100      1.0  0.11056  0.52594  0.51647  1.0000
  H   H655      1.0  0.23854  0.50545  0.48406  1.0000
  C   C374      1.0  0.38228  0.54941  0.57184  1.0000
  C   C375      1.0  0.21298  0.72103  0.54863  1.0000
  H   H656      1.0  0.23566  0.68830  0.61401  1.0000
  H   H657      1.0  0.21493  0.72537  0.63845  1.0000
  H   H658      1.0  0.33992  0.69340  0.50014  1.0000
  N   N32       1.0  0.40250  0.53111  0.53817  1.0000
  H   H659      1.0  0.25071  0.71984  0.56778  1.0000
  H   H660      1.0  0.17564  0.70381  0.56462  1.0000
  H   H661      1.0  0.14601  0.73578  0.50705  1.0000
  H   H662      1.0  0.43901  0.51168  0.52933  1.0000
  S   S101      1.0  0.37432  0.63933  0.48128  1.0000
  H   H663      1.0  0.16501  0.50276  0.52520  1.0000
  C   C376      1.0  0.39436  0.73111  0.48887  1.0000
  C   C377      1.0  0.19161  0.70108  0.55524  1.0000
  H   H664      1.0  0.26389  0.51217  0.49776  1.0000
  C   C378      1.0  0.40385  0.55055  0.54893  1.0000
  H   H665      1.0  0.20864  0.73338  0.53468  1.0000
  H   H666      1.0  0.22737  0.71882  0.53358  1.0000
  C   C379      1.0  0.44223  0.61679  0.51909  1.0000
  H   H667      1.0  0.37683  0.73364  0.55553  1.0000
  H   H668      1.0  0.18994  0.69698  0.53369  1.0000
  H   H669      1.0  0.43678  0.70618  0.52221  1.0000
  C   C380      1.0  0.41444  0.51649  0.58491  1.0000
  H   H670      1.0  0.17027  0.50289  0.56198  1.0000
  H   H671      1.0  0.43783  0.72950  0.57002  1.0000
  H   H672      1.0  0.31553  0.71258  0.48331  1.0000
  H   H673      1.0  0.22540  0.68498  0.58117  1.0000
  C   C381      1.0  0.22520  0.69316  0.59936  1.0000
  H   H674      1.0  0.38001  0.49492  0.51943  1.0000
  H   H675      1.0  0.45005  0.66495  0.48921  1.0000
  H   H676      1.0  0.38394  0.54129  0.50734  1.0000
  H   H677      1.0  0.43273  0.52277  0.57203  1.0000
  H   H678      1.0  0.18809  0.73219  0.59054  1.0000
  H   H679      1.0  0.19265  0.68735  0.57031  1.0000
  H   H680      1.0  0.38009  0.50757  0.57859  1.0000
  C   C382      1.0  0.39795  0.51274  0.56425  1.0000
  S   S102      1.0  0.33760  0.53519  0.49421  1.0000
  C   C383      1.0  0.08054  0.49441  0.56341  1.0000
  H   H681      1.0  0.30099  0.49607  0.50327  1.0000
  H   H682      1.0  0.35543  0.71255  0.54764  1.0000
  H   H683      1.0  0.16768  0.58778  0.53413  1.0000
  H   H684      1.0  0.13494  0.61827  0.50537  1.0000
  C   C384      1.0  0.45688  0.60747  0.50608  1.0000
  H   H685      1.0  0.42492  0.61294  0.51639  1.0000
  H   H686      1.0  0.29532  0.55102  0.48095  1.0000
  H   H687      1.0  0.17075  0.56411  0.52791  1.0000
  C   C385      1.0  0.17824  0.58145  0.51961  1.0000
  H   H688      1.0  0.35766  0.71273  0.58538  1.0000
  H   H689      1.0  0.10161  0.48827  0.49481  1.0000
  C   C386      1.0  0.17035  0.62047  0.48885  1.0000
  H   H690      1.0  0.04634  0.49073  0.50379  1.0000
  C   C387      1.0  0.20423  0.73270  0.62731  1.0000
  H   H691      1.0  0.42026  0.50542  0.50517  1.0000
  S   S103      1.0  0.44784  0.59015  0.48394  1.0000
  C   C388      1.0  0.42000  0.73474  0.53437  1.0000
  Fe  Fe52      1.0  0.31779  0.73378  0.57011  1.0000
  H   H692      1.0  0.44844  0.52448  0.49024  1.0000
  C   C389      1.0  0.43326  0.51828  0.50999  1.0000
  C   C390      1.0  0.17813  0.58771  0.48624  1.0000
  C   C391      1.0  0.30818  0.50269  0.47929  1.0000
  Fe  Fe53      1.0  0.35436  0.92518  0.34596  1.0000
  S   S104      1.0  0.42176  0.75455  0.41175  1.0000
  C   C392      1.0  0.32236  0.82413  0.44809  1.0000
  H   H693      1.0  0.34259  0.80059  0.30780  1.0000
  H   H694      1.0  0.29541  0.78286  0.32784  1.0000
  C   C393      1.0  0.31139  0.93965  0.46626  1.0000
  H   H695      1.0  0.26342  0.83579  0.39490  1.0000
  C   C394      1.0  0.25299  0.90708  0.42082  1.0000
  C   C395      1.0  0.35811  0.81360  0.29324  1.0000
  C   C396      1.0  0.23470  0.79495  0.40547  1.0000
  S   S105      1.0  0.43929  0.77226  0.33861  1.0000
  N   N33       1.0  0.22873  0.82679  0.42285  1.0000
  H   H696      1.0  0.24192  0.78926  0.42368  1.0000
  C   C397      1.0  0.30098  0.81467  0.32997  1.0000
  C   C398      1.0  0.35147  0.80841  0.36251  1.0000
  H   H697      1.0  0.26130  0.85697  0.35021  1.0000
  N   N34       1.0  0.37398  0.81998  0.33910  1.0000
  C   C399      1.0  0.38930  0.83731  0.34911  1.0000
  C   C400      1.0  0.35759  0.96344  0.28040  1.0000
  H   H698      1.0  0.38448  0.84160  0.29461  1.0000
  S   S106      1.0  0.42204  0.80798  0.38976  1.0000
  H   H699      1.0  0.25595  0.85679  0.40422  1.0000
  C   C401      1.0  0.24906  0.84179  0.39804  1.0000
  H   H700      1.0  0.35270  0.82182  0.27475  1.0000
  H   H701      1.0  0.16712  0.73864  0.36164  1.0000
  H   H702      1.0  0.29013  0.95853  0.33597  1.0000
  H   H703      1.0  0.19595  0.89761  0.44783  1.0000
  C   C402      1.0  0.39460  0.79913  0.44639  1.0000
  H   H704      1.0  0.28594  0.96911  0.38055  1.0000
  H   H705      1.0  0.38146  0.80127  0.43573  1.0000
  H   H706      1.0  0.41202  0.80121  0.30015  1.0000
  C   C403      1.0  0.24459  0.84731  0.36675  1.0000
  H   H707      1.0  0.30423  0.82053  0.30588  1.0000
  H   H708      1.0  0.34161  0.79393  0.35697  1.0000
  H   H709      1.0  0.41062  0.82663  0.29202  1.0000
  H   H710      1.0  0.23347  0.85692  0.36623  1.0000
  H   H711      1.0  0.42370  0.81926  0.32134  1.0000
  H   H712      1.0  0.38242  0.74745  0.37362  1.0000
  H   H713      1.0  0.24861  0.80467  0.38512  1.0000
  H   H714      1.0  0.37073  0.80721  0.28273  1.0000
  H   H715      1.0  0.27973  0.96250  0.28926  1.0000
  C   C404      1.0  0.33743  0.94355  0.45884  1.0000
  C   C405      1.0  0.23160  0.90943  0.42308  1.0000
  H   H716      1.0  0.34033  0.81798  0.36276  1.0000
  S   S107      1.0  0.35738  0.89385  0.36188  1.0000
  S   S108      1.0  0.38382  0.95400  0.31783  1.0000
  H   H717      1.0  0.34557  0.95377  0.43562  1.0000
  H   H718      1.0  0.33544  0.79174  0.40948  1.0000
  H   H719      1.0  0.34878  0.97642  0.36056  1.0000
  C   C406      1.0  0.32869  0.74561  0.43530  1.0000
  C   C407      1.0  0.29210  0.78556  0.37336  1.0000
  H   H720      1.0  0.36254  0.84737  0.37308  1.0000
  C   C408      1.0  0.29302  0.79927  0.39201  1.0000
  C   C409      1.0  0.33070  0.97280  0.35898  1.0000
  C   C410      1.0  0.36884  0.82930  0.31051  1.0000
  H   H721      1.0  0.35044  0.94685  0.28242  1.0000
  C   C411      1.0  0.28724  0.98460  0.36716  1.0000
  H   H722      1.0  0.34152  0.75779  0.44207  1.0000
  H   H723      1.0  0.38965  0.79806  0.35563  1.0000
  C   C412      1.0  0.35290  0.80175  0.39521  1.0000
  C   C413      1.0  0.38600  0.80472  0.33444  1.0000
  H   H724      1.0  0.43483  0.97022  0.24533  1.0000
  H   H725      1.0  0.22964  0.92143  0.40650  1.0000
  H   H726      1.0  0.32753  0.96080  0.34607  1.0000
  H   H727      1.0  0.35865  0.81537  0.40466  1.0000
  H   H728      1.0  0.11514  0.74517  0.40581  1.0000
  H   H729      1.0  0.37705  0.86317  0.33507  1.0000
  H   H730      1.0  0.30064  0.83160  0.39361  1.0000
  H   H731      1.0  0.30662  0.89997  0.46327  1.0000
  H   H732      1.0  0.20928  0.80825  0.39766  1.0000
  C   C414      1.0  0.25543  0.89153  0.44227  1.0000
  C   C415      1.0  0.21829  0.80617  0.41572  1.0000
  C   C416      1.0  0.41637  0.80211  0.42904  1.0000
  H   H733      1.0  0.31947  0.81568  0.43124  1.0000
  H   H734      1.0  0.23729  0.83325  0.35882  1.0000
  H   H735      1.0  0.35246  0.73955  0.37415  1.0000
  H   H736      1.0  0.38353  0.86072  0.43197  1.0000
  H   H737      1.0  0.39134  0.86531  0.36455  1.0000
  C   C417      1.0  0.30302  0.82860  0.34825  1.0000
  H   H738      1.0  0.37247  0.83439  0.45680  1.0000
  H   H739      1.0  0.27197  0.88987  0.44081  1.0000
  H   H740      1.0  0.33431  0.85429  0.41649  1.0000
  C   C418      1.0  0.21259  0.89601  0.44646  1.0000
  S   S109      1.0  0.32068  0.91219  0.33490  1.0000
  H   H741      1.0  0.13840  0.74079  0.41916  1.0000
  H   H742      1.0  0.36425  0.79257  0.39749  1.0000
  H   H743      1.0  0.42331  0.86449  0.43514  1.0000
  H   H744      1.0  0.26098  0.81761  0.47493  1.0000
  H   H745      1.0  0.29040  0.79329  0.41594  1.0000
  H   H746      1.0  0.30041  0.75659  0.44756  1.0000
  H   H747      1.0  0.35665  0.83770  0.31530  1.0000
  H   H748      1.0  0.40585  0.84579  0.33167  1.0000
  Fe  Fe54      1.0  0.30496  0.91125  0.38225  1.0000
  H   H749      1.0  0.17751  0.83411  0.45362  1.0000
  C   C419      1.0  0.29584  0.79331  0.34240  1.0000
  H   H750      1.0  0.39433  0.83093  0.36937  1.0000
  H   H751      1.0  0.37475  0.79064  0.32936  1.0000
  H   H752      1.0  0.20372  0.83825  0.40611  1.0000
  C   C420      1.0  0.33078  0.84601  0.43978  1.0000
  H   H753      1.0  0.45001  0.80112  0.42993  1.0000
  H   H754      1.0  0.33667  0.97132  0.25181  1.0000
  C   C421      1.0  0.38771  0.84668  0.44036  1.0000
  Fe  Fe55      1.0  0.32200  0.88068  0.35500  1.0000
  C   C422      1.0  0.30477  0.74241  0.45463  1.0000
  H   H755      1.0  0.21812  0.85306  0.42840  1.0000
  C   C423      1.0  0.28471  0.97696  0.29722  1.0000
  C   C424      1.0  0.40940  0.81365  0.31069  1.0000
  H   H756      1.0  0.22476  0.78079  0.39940  1.0000
  C   C425      1.0  0.23662  0.87862  0.46633  1.0000
  Fe  Fe56      1.0  0.33843  0.89433  0.40697  1.0000
  S   S110      1.0  0.29107  0.75990  0.38725  1.0000
  C   C426      1.0  0.43319  0.79903  0.44322  1.0000
  H   H757      1.0  0.21810  0.77228  0.47540  1.0000
  H   H758      1.0  0.41409  0.83793  0.45550  1.0000
  C   C427      1.0  0.29877  0.82088  0.37942  1.0000
  S   S111      1.0  0.31218  0.85550  0.33062  1.0000
  C   C428      1.0  0.37920  0.85406  0.35579  1.0000
  C   C429      1.0  0.35002  0.97731  0.26280  1.0000
  H   H759      1.0  0.26874  0.97953  0.30657  1.0000
  Fe  Fe57      1.0  0.43929  0.78569  0.37862  1.0000
  S   S112      1.0  0.33846  0.92672  0.39190  1.0000
  H   H760      1.0  0.36627  0.76257  0.38565  1.0000
  S   S113      1.0  0.30324  0.87864  0.40150  1.0000
  C   C430      1.0  0.40907  0.85200  0.45313  1.0000
  Fe  Fe58      1.0  0.45726  0.75515  0.41199  1.0000
  C   C431      1.0  0.29900  0.97440  0.32023  1.0000
  C   C432      1.0  0.37454  0.97110  0.29506  1.0000
  H   H761      1.0  0.32883  0.75279  0.41191  1.0000
  H   H762      1.0  0.31493  0.97363  0.30669  1.0000
  S   S114      1.0  0.27658  0.92406  0.39155  1.0000
  H   H763      1.0  0.30416  0.93179  0.44966  1.0000
  C   C433      1.0  0.21059  0.83678  0.42635  1.0000
  H   H764      1.0  0.22297  0.80933  0.46886  1.0000
  H   H765      1.0  0.31958  0.96600  0.38224  1.0000
  C   C434      1.0  0.13040  0.74054  0.39992  1.0000
  C   C435      1.0  0.26254  0.98259  0.36586  1.0000
  H   H766      1.0  0.20480  0.79479  0.43550  1.0000
  H   H767      1.0  0.39154  0.84046  0.42059  1.0000
  H   H768      1.0  0.37128  0.74301  0.43029  1.0000
  C   C436      1.0  0.18939  0.82518  0.45348  1.0000
  C   C437      1.0  0.25985  0.82293  0.45151  1.0000
  H   H769      1.0  0.25498  0.96979  0.35568  1.0000
  S   S115      1.0  0.18225  0.74781  0.45316  1.0000
  H   H770      1.0  0.25165  0.97836  0.38920  1.0000
  H   H771      1.0  0.23507  0.83675  0.46264  1.0000
  Fe  Fe59      1.0  0.47345  0.77108  0.34419  1.0000
  C   C438      1.0  0.36524  0.74635  0.38623  1.0000
  S   S116      1.0  0.34705  0.88443  0.45032  1.0000
  C   C439      1.0  0.21510  0.88065  0.46815  1.0000
  C   C440      1.0  0.23557  0.82368  0.45226  1.0000
  H   H772      1.0  0.26435  0.81219  0.43904  1.0000
  H   H773      1.0  0.42886  0.98150  0.27551  1.0000
  Fe  Fe60      1.0  0.42517  0.74115  0.37222  1.0000
  H   H774      1.0  0.38232  0.87327  0.47165  1.0000
  H   H775      1.0  0.14232  0.75265  0.37967  1.0000
  H   H776      1.0  0.41169  0.88981  0.45783  1.0000
  H   H777      1.0  0.17963  0.80928  0.45211  1.0000
  H   H778      1.0  0.27316  0.83873  0.44195  1.0000
  C   C441      1.0  0.33530  0.85707  0.46137  1.0000
  H   H779      1.0  0.30986  0.95536  0.46084  1.0000
  H   H780      1.0  0.45034  0.75009  0.27131  1.0000
  S   S117      1.0  0.47494  0.78751  0.38139  1.0000
  S   S118      1.0  0.46101  0.74260  0.45792  1.0000
  H   H781      1.0  0.19399  0.82423  0.47535  1.0000
  H   H782      1.0  0.34099  0.92883  0.45931  1.0000
  H   H783      1.0  0.27256  0.95073  0.47101  1.0000
  H   H784      1.0  0.44508  0.84236  0.47286  1.0000
  C   C442      1.0  0.38964  0.79309  0.47780  1.0000
  H   H785      1.0  0.34611  0.95176  0.47395  1.0000
  H   H786      1.0  0.44251  0.87723  0.47017  1.0000
  C   C443      1.0  0.42830  0.79318  0.47471  1.0000
  H   H787      1.0  0.30479  0.74077  0.47862  1.0000
  C   C444      1.0  0.43597  0.98532  0.25084  1.0000
  C   C445      1.0  0.31833  0.81319  0.47795  1.0000
  S   S119      1.0  0.45911  0.73884  0.37519  1.0000
  C   C446      1.0  0.39914  0.87723  0.47739  1.0000
  C   C447      1.0  0.98117  0.91371  0.70919  1.0000
  S   S120      1.0  0.29549  0.75339  0.57170  1.0000
  H   H788      1.0  0.26815  0.91280  0.48321  1.0000
  H   H789      1.0  0.16439  0.97307  0.64558  1.0000
  S   S121      1.0  0.20409  0.97735  0.71945  1.0000
  S   S122      1.0  0.20709  0.95090  0.65375  1.0000
  H   H790      1.0  0.21543  0.92746  0.60226  1.0000
  C   C448      1.0  0.18409  0.96324  0.81661  1.0000
  C   C449      1.0  0.13361  0.91709  0.76406  1.0000
  H   H791      1.0  0.13592  0.89365  0.60967  1.0000
  H   H792      1.0  0.23328  0.79760  0.64945  1.0000
  H   H793      1.0  0.21856  0.91708  0.57053  1.0000
  S   S123      1.0  0.40006  0.78227  0.53133  1.0000
  C   C450      1.0  0.14189  0.90544  0.68549  1.0000
  H   H794      1.0  0.25206  0.86229  0.66599  1.0000
  Fe  Fe61      1.0  0.31991  0.77318  0.52766  1.0000
  S   S124      1.0  0.34386  0.79383  0.54806  1.0000
  C   C451      1.0  0.29117  0.87208  0.62838  1.0000
  Fe  Fe62      1.0  0.36187  0.77087  0.54851  1.0000
  H   H795      1.0  0.26558  0.94915  0.51100  1.0000
  Fe  Fe63      1.0  0.32130  0.77224  0.59207  1.0000
  S   S125      1.0  0.31084  0.78818  0.62635  1.0000
  C   C452      1.0  0.30311  0.90796  0.50745  1.0000
  H   H796      1.0  0.42705  0.83207  0.51096  1.0000
  H   H797      1.0  0.20556  0.92324  0.52750  1.0000
  C   C453      1.0  0.29830  0.89260  0.48748  1.0000
  H   H798      1.0  0.38079  0.87644  0.52257  1.0000
  C   C454      1.0  0.17900  0.97387  0.86327  1.0000
  H   H799      1.0  0.27956  0.86561  0.61466  1.0000
  H   H800      1.0  0.23163  0.96841  0.79512  1.0000
  Fe  Fe64      1.0  0.07373  0.95769  0.70516  1.0000
  S   S126      1.0  0.08025  0.94420  0.66584  1.0000
  H   H801      1.0  0.14277  0.89071  0.68025  1.0000
  C   C455      1.0  0.25759  0.82679  0.65208  1.0000
  Fe  Fe65      1.0  0.20143  0.84653  0.53420  1.0000
  S   S127      1.0  0.22238  0.86422  0.56071  1.0000
  H   H802      1.0  0.28790  0.80184  0.70919  1.0000
  Fe  Fe66      1.0  0.19714  0.80474  0.57118  1.0000
  S   S128      1.0  0.21764  0.81820  0.60162  1.0000
  Fe  Fe67      1.0  0.19767  0.83967  0.60122  1.0000
  S   S129      1.0  0.18579  0.84839  0.64350  1.0000
  Fe  Fe68      1.0  0.24084  0.84157  0.55924  1.0000
  S   S130      1.0  0.27870  0.85479  0.55395  1.0000
  S   S131      1.0  0.17465  0.82407  0.57479  1.0000
  S   S132      1.0  0.22239  0.82606  0.52843  1.0000
  C   C456      1.0  0.15905  0.94924  0.81976  1.0000
  H   H803      1.0  0.33369  0.85473  0.50837  1.0000
  S   S133      1.0  0.18070  0.77029  0.57773  1.0000
  C   C457      1.0  0.29014  0.81510  0.69011  1.0000
  H   H804      1.0  0.29761  0.94418  0.56490  1.0000
  H   H805      1.0  0.22769  0.82488  0.72138  1.0000
  C   C458      1.0  0.11699  0.89648  0.78636  1.0000
  Fe  Fe69      1.0  0.24453  0.95885  0.63239  1.0000
  S   S134      1.0  0.26144  0.93487  0.62975  1.0000
  H   H806      1.0  0.13379  0.88093  0.58008  1.0000
  H   H807      1.0  0.26343  0.74954  0.53241  1.0000
  C   C459      1.0  0.24128  0.90958  0.63777  1.0000
  C   C460      1.0  0.24660  0.89537  0.62290  1.0000
  C   C461      1.0  0.22985  0.87594  0.62623  1.0000
  C   C462      1.0  0.20767  0.87076  0.64422  1.0000
  C   C463      1.0  0.20272  0.88432  0.66083  1.0000
  C   C464      1.0  0.21960  0.90375  0.65764  1.0000
  H   H808      1.0  0.26344  0.89960  0.60807  1.0000
  H   H809      1.0  0.23412  0.86502  0.61471  1.0000
  H   H810      1.0  0.18567  0.88016  0.67523  1.0000
  H   H811      1.0  0.21582  0.91425  0.67037  1.0000
  C   C465      1.0  0.10846  0.95240  0.64364  1.0000
  C   C466      1.0  0.11204  0.94858  0.61518  1.0000
  C   C467      1.0  0.13440  0.95388  0.59753  1.0000
  C   C468      1.0  0.15328  0.96214  0.60882  1.0000
  C   C469      1.0  0.14979  0.96630  0.63707  1.0000
  C   C470      1.0  0.12735  0.96183  0.65422  1.0000
  H   H812      1.0  0.09744  0.94160  0.60673  1.0000
  H   H813      1.0  0.15302  0.96148  0.74502  1.0000
  H   H814      1.0  0.12732  0.85480  0.62408  1.0000
  H   H815      1.0  0.12462  0.96515  0.67591  1.0000
  H   H816      1.0  0.20794  0.93877  0.57035  1.0000
  C   C471      1.0  0.18231  0.97403  0.89503  1.0000
  H   H817      1.0  0.30276  0.84730  0.64415  1.0000
  H   H818      1.0  0.28637  0.88447  0.63682  1.0000
  C   C472      1.0  0.12485  0.98172  0.80502  1.0000
  H   H819      1.0  0.09301  0.88462  0.74669  1.0000
  C   C473      1.0  0.19790  0.90697  0.52631  1.0000
  H   H820      1.0  0.26355  0.77533  0.53214  1.0000
  C   C474      1.0  0.10951  0.91966  0.72803  1.0000
  H   H821      1.0  0.08861  0.89511  0.71067  1.0000
  H   H822      1.0  0.14558  0.74433  0.55632  1.0000
  H   H823      1.0  0.29258  0.89885  0.53050  1.0000
  H   H824      1.0  0.12027  0.89630  0.80894  1.0000
  H   H825      1.0  0.14931  0.93309  0.52645  1.0000
  H   H826      1.0  0.10252  0.92784  0.74358  1.0000
  H   H827      1.0  0.16015  0.96671  0.86668  1.0000
  H   H828      1.0  0.22659  0.80265  0.68535  1.0000
  C   C475      1.0  0.29149  0.85504  0.65453  1.0000
  Fe  Fe70      1.0  0.20790  0.97411  0.61309  1.0000
  S   S135      1.0  0.33990  0.75180  0.52416  1.0000
  H   H829      1.0  0.17328  0.98386  0.90425  1.0000
  H   H830      1.0  0.19050  0.93167  0.84589  1.0000
  N   N35       1.0  0.13285  0.91983  0.73157  1.0000
  H   H831      1.0  0.01232  0.92924  0.72095  1.0000
  C   C476      1.0  0.30207  0.80660  0.60575  1.0000
  C   C477      1.0  0.28200  0.80001  0.59602  1.0000
  C   C478      1.0  0.27504  0.81476  0.57923  1.0000
  C   C479      1.0  0.28844  0.83603  0.57173  1.0000
  C   C480      1.0  0.30903  0.84252  0.58034  1.0000
  C   C481      1.0  0.31574  0.82781  0.59763  1.0000
  H   H832      1.0  0.27173  0.78355  0.60175  1.0000
  H   H833      1.0  0.25936  0.80968  0.57207  1.0000
  H   H834      1.0  0.31952  0.85894  0.57417  1.0000
  H   H835      1.0  0.33159  0.83280  0.60448  1.0000
  S   S136      1.0  0.06097  0.93750  0.75246  1.0000
  S   S137      1.0  0.11126  0.96104  0.79001  1.0000
  C   C482      1.0  0.30487  0.94137  0.51883  1.0000
  H   H836      1.0  0.18009  0.93409  0.54849  1.0000
  C   C483      1.0  0.25226  0.75900  0.53458  1.0000
  C   C484      1.0  0.18122  0.76430  0.54293  1.0000
  H   H837      1.0  0.15532  0.85833  0.60286  1.0000
  H   H838      1.0  0.41001  0.74545  0.48009  1.0000
  C   C485      1.0  0.38786  0.84040  0.53977  1.0000
  H   H839      1.0  0.15886  0.97454  0.70644  1.0000
  H   H840      1.0  0.15109  0.94384  0.69008  1.0000
  H   H841      1.0  0.37007  0.83768  0.55245  1.0000
  N   N36       1.0  0.26835  0.83906  0.67248  1.0000
  H   H842      1.0  0.23098  0.95110  0.82967  1.0000
  H   H843      1.0  0.25003  0.79361  0.67484  1.0000
  C   C486      1.0  0.42965  0.86424  0.48897  1.0000
  H   H844      1.0  0.15715  0.90409  0.72311  1.0000
  C   C487      1.0  0.99374  0.92342  0.72770  1.0000
  H   H845      1.0  0.12983  0.95992  0.72696  1.0000
  H   H846      1.0  0.30073  0.86320  0.66946  1.0000
  H   H847      1.0  0.21233  0.75000  0.62127  1.0000
  H   H848      1.0  0.16535  0.88206  0.54554  1.0000
  H   H849      1.0  0.09885  0.89548  0.78890  1.0000
  H   H850      1.0  0.12698  0.90819  0.67857  1.0000
  H   H851      1.0  0.15136  0.91879  0.76614  1.0000
  H   H852      1.0  0.15602  0.92738  0.57848  1.0000
  H   H853      1.0  0.16827  0.94118  0.71532  1.0000
  H   H854      1.0  0.27826  0.83475  0.71451  1.0000
  H   H855      1.0  0.26216  0.86021  0.69892  1.0000
  H   H856      1.0  0.30795  0.82634  0.68555  1.0000
  C   C488      1.0  0.25377  0.85082  0.68451  1.0000
  H   H857      1.0  0.11948  0.88248  0.78048  1.0000
  H   H858      1.0  0.18693  0.92706  0.90805  1.0000
  H   H859      1.0  0.27104  0.82556  0.63440  1.0000
  Fe  Fe71      1.0  0.08522  0.96468  0.76381  1.0000
  Fe  Fe72      1.0  0.03573  0.95415  0.75750  1.0000
  H   H860      1.0  0.15369  0.90931  0.52295  1.0000
  H   H861      1.0  0.12933  0.92954  0.77304  1.0000
  S   S138      1.0  0.09989  0.98327  0.71569  1.0000
  H   H862      1.0  0.31800  0.81594  0.52315  1.0000
  H   H863      1.0  0.32311  0.94431  0.51921  1.0000
  C   C489      1.0  0.18295  0.90764  0.59766  1.0000
  H   H864      1.0  0.22096  0.84803  0.71221  1.0000
  C   C490      1.0  0.20749  0.92368  0.58377  1.0000
  H   H865      1.0  0.21706  0.78287  0.52322  1.0000
  H   H866      1.0  0.25609  0.81282  0.71229  1.0000
  C   C491      1.0  0.18667  0.94081  0.86209  1.0000
  H   H867      1.0  0.18602  0.88104  0.56602  1.0000
  H   H868      1.0  0.17422  0.91377  0.61488  1.0000
  S   S139      1.0  0.05857  0.97935  0.77398  1.0000
  C   C492      1.0  0.16403  0.92101  0.56114  1.0000
  C   C493      1.0  0.39578  0.88705  0.50399  1.0000
  C   C494      1.0  0.15069  0.94086  0.71426  1.0000
  H   H869      1.0  0.18624  0.97943  0.80485  1.0000
  C   C495      1.0  0.27230  0.82547  0.69861  1.0000
  H   H870      1.0  0.15792  0.91816  0.67144  1.0000
  H   H871      1.0  0.28847  0.80890  0.67012  1.0000
  C   C496      1.0  0.14838  0.91760  0.53940  1.0000
  N   N37       1.0  0.19188  0.96314  0.84532  1.0000
  H   H872      1.0  0.18542  0.89361  0.61017  1.0000
  H   H873      1.0  0.23874  0.86702  0.48331  1.0000
  H   H874      1.0  0.29246  0.91788  0.56279  1.0000
  H   H875      1.0  0.21012  0.95123  0.89172  1.0000
  H   H876      1.0  0.39242  0.82713  0.55071  1.0000
  C   C497      1.0  0.14762  0.96007  0.72402  1.0000
  N   N38       1.0  0.29800  0.92766  0.49813  1.0000
  C   C498      1.0  0.27268  0.92173  0.49991  1.0000
  H   H877      1.0  0.13009  0.90905  0.55182  1.0000
  H   H878      1.0  0.11110  0.92869  0.70499  1.0000
  H   H879      1.0  0.21086  0.92824  0.88018  1.0000
  H   H880      1.0  0.25215  0.98531  0.71799  1.0000
  H   H881      1.0  0.15587  0.95119  0.79702  1.0000
  C   C499      1.0  0.23336  0.96738  0.81846  1.0000
  C   C500      1.0  0.17883  0.89200  0.55431  1.0000
  S   S140      1.0  0.30935  0.78581  0.48711  1.0000
  H   H882      1.0  0.25145  0.97718  0.81634  1.0000
  S   S141      1.0  0.25707  0.98508  0.65366  1.0000
  H   H883      1.0  0.30390  0.95709  0.51054  1.0000
  H   H884      1.0  0.24827  0.83520  0.63958  1.0000
  H   H885      1.0  0.24421  0.75943  0.51541  1.0000
  C   C501      1.0  0.14509  0.88629  0.59484  1.0000
  C   C502      1.0  0.21719  0.97618  0.83636  1.0000
  C   C503      1.0  0.23406  0.75114  0.56518  1.0000
  C   C504      1.0  0.14005  0.90353  0.71939  1.0000
  C   C505      1.0  0.19957  0.93706  0.88659  1.0000
  H   H886      1.0  0.32126  0.91157  0.50883  1.0000
  H   H887      1.0  0.39902  0.85489  0.54344  1.0000
  N   N39       1.0  0.16826  0.90192  0.57629  1.0000
  H   H888      1.0  0.20051  0.98106  0.89526  1.0000
  H   H889      1.0  0.09551  0.97447  0.84205  1.0000
  C   C506      1.0  0.14523  0.86614  0.61518  1.0000
  H   H890      1.0  0.16789  0.93320  0.87303  1.0000
  H   H891      1.0  0.12838  0.88744  0.73150  1.0000
  C   C507      1.0  0.22886  0.83768  0.70243  1.0000
  H   H892      1.0  0.07385  0.89853  0.74404  1.0000
  H   H893      1.0  0.15598  0.93241  0.82852  1.0000
  H   H894      1.0  0.21829  0.83154  0.68736  1.0000
  S   S142      1.0  0.99774  0.93723  0.77875  1.0000
  C   C508      1.0  0.26391  0.94012  0.49381  1.0000
  C   C509      1.0  0.98227  0.92534  0.75499  1.0000
  H   H895      1.0  0.30874  0.87987  0.61311  1.0000
  C   C510      1.0  0.24095  0.80401  0.66674  1.0000
  C   C511      1.0  0.09070  0.89809  0.73270  1.0000
  H   H896      1.0  0.13697  0.95136  0.57523  1.0000
  C   C512      1.0  0.20217  0.76657  0.49276  1.0000
  H   H897      1.0  0.21220  0.90085  0.52259  1.0000
  C   C513      1.0  0.16133  0.75070  0.53850  1.0000
  H   H898      1.0  0.15161  0.86921  0.63507  1.0000
  H   H899      1.0  0.24537  0.93380  0.49462  1.0000
  H   H900      1.0  0.99020  0.91219  0.68822  1.0000
  C   C514      1.0  0.40646  0.79006  0.49202  1.0000
  H   H901      1.0  0.45490  0.85163  0.50275  1.0000
  Fe  Fe73      1.0  0.21964  0.97877  0.67185  1.0000
  H   H902      1.0  0.41169  0.74621  0.52819  1.0000
  H   H903      1.0  0.22257  0.76039  0.56369  1.0000
  H   H904      1.0  0.43644  0.74040  0.51657  1.0000
  C   C515      1.0  0.20158  0.77247  0.51987  1.0000
  H   H905      1.0  0.37287  0.79115  0.49092  1.0000
  C   C516      1.0  0.18203  0.75371  0.48790  1.0000
  S   S143      1.0  0.18100  0.96692  0.58742  1.0000
  S   S144      1.0  0.04698  0.97270  0.70933  1.0000
  C   C517      1.0  0.42606  0.73767  0.56412  1.0000
  H   H906      1.0  0.26213  0.91086  0.52213  1.0000
  H   H907      1.0  0.44133  0.79071  0.48558  1.0000
  H   H908      1.0  0.27241  0.93067  0.55484  1.0000
  H   H909      1.0  0.38997  0.82530  0.50390  1.0000
  C   C518      1.0  0.43941  0.84639  0.49412  1.0000
  N   N40       1.0  0.40631  0.85834  0.48241  1.0000
  H   H910      1.0  0.14607  0.95373  0.83352  1.0000
  H   H911      1.0  0.19480  0.95797  0.80045  1.0000
  C   C519      1.0  0.29085  0.93277  0.55204  1.0000
  S   S145      1.0  0.19119  0.86402  0.49718  1.0000
  H   H912      1.0  0.41142  0.89221  0.51220  1.0000
  C   C520      1.0  0.32213  0.82425  0.49978  1.0000
  S   S146      1.0  0.34162  0.75087  0.59471  1.0000
  H   H913      1.0  0.27957  0.88459  0.49101  1.0000
  H   H914      1.0  0.30530  0.88013  0.49429  1.0000
  C   C521      1.0  0.16158  0.74584  0.51071  1.0000
  H   H915      1.0  0.19141  0.90705  0.50577  1.0000
  S   S147      1.0  0.24432  0.97975  0.58988  1.0000
  H   H916      1.0  0.43532  0.75460  0.56127  1.0000
  H   H917      1.0  0.24338  0.75622  0.58207  1.0000
  H   H918      1.0  0.17431  0.95815  0.91060  1.0000
  H   H919      1.0  0.22386  0.97936  0.85593  1.0000
  H   H920      1.0  0.39164  0.90126  0.49627  1.0000
  H   H921      1.0  0.42994  0.87067  0.50884  1.0000
  C   C522      1.0  0.11351  0.98379  0.83224  1.0000
  H   H922      1.0  0.37074  0.83909  0.50379  1.0000
  C   C523      1.0  0.33080  0.84622  0.49145  1.0000
  C   C524      1.0  0.38820  0.84034  0.50655  1.0000
  H   H923      1.0  0.67693  0.22894  0.00491  1.0000
  C   C525      1.0  0.81701  0.18272  0.02801  1.0000
  H   H924      1.0  0.64951  0.21196  0.13890  1.0000
  Fe  Fe74      1.0  0.53706  0.15857  0.09101  1.0000
  C   C526      1.0  0.50399  0.09387  0.19977  1.0000
  Fe  Fe75      1.0  0.57559  0.14245  0.07425  1.0000
  S   S148      1.0  0.56036  0.14915  0.11667  1.0000
  S   S149      1.0  0.61418  0.15305  0.05632  1.0000
  C   C527      1.0  0.49418  0.11531  0.01170  1.0000
  H   H925      1.0  0.49904  0.17424  0.98599  1.0000
  C   C528      1.0  0.48430  0.08465  0.25271  1.0000
  C   C529      1.0  0.48440  0.09621  0.19206  1.0000
  H   H926      1.0  0.83208  0.21401  0.98310  1.0000
  C   C530      1.0  0.59362  0.20462  0.06076  1.0000
  S   S150      1.0  0.55410  0.15454  0.04733  1.0000
  S   S151      1.0  0.55139  0.10920  0.08613  1.0000
  C   C531      1.0  0.79982  0.22949  0.04071  1.0000
  C   C532      1.0  0.47834  0.14830  0.16188  1.0000
  Fe  Fe76      1.0  0.70575  0.20248  0.12770  1.0000
  H   H927      1.0  0.78978  0.21721  0.08889  1.0000
  S   S152      1.0  0.67451  0.17329  0.14856  1.0000
  C   C533      1.0  0.60972  0.20332  0.08146  1.0000
  C   C534      1.0  0.64701  0.21367  0.09290  1.0000
  S   S153      1.0  0.74279  0.20661  0.12579  1.0000
  C   C535      1.0  0.63090  0.15589  0.08273  1.0000
  C   C536      1.0  0.65494  0.16460  0.07246  1.0000
  C   C537      1.0  0.66854  0.16917  0.09271  1.0000
  C   C538      1.0  0.65815  0.16513  0.12337  1.0000
  C   C539      1.0  0.63421  0.15545  0.13383  1.0000
  C   C540      1.0  0.62062  0.15086  0.11359  1.0000
  H   H928      1.0  0.66305  0.16823  0.04870  1.0000
  H   H929      1.0  0.68704  0.17592  0.08456  1.0000
  H   H930      1.0  0.62608  0.15195  0.15757  1.0000
  H   H931      1.0  0.60220  0.14355  0.12192  1.0000
  H   H932      1.0  0.62117  0.19887  0.13646  1.0000
  H   H933      1.0  0.60081  0.20484  0.10328  1.0000
  C   C541      1.0  0.49643  0.11321  0.98226  1.0000
  H   H934      1.0  0.48333  0.15308  0.13684  1.0000
  C   C542      1.0  0.80397  0.22462  0.06904  1.0000
  C   C543      1.0  0.81281  0.16119  0.99229  1.0000
  H   H935      1.0  0.58861  0.21859  0.06032  1.0000
  H   H936      1.0  0.48424  0.07994  0.27612  1.0000
  H   H937      1.0  0.82982  0.22546  0.09364  1.0000
  C   C544      1.0  0.49688  0.17132  0.06647  1.0000
  H   H938      1.0  0.49306  0.04645  0.25292  1.0000
  C   C545      1.0  0.50087  0.15005  0.17152  1.0000
  H   H939      1.0  0.80726  0.16799  0.04598  1.0000
  H   H940      1.0  0.49125  0.04133  0.06059  1.0000
  C   C546      1.0  0.50843  0.18873  0.07576  1.0000
  S   S154      1.0  0.53104  0.18853  0.09223  1.0000
  H   H941      1.0  0.69633  0.23399  0.22721  1.0000
  H   H942      1.0  0.66491  0.22507  0.08657  1.0000
  H   H943      1.0  0.78594  0.19631  0.00639  1.0000
  H   H944      1.0  0.84919  0.17553  0.02061  1.0000
  Fe  Fe77      1.0  0.74930  0.22573  0.07859  1.0000
  C   C547      1.0  0.76789  0.16356  0.02785  1.0000
  H   H945      1.0  0.50755  0.01935  0.21312  1.0000
  S   S155      1.0  0.50951  0.10442  0.03397  1.0000
  H   H946      1.0  0.81211  0.19513  0.03629  1.0000
  C   C548      1.0  0.50406  0.08849  0.23007  1.0000
  H   H947      1.0  0.76709  0.14783  0.02535  1.0000
  H   H948      1.0  0.85378  0.20326  0.01302  1.0000
  H   H949      1.0  0.77020  0.16515  0.05035  1.0000
  C   C549      1.0  0.82660  0.22919  0.07170  1.0000
  H   H950      1.0  0.52616  0.03609  0.23010  1.0000
  H   H951      1.0  0.48740  0.05180  0.09207  1.0000
  H   H952      1.0  0.78475  0.22344  0.19682  1.0000
  H   H953      1.0  0.51344  0.16628  0.16404  1.0000
  S   S156      1.0  0.50936  0.12674  0.10570  1.0000
  C   C550      1.0  0.47901  0.18364  0.16128  1.0000
  N   N41       1.0  0.63400  0.21890  0.07034  1.0000
  C   C551      1.0  0.63675  0.21306  0.12573  1.0000
  H   H954      1.0  0.63739  0.22068  0.02260  1.0000
  C   C552      1.0  0.84267  0.18749  0.02751  1.0000
  H   H955      1.0  0.64220  0.19908  0.04270  1.0000
  C   C553      1.0  0.51033  0.03343  0.22191  1.0000
  H   H956      1.0  0.84467  0.18756  0.05061  1.0000
  C   C554      1.0  0.48997  0.03091  0.24798  1.0000
  H   H957      1.0  0.49774  0.14373  0.19609  1.0000
  C   C555      1.0  0.87147  0.23293  0.15618  1.0000
  H   H958      1.0  0.49462  0.18796  0.16993  1.0000
  C   C556      1.0  0.64519  0.21598  0.04087  1.0000
  C   C557      1.0  0.49728  0.18984  0.98010  1.0000
  H   H959      1.0  0.48423  0.10022  0.16869  1.0000
  H   H960      1.0  0.50931  0.14050  0.16062  1.0000
  H   H961      1.0  0.60987  0.18705  0.08596  1.0000
  H   H962      1.0  0.60045  0.20359  0.03779  1.0000
  H   H963      1.0  0.75084  0.16475  0.02711  1.0000
  H   H964      1.0  0.50339  0.15871  0.06626  1.0000
  H   H965      1.0  0.51927  0.08677  0.23603  1.0000
  C   C558      1.0  0.50054  0.20551  0.07434  1.0000
  S   S157      1.0  0.52749  0.09497  0.17234  1.0000
  H   H966      1.0  0.51391  0.04747  0.20334  1.0000
  Fe  Fe78      1.0  0.52809  0.12193  0.06361  1.0000
  H   H967      1.0  0.50975  0.21922  0.08083  1.0000
  H   H968      1.0  0.64866  0.19825  0.09310  1.0000
  S   S158      1.0  0.71232  0.21911  0.07958  1.0000
  H   H969      1.0  0.57747  0.19095  0.07032  1.0000
  Fe  Fe79      1.0  0.53462  0.11674  0.12695  1.0000
  H   H970      1.0  0.80329  0.14743  0.01192  1.0000
  H   H971      1.0  0.49165  0.02064  0.26810  1.0000
  C   C559      1.0  0.78654  0.18120  0.00229  1.0000
  H   H972      1.0  0.90252  0.23324  0.12812  1.0000
  H   H973      1.0  0.63288  0.22736  0.12752  1.0000
  H   H974      1.0  0.48623  0.18706  0.13659  1.0000
  H   H975      1.0  0.68068  0.21886  0.04083  1.0000
  H   H976      1.0  0.49430  0.22605  0.98156  1.0000
  C   C560      1.0  0.67138  0.22775  0.02930  1.0000
  N   N42       1.0  0.81072  0.18111  0.99863  1.0000
  H   H977      1.0  0.50189  0.19744  0.99808  1.0000
  H   H978      1.0  0.78068  0.18045  0.98148  1.0000
  S   S159      1.0  0.77177  0.22399  0.03700  1.0000
  H   H979      1.0  0.86668  0.21566  0.16257  1.0000
  H   H980      1.0  0.83093  0.16189  0.98923  1.0000
  H   H981      1.0  0.47908  0.03628  0.19471  1.0000
  C   C561      1.0  0.48003  0.20405  0.06607  1.0000
  H   H982      1.0  0.48786  0.08283  0.10261  1.0000
  S   S160      1.0  0.70738  0.23099  0.14435  1.0000
  H   H983      1.0  0.82270  0.23198  0.20836  1.0000
  C   C562      1.0  0.47799  0.04176  0.07944  1.0000
  C   C563      1.0  0.47823  0.12398  0.02336  1.0000
  H   H984      1.0  0.85571  0.23600  0.15301  1.0000
  Fe  Fe80      1.0  0.74528  0.23698  0.13787  1.0000
  C   C564      1.0  0.93347  0.11811  0.81078  1.0000
  C   C565      1.0  0.77417  0.03887  0.77540  1.0000
  S   S161      1.0  0.90803  0.17041  0.58695  1.0000
  H   H985      1.0  0.76058  0.00928  0.82834  1.0000
  Fe  Fe81      1.0  0.89762  0.06605  0.68151  1.0000
  S   S162      1.0  0.90001  0.07778  0.72261  1.0000
  S   S163      1.0  0.92247  0.08583  0.63738  1.0000
  Fe  Fe82      1.0  0.86334  0.02306  0.71819  1.0000
  S   S164      1.0  0.86392  0.03113  0.76249  1.0000
  Fe  Fe83      1.0  0.86200  0.06141  0.73804  1.0000
  S   S165      1.0  0.83999  0.07833  0.75696  1.0000
  Fe  Fe84      1.0  0.90212  0.04670  0.74254  1.0000
  S   S166      1.0  0.93191  0.04776  0.76321  1.0000
  S   S167      1.0  0.85910  0.05248  0.69481  1.0000
  S   S168      1.0  0.90162  0.03574  0.70057  1.0000
  H   H986      1.0  0.94151  0.12970  0.88922  1.0000
  Fe  Fe85      1.0  0.90204  0.19305  0.80822  1.0000
  S   S169      1.0  0.91921  0.21045  0.83836  1.0000
  S   S170      1.0  0.89975  0.21028  0.76414  1.0000
  Fe  Fe86      1.0  0.88910  0.15053  0.85082  1.0000
  S   S171      1.0  0.90442  0.16416  0.88531  1.0000
  S   S172      1.0  0.87753  0.11563  0.85860  1.0000
  Fe  Fe87      1.0  0.88835  0.18826  0.87456  1.0000
  S   S173      1.0  0.87188  0.19852  0.91274  1.0000
  Fe  Fe88      1.0  0.93373  0.18496  0.84647  1.0000
  C   C566      1.0  0.87582  0.12441  0.69836  1.0000
  S   S174      1.0  0.86985  0.17257  0.84382  1.0000
  S   S175      1.0  0.91973  0.16968  0.81252  1.0000
  H   H987      1.0  0.79392  0.01607  0.70626  1.0000
  C   C567      1.0  0.96588  0.09735  0.69307  1.0000
  H   H988      1.0  0.79050  0.05204  0.76292  1.0000
  H   H989      1.0  0.87639  0.13080  0.62499  1.0000
  H   H990      1.0  0.89399  0.99307  0.70290  1.0000
  H   H991      1.0  0.72831  0.00599  0.80536  1.0000
  C   C568      1.0  0.91212  0.16949  0.66711  1.0000
  S   S176      1.0  0.97180  0.19525  0.59117  1.0000
  C   C569      1.0  0.94520  0.22110  0.90302  1.0000
  C   C570      1.0  0.97131  0.11376  0.80288  1.0000
  N   N43       1.0  0.95758  0.12611  0.81492  1.0000
  C   C571      1.0  0.75670  0.04057  0.75669  1.0000
  H   H992      1.0  0.90744  0.17691  0.72167  1.0000
  H   H993      1.0  0.80554  0.21352  0.95151  1.0000
  C   C572      1.0  0.85026  0.08876  0.78522  1.0000
  C   C573      1.0  0.84590  0.10627  0.79175  1.0000
  C   C574      1.0  0.85457  0.11491  0.81393  1.0000
  C   C575      1.0  0.86692  0.10558  0.83026  1.0000
  C   C576      1.0  0.87074  0.08777  0.82422  1.0000
  C   C577      1.0  0.86289  0.07966  0.80127  1.0000
  H   H994      1.0  0.83610  0.11333  0.77937  1.0000
  H   H995      1.0  0.85137  0.12854  0.81877  1.0000
  H   H996      1.0  0.88005  0.08037  0.83703  1.0000
  H   H997      1.0  0.86629  0.06613  0.79638  1.0000
  C   C578      1.0  0.95413  0.07009  0.73927  1.0000
  C   C579      1.0  0.77875  0.00916  0.75441  1.0000
  C   C580      1.0  0.96933  0.14925  0.80033  1.0000
  H   H998      1.0  0.90479  0.99808  0.75446  1.0000
  C   C581      1.0  0.93063  0.11014  0.78238  1.0000
  C   C582      1.0  0.95240  0.07720  0.71021  1.0000
  H   H999      1.0  0.95029  0.16309  0.64816  1.0000
  H   H1000     1.0  0.92689  0.21052  0.95160  1.0000
  H   H1001     1.0  0.92217  0.10448  0.82987  1.0000
  H   H1002     1.0  0.93969  0.06767  0.70132  1.0000
  H   H1003     1.0  0.93638  0.01236  0.70905  1.0000
  H   H1004     1.0  0.49852  0.22322  0.93080  1.0000
  H   H1005     1.0  0.76680  0.98889  0.81455  1.0000
  C   C583      1.0  0.80210  0.02277  0.78722  1.0000
  H   H1006     1.0  0.89552  0.23494  0.86217  1.0000
  C   C584      1.0  0.91165  0.14644  0.59931  1.0000
  C   C585      1.0  0.89308  0.12938  0.61873  1.0000
  C   C586      1.0  0.89620  0.11064  0.63066  1.0000
  C   C587      1.0  0.91777  0.10880  0.62251  1.0000
  C   C588      1.0  0.93605  0.12558  0.60223  1.0000
  C   C589      1.0  0.93313  0.14448  0.59099  1.0000
  C   C590      1.0  0.93779  0.00160  0.72875  1.0000
  H   H1007     1.0  0.88193  0.09758  0.64593  1.0000
  H   H1008     1.0  0.95246  0.12390  0.59532  1.0000
  H   H1009     1.0  0.94734  0.15738  0.57537  1.0000
  H   H1010     1.0  0.92794  0.18382  0.65941  1.0000
  H   H1011     1.0  0.87104  0.13360  0.68040  1.0000
  H   H1012     1.0  0.87103  0.10832  0.69519  1.0000
  H   H1013     1.0  0.76848  0.04251  0.79707  1.0000
  H   H1014     1.0  0.82090  0.16346  0.94379  1.0000
  H   H1015     1.0  0.80081  0.04532  0.81475  1.0000
  H   H1016     1.0  0.94286  0.12075  0.76123  1.0000
  H   H1017     1.0  0.93896  0.14544  0.85629  1.0000
  H   H1018     1.0  0.89312  0.18589  0.64429  1.0000
  H   H1019     1.0  0.91277  0.16176  0.64843  1.0000
  H   H1020     1.0  0.89277  0.13076  0.75743  1.0000
  C   C591      1.0  0.94119  0.22502  0.68099  1.0000
  H   H1021     1.0  0.94345  0.20468  0.76285  1.0000
  S   S177      1.0  0.93808  0.22193  0.60463  1.0000
  H   H1022     1.0  0.94815  0.21256  0.88572  1.0000
  H   H1023     1.0  0.92055  0.11835  0.87070  1.0000
  H   H1024     1.0  0.97334  0.11606  0.77847  1.0000
  H   H1025     1.0  0.86550  0.12260  0.72121  1.0000
  C   C592      1.0  0.73638  0.99390  0.80640  1.0000
  H   H1026     1.0  0.95197  0.10581  0.85904  1.0000
  H   H1027     1.0  0.88076  0.21986  0.95868  1.0000
  H   H1028     1.0  0.88895  0.15190  0.77159  1.0000
  H   H1029     1.0  0.97298  0.13124  0.85204  1.0000
  S   S178      1.0  0.95935  0.22212  0.53443  1.0000
  C   C593      1.0  0.93176  0.20399  0.93258  1.0000
  H   H1030     1.0  0.97061  0.16398  0.67016  1.0000
  H   H1031     1.0  0.94128  0.19353  0.93876  1.0000
  N   N44       1.0  0.77867  0.01853  0.78103  1.0000
  H   H1032     1.0  0.81570  0.03452  0.76791  1.0000
  H   H1033     1.0  0.88143  0.15698  0.72344  1.0000
  C   C594      1.0  0.88674  0.22483  0.91055  1.0000
  H   H1034     1.0  0.74802  0.05108  0.76433  1.0000
  H   H1035     1.0  0.90452  0.12246  0.71544  1.0000
  H   H1036     1.0  0.97551  0.20867  0.72017  1.0000
  C   C595      1.0  0.88871  0.23105  0.93702  1.0000
  H   H1037     1.0  0.93797  0.14899  0.71735  1.0000
  Fe  Fe89      1.0  0.94023  0.19828  0.57864  1.0000
  C   C596      1.0  0.94265  0.21019  0.74010  1.0000
  C   C597      1.0  0.76141  0.00265  0.80847  1.0000
  C   C598      1.0  0.81927  0.20693  0.94608  1.0000
  H   H1038     1.0  0.50976  0.19873  0.95817  1.0000
  Fe  Fe90      1.0  0.97154  0.22109  0.61322  1.0000
  H   H1039     1.0  0.91306  0.10812  0.77968  1.0000
  H   H1040     1.0  0.94689  0.01173  0.74177  1.0000
  H   H1041     1.0  0.95608  0.15407  0.76037  1.0000
  H   H1042     1.0  0.94479  0.17567  0.69864  1.0000
  H   H1043     1.0  0.82379  0.03563  0.81515  1.0000
  C   C599      1.0  0.97274  0.15646  0.76614  1.0000
  H   H1044     1.0  0.81353  0.19436  0.93484  1.0000
  H   H1045     1.0  0.79561  0.01891  0.83640  1.0000
  H   H1046     1.0  0.92532  0.13017  0.81127  1.0000
  H   H1047     1.0  0.80110  0.13840  0.96717  1.0000
  H   H1048     1.0  0.87496  0.16579  0.67672  1.0000
  H   H1049     1.0  0.91040  0.12933  0.67552  1.0000
  C   C600      1.0  0.95239  0.15620  0.67027  1.0000
  H   H1050     1.0  0.83403  0.21969  0.92937  1.0000
  H   H1051     1.0  0.74296  0.02571  0.75851  1.0000
  C   C601      1.0  0.89998  0.14792  0.75398  1.0000
  H   H1052     1.0  0.93232  0.09450  0.78487  1.0000
  C   C602      1.0  0.92341  0.21463  0.73458  1.0000
  H   H1053     1.0  0.76579  0.04836  0.73265  1.0000
  C   C603      1.0  0.89219  0.17802  0.66769  1.0000
  C   C604      1.0  0.92282  0.22229  0.70504  1.0000
  C   C605      1.0  0.96002  0.21981  0.68640  1.0000
  H   H1054     1.0  0.89383  0.18999  0.68070  1.0000
  C   C606      1.0  0.80533  0.03109  0.81511  1.0000
  C   C607      1.0  0.93823  0.12956  0.86671  1.0000
  H   H1055     1.0  0.81451  0.02014  0.72791  1.0000
  N   N45       1.0  0.91209  0.15517  0.69589  1.0000
  C   C608      1.0  0.93675  0.15938  0.69707  1.0000
  C   C609      1.0  0.89982  0.16000  0.72294  1.0000
  H   H1056     1.0  0.91737  0.15264  0.75791  1.0000
  C   C610      1.0  0.90173  0.13250  0.69611  1.0000
  H   H1057     1.0  0.91543  0.19399  0.92917  1.0000
  H   H1058     1.0  0.78028  0.99352  0.76040  1.0000
  H   H1059     1.0  0.96186  0.09667  0.81305  1.0000
  H   H1060     1.0  0.76235  0.00602  0.74777  1.0000
  H   H1061     1.0  0.84362  0.19740  0.96641  1.0000
  C   C611      1.0  0.95612  0.12269  0.84820  1.0000
  C   C612      1.0  0.96095  0.21276  0.71599  1.0000
  H   H1062     1.0  0.49055  0.10668  0.87441  1.0000
  H   H1063     1.0  0.79094  0.15914  0.95977  1.0000
  H   H1064     1.0  0.93336  0.22903  0.89646  1.0000
  H   H1065     1.0  0.80662  0.00842  0.78985  1.0000
  C   C613      1.0  0.79804  0.02207  0.72575  1.0000
  S   S179      1.0  0.84314  0.99190  0.71186  1.0000
  H   H1066     1.0  0.80034  0.03892  0.72053  1.0000
  C   C614      1.0  0.97173  0.08231  0.74969  1.0000
  H   H1067     1.0  0.96270  0.10319  0.67178  1.0000
  S   S180      1.0  0.96920  0.18889  0.85201  1.0000
  H   H1068     1.0  0.90805  0.22593  0.70070  1.0000
  H   H1069     1.0  0.94941  0.13932  0.67247  1.0000
  H   H1070     1.0  0.95978  0.15833  0.81038  1.0000
  C   C615      1.0  0.80613  0.15559  0.96401  1.0000
  C   C616      1.0  0.82729  0.19995  0.97422  1.0000
  H   H1071     1.0  0.97049  0.21502  0.79571  1.0000
  H   H1072     1.0  0.94878  0.99289  0.72131  1.0000
  H   H1073     1.0  0.97336  0.07674  0.77207  1.0000
  H   H1074     1.0  0.94078  0.23126  0.65835  1.0000
  N   N46       1.0  0.96743  0.23701  0.90381  1.0000
  C   C617      1.0  0.48332  0.12003  0.96433  1.0000
  H   H1075     1.0  0.48594  0.11897  0.94132  1.0000
  C   C618      1.0  0.48002  0.21435  0.93330  1.0000
  H   H1076     1.0  0.96562  0.23569  0.84165  1.0000
  H   H1077     1.0  0.50865  0.10651  0.97311  1.0000
  H   H1078     1.0  0.47987  0.20109  0.92298  1.0000
  H   H1079     1.0  0.97557  0.08797  0.62423  1.0000
  H   H1080     1.0  0.47772  0.12411  0.85911  1.0000
  H   H1081     1.0  0.96285  0.23664  0.95122  1.0000
  Fe  Fe91      1.0  0.88044  0.34285  0.21807  1.0000
  S   S181      1.0  0.88252  0.31277  0.24215  1.0000
  S   S182      1.0  0.86038  0.35739  0.24659  1.0000
  Fe  Fe92      1.0  0.91395  0.34506  0.16128  1.0000
  S   S183      1.0  0.91907  0.31543  0.18138  1.0000
  S   S184      1.0  0.93034  0.36409  0.11347  1.0000
  Fe  Fe93      1.0  0.88059  0.30320  0.19914  1.0000
  S   S185      1.0  0.85921  0.27040  0.19914  1.0000
  Fe  Fe94      1.0  0.92061  0.32810  0.22215  1.0000
  S   S186      1.0  0.94319  0.32493  0.25394  1.0000
  S   S187      1.0  0.87529  0.33206  0.17666  1.0000
  S   S188      1.0  0.91860  0.35882  0.20044  1.0000
  H   H1082     1.0  0.88668  0.37905  0.04856  1.0000
  S   S189      1.0  0.90829  0.30319  0.03144  1.0000
  H   H1083     1.0  0.94592  0.39622  0.29602  1.0000
  C   C619      1.0  0.59977  0.40925  0.08864  1.0000
  C   C620      1.0  0.93425  0.43340  0.06609  1.0000
  C   C621      1.0  0.60003  0.45271  0.02226  1.0000
  H   H1084     1.0  0.58189  0.45079  0.02216  1.0000
  C   C622      1.0  0.50126  0.45738  0.16237  1.0000
  H   H1085     1.0  0.58766  0.42587  0.21970  1.0000
  S   S190      1.0  0.57009  0.40668  0.14147  1.0000
  H   H1086     1.0  0.74908  0.24644  0.28481  1.0000
  C   C623      1.0  0.89535  0.30023  0.11051  1.0000
  Fe  Fe95      1.0  0.69026  0.46176  0.06688  1.0000
  H   H1087     1.0  0.82390  0.31377  0.04697  1.0000
  S   S191      1.0  0.66887  0.43357  0.05468  1.0000
  H   H1088     1.0  0.69434  0.30691  0.19708  1.0000
  N   N47       1.0  0.58030  0.45451  0.21063  1.0000
  H   H1089     1.0  0.91828  0.38917  0.00881  1.0000
  S   S192      1.0  0.50599  0.39763  0.14815  1.0000
  S   S193      1.0  0.69713  0.26773  0.07837  1.0000
  C   C624      1.0  0.89531  0.32564  0.32092  1.0000
  Fe  Fe96      1.0  0.78962  0.38777  0.14962  1.0000
  S   S194      1.0  0.82016  0.39435  0.11190  1.0000
  S   S195      1.0  0.79438  0.39731  0.19176  1.0000
  Fe  Fe97      1.0  0.75636  0.36623  0.11649  1.0000
  S   S196      1.0  0.78411  0.37072  0.07576  1.0000
  S   S197      1.0  0.71908  0.35124  0.11909  1.0000
  Fe  Fe98      1.0  0.80250  0.36170  0.10970  1.0000
  S   S198      1.0  0.82077  0.33895  0.11006  1.0000
  Fe  Fe99      1.0  0.79893  0.40290  0.08195  1.0000
  S   S199      1.0  0.81671  0.43147  0.04362  1.0000
  S   S200      1.0  0.77340  0.35429  0.15007  1.0000
  S   S201      1.0  0.76957  0.39921  0.12007  1.0000
  C   C625      1.0  0.70448  0.29231  0.08584  1.0000
  C   C626      1.0  0.68752  0.30118  0.09109  1.0000
  C   C627      1.0  0.69233  0.31977  0.10028  1.0000
  C   C628      1.0  0.71426  0.32971  0.10362  1.0000
  C   C629      1.0  0.73163  0.32151  0.09660  1.0000
  C   C630      1.0  0.72667  0.30264  0.08806  1.0000
  H   H1090     1.0  0.67037  0.29323  0.08924  1.0000
  H   H1091     1.0  0.67890  0.32612  0.10559  1.0000
  H   H1092     1.0  0.74863  0.32920  0.09898  1.0000
  H   H1093     1.0  0.73987  0.29591  0.08366  1.0000
  C   C631      1.0  0.80460  0.45075  0.04683  1.0000
  C   C632      1.0  0.78150  0.44513  0.06183  1.0000
  C   C633      1.0  0.77195  0.46059  0.06514  1.0000
  H   H1094     1.0  0.96623  0.36640  0.21265  1.0000
  C   C634      1.0  0.91467  0.27238  0.14366  1.0000
  H   H1095     1.0  0.88981  0.37961  0.13201  1.0000
  C   C635      1.0  0.81859  0.28105  0.06034  1.0000
  H   H1096     1.0  0.88301  0.23825  0.10827  1.0000
  H   H1097     1.0  0.93823  0.40160  0.02858  1.0000
  C   C636      1.0  0.59726  0.41300  0.11722  1.0000
  H   H1098     1.0  0.87155  0.27023  0.13465  1.0000
  C   C637      1.0  0.62189  0.41477  0.06972  1.0000
  C   C638      1.0  0.64134  0.42463  0.07909  1.0000
  C   C639      1.0  0.63874  0.42825  0.10766  1.0000
  C   C640      1.0  0.61677  0.42213  0.12682  1.0000
  S   S202      1.0  0.48898  0.44734  0.13518  1.0000
  C   C641      1.0  0.91435  0.41344  0.08558  1.0000
  H   H1099     1.0  0.65368  0.43570  0.11514  1.0000
  H   H1100     1.0  0.61487  0.42474  0.14896  1.0000
  C   C642      1.0  0.87682  0.37337  0.11985  1.0000
  H   H1101     1.0  0.50604  0.31094  0.08260  1.0000
  C   C643      1.0  0.69731  0.24979  0.22987  1.0000
  C   C644      1.0  0.48788  0.32878  0.10270  1.0000
  C   C645      1.0  0.87033  0.34524  0.02212  1.0000
  C   C646      1.0  0.85582  0.35700  0.02227  1.0000
  C   C647      1.0  0.84083  0.35570  0.04936  1.0000
  C   C648      1.0  0.84046  0.34264  0.07626  1.0000
  C   C649      1.0  0.85540  0.33147  0.07621  1.0000
  C   C650      1.0  0.87032  0.33281  0.04927  1.0000
  H   H1102     1.0  0.85592  0.36684  0.00136  1.0000
  H   H1103     1.0  0.82932  0.36443  0.04931  1.0000
  H   H1104     1.0  0.85506  0.32143  0.09707  1.0000
  H   H1105     1.0  0.88168  0.32411  0.04967  1.0000
  C   C651      1.0  0.94315  0.35133  0.09033  1.0000
  C   C652      1.0  0.95382  0.33769  0.10153  1.0000
  C   C653      1.0  0.96339  0.32732  0.08259  1.0000
  C   C654      1.0  0.96175  0.33023  0.05272  1.0000
  C   C655      1.0  0.65660  0.47878  0.00476  1.0000
  H   H1106     1.0  0.85381  0.40350  0.05119  1.0000
  H   H1107     1.0  0.95497  0.33535  0.12460  1.0000
  H   H1108     1.0  0.91610  0.39962  0.26925  1.0000
  C   C656      1.0  0.87096  0.41280  0.03572  1.0000
  C   C657      1.0  0.92258  0.39009  0.25585  1.0000
  C   C658      1.0  0.84336  0.36946  0.22991  1.0000
  C   C659      1.0  0.83904  0.36680  0.20239  1.0000
  C   C660      1.0  0.82401  0.37532  0.19058  1.0000
  C   C661      1.0  0.81359  0.38688  0.20600  1.0000
  C   C662      1.0  0.81822  0.38979  0.23332  1.0000
  C   C663      1.0  0.83296  0.38099  0.24533  1.0000
  H   H1109     1.0  0.84678  0.35769  0.19063  1.0000
  H   H1110     1.0  0.82029  0.37265  0.16975  1.0000
  H   H1111     1.0  0.81020  0.39864  0.24538  1.0000
  H   H1112     1.0  0.83617  0.38302  0.26671  1.0000
  C   C664      1.0  0.83446  0.26462  0.18510  1.0000
  C   C665      1.0  0.82921  0.28007  0.16698  1.0000
  C   C666      1.0  0.80777  0.27505  0.15978  1.0000
  H   H1113     1.0  0.71518  0.28829  0.24567  1.0000
  S   S203      1.0  0.53861  0.42691  0.01092  1.0000
  H   H1114     1.0  0.75919  0.47477  0.12066  1.0000
  H   H1115     1.0  0.84129  0.29598  0.15935  1.0000
  H   H1116     1.0  0.80334  0.28729  0.14712  1.0000
  H   H1117     1.0  0.92854  0.44707  0.06274  1.0000
  C   C667      1.0  0.79147  0.25463  0.17080  1.0000
  H   H1118     1.0  0.86810  0.40089  0.10912  1.0000
  H   H1119     1.0  0.53489  0.46111  0.03698  1.0000
  H   H1120     1.0  0.78778  0.32621  0.04387  1.0000
  H   H1121     1.0  0.62389  0.41183  0.04767  1.0000
  H   H1122     1.0  0.84667  0.30758  0.00494  1.0000
  H   H1123     1.0  0.68744  0.40472  0.02876  1.0000
  H   H1124     1.0  0.55344  0.44243  0.16943  1.0000
  C   C668      1.0  0.95134  0.34400  0.04158  1.0000
  H   H1125     1.0  0.88132  0.30598  0.10679  1.0000
  H   H1126     1.0  0.54793  0.43115  0.23812  1.0000
  C   C669      1.0  0.54619  0.43251  0.19271  1.0000
  C   C670      1.0  0.81879  0.24402  0.19438  1.0000
  H   H1127     1.0  0.58846  0.43500  0.18193  1.0000
  C   C671      1.0  0.61949  0.45041  0.19336  1.0000
  Fe  Fe100     1.0  0.50531  0.42611  0.11753  1.0000
  C   C672      1.0  0.88664  0.27626  0.11490  1.0000
  H   H1128     1.0  0.77101  0.42884  0.07052  1.0000
  C   C673      1.0  0.59054  0.47594  0.15459  1.0000
  C   C674      1.0  0.53844  0.45189  0.99534  1.0000
  H   H1129     1.0  0.51584  0.36205  0.99942  1.0000
  C   C675      1.0  0.48127  0.39019  0.00166  1.0000
  H   H1130     1.0  0.52721  0.42820  0.19731  1.0000
  H   H1131     1.0  0.93207  0.33960  0.30652  1.0000
  H   H1132     1.0  0.76639  0.43874  0.12705  1.0000
  H   H1133     1.0  0.89977  0.30463  0.13081  1.0000
  C   C676      1.0  0.94240  0.35473  0.06017  1.0000
  C   C677      1.0  0.94170  0.26411  0.08880  1.0000
  H   H1134     1.0  0.72993  0.41381  0.16158  1.0000
  H   H1135     1.0  0.97140  0.31661  0.09129  1.0000
  H   H1136     1.0  0.95001  0.34630  0.01855  1.0000
  H   H1137     1.0  0.88078  0.32545  0.33840  1.0000
  C   C678      1.0  0.57143  0.47001  0.25582  1.0000
  H   H1138     1.0  0.80487  0.44124  0.12501  1.0000
  S   S204      1.0  0.53030  0.38722  0.08695  1.0000
  Fe  Fe101     1.0  0.94321  0.30780  0.00438  1.0000
  H   H1139     1.0  0.78275  0.33820  0.01007  1.0000
  H   H1140     1.0  0.58159  0.44315  0.25660  1.0000
  H   H1141     1.0  0.91954  0.34100  0.34280  1.0000
  H   H1142     1.0  0.91012  0.30884  0.09079  1.0000
  S   S205      1.0  0.70936  0.46354  0.10310  1.0000
  N   N48       1.0  0.79371  0.29390  0.24597  1.0000
  C   C679      1.0  0.81325  0.28580  0.24051  1.0000
  C   C680      1.0  0.78611  0.29734  0.21726  1.0000
  C   C681      1.0  0.77360  0.27841  0.27060  1.0000
  C   C682      1.0  0.80197  0.31393  0.25533  1.0000
  C   C683      1.0  0.82202  0.27924  0.26813  1.0000
  C   C684      1.0  0.80215  0.31671  0.19197  1.0000
  C   C685      1.0  0.76429  0.25623  0.26591  1.0000
  C   C686      1.0  0.78438  0.32503  0.26071  1.0000
  H   H1143     1.0  0.80843  0.27207  0.23098  1.0000
  H   H1144     1.0  0.82844  0.29769  0.22325  1.0000
  H   H1145     1.0  0.76868  0.29842  0.22142  1.0000
  H   H1146     1.0  0.78419  0.28361  0.20766  1.0000
  H   H1147     1.0  0.77782  0.27693  0.29281  1.0000
  H   H1148     1.0  0.75888  0.28410  0.27334  1.0000
  H   H1149     1.0  0.80709  0.31110  0.27680  1.0000
  H   H1150     1.0  0.81817  0.32523  0.23922  1.0000
  H   H1151     1.0  0.83575  0.27294  0.26107  1.0000
  H   H1152     1.0  0.82994  0.29270  0.27695  1.0000
  H   H1153     1.0  0.80848  0.26656  0.28633  1.0000
  H   H1154     1.0  0.79606  0.31628  0.17124  1.0000
  H   H1155     1.0  0.80174  0.33141  0.19753  1.0000
  H   H1156     1.0  0.82013  0.31716  0.18642  1.0000
  H   H1157     1.0  0.76836  0.31074  0.02557  1.0000
  H   H1158     1.0  0.76183  0.46302  0.22792  1.0000
  C   C687      1.0  0.90187  0.38949  0.05366  1.0000
  H   H1159     1.0  0.77442  0.31972  0.28465  1.0000
  H   H1160     1.0  0.77218  0.32270  0.24638  1.0000
  H   H1161     1.0  0.79364  0.34219  0.25491  1.0000
  H   H1162     1.0  0.54550  0.45453  0.21896  1.0000
  H   H1163     1.0  0.74279  0.45472  0.02190  1.0000
  Fe  Fe102     1.0  0.54157  0.40631  0.11890  1.0000
  H   H1164     1.0  0.89105  0.32619  0.29894  1.0000
  N   N49       1.0  0.71237  0.40060  0.05309  1.0000
  C   C688      1.0  0.69402  0.39040  0.08250  1.0000
  H   H1165     1.0  0.65284  0.46731  0.99128  1.0000
  C   C689      1.0  0.72260  0.42366  0.05096  1.0000
  C   C690      1.0  0.73034  0.39050  0.05348  1.0000
  C   C691      1.0  0.70069  0.39620  0.11084  1.0000
  S   S206      1.0  0.67158  0.48236  0.08081  1.0000
  C   C692      1.0  0.63435  0.24097  0.06822  1.0000
  C   C693      1.0  0.75041  0.39764  0.02509  1.0000
  H   H1166     1.0  0.92115  0.41469  0.01142  1.0000
  Fe  Fe103     1.0  0.89639  0.27470  0.01497  1.0000
  C   C694      1.0  0.73318  0.30271  0.17172  1.0000
  H   H1167     1.0  0.55269  0.46094  0.26334  1.0000
  C   C695      1.0  0.81138  0.29906  0.04568  1.0000
  H   H1168     1.0  0.73508  0.42630  0.06484  1.0000
  H   H1169     1.0  0.73860  0.39328  0.07209  1.0000
  H   H1170     1.0  0.72254  0.37315  0.05913  1.0000
  C   C696      1.0  0.53794  0.48612  0.99959  1.0000
  C   C697      1.0  0.78469  0.28059  0.98317  1.0000
  S   S207      1.0  0.75443  0.25643  0.09038  1.0000
  H   H1171     1.0  0.86007  0.36523  0.13686  1.0000
  Fe  Fe104     1.0  0.90393  0.32084  0.98927  1.0000
  Fe  Fe105     1.0  0.71653  0.24791  0.09576  1.0000
  C   C698      1.0  0.83221  0.30109  0.99491  1.0000
  C   C699      1.0  0.69804  0.27948  0.16482  1.0000
  H   H1172     1.0  0.90155  0.27379  0.16172  1.0000
  H   H1173     1.0  0.76457  0.41164  0.02577  1.0000
  H   H1174     1.0  0.82104  0.28285  0.08276  1.0000
  H   H1175     1.0  0.75729  0.38481  0.02400  1.0000
  H   H1176     1.0  0.70159  0.36602  0.02568  1.0000
  S   S208      1.0  0.87317  0.24535  0.04974  1.0000
  C   C700      1.0  0.69728  0.29305  0.20966  1.0000
  H   H1177     1.0  0.95305  0.27126  0.10238  1.0000
  C   C701      1.0  0.71636  0.26652  0.20336  1.0000
  C   C702      1.0  0.70812  0.29967  0.23496  1.0000
  H   H1178     1.0  0.76901  0.42820  0.16345  1.0000
  N   N50       1.0  0.77465  0.46144  0.15290  1.0000
  Fe  Fe106     1.0  0.49452  0.38110  0.11385  1.0000
  H   H1179     1.0  0.63093  0.26822  0.04081  1.0000
  H   H1180     1.0  0.48065  0.34665  0.05135  1.0000
  H   H1181     1.0  0.94145  0.39788  0.24626  1.0000
  H   H1182     1.0  0.70193  0.25059  0.25152  1.0000
  H   H1183     1.0  0.73168  0.27211  0.21231  1.0000
  H   H1184     1.0  0.72176  0.31541  0.22660  1.0000
  H   H1185     1.0  0.67983  0.25028  0.23187  1.0000
  H   H1186     1.0  0.83178  0.28497  0.99482  1.0000
  H   H1187     1.0  0.61438  0.47553  0.08669  1.0000
  H   H1188     1.0  0.93614  0.24684  0.09548  1.0000
  H   H1189     1.0  0.95544  0.36284  0.33928  1.0000
  H   H1190     1.0  0.67667  0.24620  0.18453  1.0000
  H   H1191     1.0  0.72823  0.43851  0.14598  1.0000
  C   C703      1.0  0.48855  0.36277  0.03661  1.0000
  N   N51       1.0  0.91966  0.36535  0.30605  1.0000
  C   C704      1.0  0.91685  0.36748  0.27442  1.0000
  C   C705      1.0  0.90263  0.37161  0.32595  1.0000
  H   H1192     1.0  0.76081  0.28987  0.16546  1.0000
  C   C706      1.0  0.87863  0.36739  0.31970  1.0000
  C   C707      1.0  0.52379  0.47178  0.15434  1.0000
  H   H1193     1.0  0.89917  0.35836  0.27401  1.0000
  H   H1194     1.0  0.92796  0.36064  0.26156  1.0000
  H   H1195     1.0  0.89988  0.36378  0.35007  1.0000
  H   H1196     1.0  0.90948  0.38866  0.32453  1.0000
  H   H1197     1.0  0.82973  0.46415  0.11584  1.0000
  H   H1198     1.0  0.80498  0.26564  0.06440  1.0000
  H   H1199     1.0  0.70208  0.41251  0.11082  1.0000
  H   H1200     1.0  0.89755  0.31035  0.32783  1.0000
  H   H1201     1.0  0.87941  0.37801  0.29835  1.0000
  H   H1202     1.0  0.86721  0.37048  0.33794  1.0000
  H   H1203     1.0  0.87016  0.35110  0.31895  1.0000
  H   H1204     1.0  0.58470  0.40196  0.08127  1.0000
  C   C708      1.0  0.91774  0.34317  0.31932  1.0000
  C   C709      1.0  0.88943  0.42054  0.05261  1.0000
  S   S209      1.0  0.54190  0.43645  0.09113  1.0000
  S   S210      1.0  0.93171  0.27766  0.99122  1.0000
  C   C710      1.0  0.59300  0.44055  0.20148  1.0000
  C   C711      1.0  0.55471  0.44347  0.21638  1.0000
  H   H1205     1.0  0.71684  0.39393  0.11369  1.0000
  H   H1206     1.0  0.54967  0.41769  0.19436  1.0000
  C   C712      1.0  0.89092  0.24229  0.12680  1.0000
  H   H1207     1.0  0.52514  0.38210  0.01874  1.0000
  C   C713      1.0  0.51875  0.47676  0.20486  1.0000
  H   H1208     1.0  0.50303  0.33941  0.10648  1.0000
  H   H1209     1.0  0.51941  0.35500  0.03575  1.0000
  H   H1210     1.0  0.92988  0.24685  0.14794  1.0000
  H   H1211     1.0  0.71290  0.40512  0.00553  1.0000
  H   H1212     1.0  0.81501  0.24272  0.99314  1.0000
  Fe  Fe107     1.0  0.52759  0.41682  0.06146  1.0000
  H   H1213     1.0  0.95656  0.37673  0.28698  1.0000
  H   H1214     1.0  0.72933  0.43138  0.18472  1.0000
  H   H1215     1.0  0.59308  0.45182  0.08484  1.0000
  H   H1216     1.0  0.76481  0.31185  0.13617  1.0000
  C   C714      1.0  0.63300  0.25332  0.03797  1.0000
  H   H1217     1.0  0.85503  0.25086  0.99791  1.0000
  H   H1218     1.0  0.59395  0.46248  0.14817  1.0000
  H   H1219     1.0  0.79323  0.26727  0.02232  1.0000
  H   H1220     1.0  0.62705  0.43887  0.18702  1.0000
  C   C715      1.0  0.53678  0.46582  0.01304  1.0000
  H   H1221     1.0  0.48602  0.45785  0.23579  1.0000
  H   H1222     1.0  0.87594  0.40374  0.02023  1.0000
  S   S211      1.0  0.88758  0.34570  0.98780  1.0000
  H   H1223     1.0  0.90723  0.41777  0.10606  1.0000
  H   H1224     1.0  0.91477  0.24942  0.18286  1.0000
  H   H1225     1.0  0.74966  0.43813  0.22003  1.0000
  H   H1226     1.0  0.72145  0.25833  0.18649  1.0000
  C   C716      1.0  0.58507  0.45825  0.24005  1.0000
  H   H1227     1.0  0.72144  0.44001  0.00652  1.0000
  H   H1228     1.0  0.94208  0.43166  0.04406  1.0000
  H   H1229     1.0  0.60350  0.46760  0.23688  1.0000
  C   C717      1.0  0.96681  0.34676  0.25367  1.0000
  H   H1230     1.0  0.72974  0.31571  0.15782  1.0000
  H   H1231     1.0  0.69472  0.30090  0.25280  1.0000
  H   H1232     1.0  0.96797  0.39057  0.33014  1.0000
  C   C718      1.0  0.73603  0.43059  0.16165  1.0000
  H   H1233     1.0  0.67668  0.24377  0.03259  1.0000
  H   H1234     1.0  0.63374  0.46138  0.04834  1.0000
  C   C719      1.0  0.97433  0.36542  0.23106  1.0000
  N   N52       1.0  0.80967  0.30062  0.01363  1.0000
  H   H1235     1.0  0.88340  0.42991  0.06700  1.0000
  H   H1236     1.0  0.59802  0.44119  0.04338  1.0000
  H   H1237     1.0  0.77708  0.24830  0.26596  1.0000
  H   H1238     1.0  0.75423  0.45633  0.07725  1.0000
  C   C720      1.0  0.92145  0.27204  0.08966  1.0000
  H   H1239     1.0  0.48976  0.37274  0.05271  1.0000
  C   C721      1.0  0.68914  0.37428  0.02795  1.0000
  H   H1240     1.0  0.75857  0.25634  0.24484  1.0000
  H   H1241     1.0  0.77395  0.28084  0.02911  1.0000
  N   N53       1.0  0.89545  0.40380  0.07132  1.0000
  H   H1242     1.0  0.83611  0.47632  0.02331  1.0000
  C   C722      1.0  0.92578  0.25805  0.15983  1.0000
  C   C723      1.0  0.48764  0.45253  0.19166  1.0000
  H   H1243     1.0  0.92954  0.28926  0.08175  1.0000
  H   H1244     1.0  0.66198  0.26421  0.19249  1.0000
  C   C724      1.0  0.76253  0.43952  0.15090  1.0000
  H   H1245     1.0  0.81571  0.45133  0.15455  1.0000
  H   H1246     1.0  0.82086  0.33434  0.00070  1.0000
  C   C725      1.0  0.87427  0.39075  0.09642  1.0000
  H   H1247     1.0  0.74489  0.28697  0.13743  1.0000
  H   H1248     1.0  0.68168  0.37392  0.00822  1.0000
  H   H1249     1.0  0.65031  0.25085  0.07275  1.0000
  H   H1250     1.0  0.93884  0.37816  0.35252  1.0000
  C   C726      1.0  0.94377  0.37945  0.30400  1.0000
  H   H1251     1.0  0.67470  0.36559  0.04821  1.0000
  C   C727      1.0  0.59791  0.46899  0.08067  1.0000
  H   H1252     1.0  0.68840  0.37303  0.08745  1.0000
  H   H1253     1.0  0.85994  0.38266  0.08739  1.0000
  H   H1254     1.0  0.92228  0.40191  0.09364  1.0000
  H   H1255     1.0  0.94804  0.43705  0.07810  1.0000
  C   C728      1.0  0.70080  0.39728  0.02802  1.0000
  N   N54       1.0  0.71091  0.28488  0.18812  1.0000
  H   H1256     1.0  0.90753  0.37830  0.06767  1.0000
  H   H1257     1.0  0.62608  0.46426  0.17374  1.0000
  H   H1258     1.0  0.91312  0.26702  0.07192  1.0000
  C   C729      1.0  0.67472  0.26133  0.17580  1.0000
  H   H1259     1.0  0.53424  0.47578  0.13155  1.0000
  H   H1260     1.0  0.64911  0.25764  0.02019  1.0000
  C   C730      1.0  0.75160  0.29727  0.15156  1.0000
  S   S212      1.0  0.76215  0.25009  0.17237  1.0000
  H   H1261     1.0  0.79475  0.29715  0.06093  1.0000
  C   C731      1.0  0.92109  0.39962  0.02419  1.0000
  H   H1262     1.0  0.90460  0.43207  0.03519  1.0000
  C   C732      1.0  0.48955  0.31269  0.08921  1.0000
  C   C733      1.0  0.79000  0.28174  0.01369  1.0000
  H   H1263     1.0  0.67830  0.39433  0.08121  1.0000
  H   H1264     1.0  0.74325  0.46088  0.20414  1.0000
  H   H1265     1.0  0.86890  0.42657  0.02175  1.0000
  H   H1266     1.0  0.62618  0.45472  0.21244  1.0000
  H   H1267     1.0  0.68688  0.38587  0.13107  1.0000
  C   C734      1.0  0.63598  0.47562  0.03083  1.0000
  N   N55       1.0  0.90377  0.26556  0.11936  1.0000
  C   C735      1.0  0.49655  0.46186  0.21304  1.0000
  C   C736      1.0  0.84084  0.24385  0.01780  1.0000
  H   H1268     1.0  0.70925  0.42952  0.06087  1.0000
  S   S213      1.0  0.67646  0.48693  0.16061  1.0000
  H   H1269     1.0  0.92796  0.28838  0.13447  1.0000
  H   H1270     1.0  0.66736  0.25964  0.15615  1.0000
  H   H1271     1.0  0.74206  0.30971  0.18769  1.0000
  C   C737      1.0  0.78480  0.32374  0.02194  1.0000
  C   C738      1.0  0.84502  0.23904  0.04611  1.0000
  N   N56       1.0  0.61345  0.47451  0.02332  1.0000
  H   H1272     1.0  0.95247  0.26926  0.06525  1.0000
  H   H1273     1.0  0.62196  0.43678  0.00299  1.0000
  C   C739      1.0  0.79809  0.46993  0.13080  1.0000
  H   H1274     1.0  0.94223  0.26800  0.16304  1.0000
  H   H1275     1.0  0.67975  0.28164  0.22070  1.0000
  C   C740      1.0  0.81263  0.45564  0.13206  1.0000
  H   H1276     1.0  0.69477  0.29338  0.15323  1.0000
  H   H1277     1.0  0.83506  0.28097  0.04730  1.0000
  C   C741      1.0  0.95161  0.37743  0.33344  1.0000
  H   H1278     1.0  0.70834  0.27517  0.14695  1.0000
  H   H1279     1.0  0.87958  0.27283  0.09547  1.0000
  S   S214      1.0  0.49087  0.40906  0.08538  1.0000
  C   C742      1.0  0.53240  0.48173  0.17550  1.0000
  H   H1280     1.0  0.93439  0.36521  0.05115  1.0000
  H   H1281     1.0  0.91450  0.38978  0.23665  1.0000
  H   H1282     1.0  0.88075  0.36122  0.10981  1.0000
  C   C743      1.0  0.81821  0.47189  0.03495  1.0000
  C   C744      1.0  0.76159  0.47538  0.14350  1.0000
  C   C745      1.0  0.81823  0.23900  0.01508  1.0000
  H   H1283     1.0  0.97667  0.33094  0.47504  1.0000
  C   C746      1.0  0.80543  0.32060  0.00252  1.0000
  H   H1284     1.0  0.74784  0.43469  0.00614  1.0000
  C   C747      1.0  0.79733  0.23910  0.18759  1.0000
  C   C748      1.0  0.58830  0.47553  0.18814  1.0000
  H   H1285     1.0  0.50345  0.48693  0.08874  1.0000
  H   H1286     1.0  0.78704  0.45018  0.19043  1.0000
  H   H1287     1.0  0.79651  0.47353  0.10728  1.0000
  H   H1288     1.0  0.60514  0.48581  0.18972  1.0000
  C   C749      1.0  0.75687  0.45533  0.21012  1.0000
  H   H1289     1.0  0.74385  0.46994  0.15796  1.0000
  S   S215      1.0  0.97004  0.31497  0.03012  1.0000
  C   C750      1.0  0.51357  0.36589  0.02135  1.0000
  H   H1290     1.0  0.74528  0.40073  0.00386  1.0000
  H   H1291     1.0  0.61831  0.24490  0.02997  1.0000
  C   C751      1.0  0.73432  0.43878  0.01938  1.0000
  C   C752      1.0  0.77834  0.46139  0.18386  1.0000
  C   C753      1.0  0.60982  0.44438  0.99656  1.0000
  H   H1292     1.0  0.57670  0.48425  0.19379  1.0000
  C   C754      1.0  0.78564  0.48169  0.05369  1.0000
  H   H1293     1.0  0.58457  0.47204  0.09627  1.0000
  C   C755      1.0  0.59908  0.47977  0.04813  1.0000
  H   H1294     1.0  0.58099  0.47602  0.04635  1.0000
  H   H1295     1.0  0.57498  0.47718  0.14783  1.0000
  H   H1296     1.0  0.97203  0.33125  0.29479  1.0000
  H   H1297     1.0  0.87651  0.23876  0.17530  1.0000
  H   H1298     1.0  0.57718  0.47254  0.27632  1.0000
  H   H1299     1.0  0.48706  0.39966  0.01747  1.0000
  H   H1300     1.0  0.67091  0.47688  0.01433  1.0000
  H   H1301     1.0  0.77177  0.26483  0.98624  1.0000
  H   H1302     1.0  0.59536  0.43256  0.99190  1.0000
  H   H1303     1.0  0.62009  0.24106  0.08607  1.0000
  H   H1304     1.0  0.79068  0.47667  0.18421  1.0000
  H   H1305     1.0  0.57457  0.48569  0.24142  1.0000
  H   H1306     1.0  0.58625  0.47652  0.98075  1.0000
  Fe  Fe108     1.0  0.69306  0.48684  0.11375  1.0000
  H   H1307     1.0  0.80887  0.48507  0.13377  1.0000
  C   C756      1.0  0.80880  0.48736  0.03873  1.0000
  H   H1308     1.0  0.80281  0.32207  0.97949  1.0000
  H   H1309     1.0  0.54220  0.44752  0.95056  1.0000
  H   H1310     1.0  0.54255  0.48270  0.92730  1.0000
  H   H1311     1.0  0.91734  0.26646  0.70365  1.0000
  C   C757      1.0  0.90191  0.25162  0.93561  1.0000
  H   H1312     1.0  0.96210  0.26388  0.60793  1.0000
  H   H1313     1.0  0.97358  0.27310  0.94872  1.0000
  S   S216      1.0  0.93204  0.29105  0.90611  1.0000
  H   H1314     1.0  0.90350  0.25616  0.95618  1.0000
  H   H1315     1.0  0.95241  0.25919  0.71055  1.0000
  H   H1316     1.0  0.91469  0.27261  0.75014  1.0000
  H   H1317     1.0  0.48905  0.35941  0.97673  1.0000
  C   C758      1.0  0.50067  0.39888  0.97231  1.0000
  H   H1318     1.0  0.48314  0.25223  0.95194  1.0000
  C   C759      1.0  0.89766  0.23943  0.88263  1.0000
  H   H1319     1.0  0.82761  0.31133  0.94892  1.0000
  H   H1320     1.0  0.51631  0.39551  0.97483  1.0000
  H   H1321     1.0  0.92025  0.27107  0.85964  1.0000
  C   C760      1.0  0.84068  0.31444  0.96189  1.0000
  H   H1322     1.0  0.97353  0.28042  0.91021  1.0000
  C   C761      1.0  0.97178  0.28029  0.74751  1.0000
  S   S217      1.0  0.88859  0.29170  0.97490  1.0000
  C   C762      1.0  0.91369  0.26596  0.90774  1.0000
  H   H1323     1.0  0.97092  0.31857  0.68202  1.0000
  C   C763      1.0  0.92673  0.27018  0.79016  1.0000
  C   C764      1.0  0.91143  0.25991  0.88121  1.0000
  C   C765      1.0  0.97313  0.32088  0.70426  1.0000
  H   H1324     1.0  0.92952  0.28635  0.79216  1.0000
  C   C766      1.0  0.93466  0.27734  0.69016  1.0000
  Fe  Fe109     1.0  0.92504  0.29688  0.95197  1.0000
  H   H1325     1.0  0.90895  0.26031  0.80355  1.0000
  H   H1326     1.0  0.84698  0.33140  0.96084  1.0000
  H   H1327     1.0  0.77617  0.29174  0.97590  1.0000
  H   H1328     1.0  0.95488  0.31037  0.75090  1.0000
  H   H1329     1.0  0.97049  0.28474  0.69031  1.0000
  N   N57       1.0  0.95186  0.28240  0.73537  1.0000
  C   C767      1.0  0.97225  0.25788  0.75625  1.0000
  C   C768      1.0  0.96234  0.24646  0.92981  1.0000
  C   C769      1.0  0.95343  0.27574  0.70644  1.0000
  H   H1330     1.0  0.93459  0.29350  0.68405  1.0000
  H   H1331     1.0  0.61817  0.45638  0.97496  1.0000
  H   H1332     1.0  0.93846  0.26396  0.80071  1.0000
  S   S218      1.0  0.94005  0.32767  0.96276  1.0000
  C   C770      1.0  0.96847  0.29115  0.57234  1.0000
  H   H1333     1.0  0.92521  0.25211  0.75725  1.0000
  S   S219      1.0  0.95683  0.27690  0.54816  1.0000
  H   H1334     1.0  0.93806  0.27261  0.66884  1.0000
  C   C771      1.0  0.54076  0.45815  0.96437  1.0000
  H   H1335     1.0  0.49475  0.39317  0.95348  1.0000
  C   C772      1.0  0.92913  0.26879  0.75724  1.0000
  H   H1336     1.0  0.95518  0.24589  0.76800  1.0000
  Fe  Fe110     1.0  0.96001  0.24552  0.56181  1.0000
  C   C773      1.0  0.95320  0.30486  0.73028  1.0000
  H   H1337     1.0  0.93699  0.30649  0.72595  1.0000
  H   H1338     1.0  0.97337  0.28731  0.76692  1.0000
  C   C774      1.0  0.97601  0.25364  0.87434  1.0000
  C   C775      1.0  0.54111  0.47810  0.95117  1.0000
  C   C776      1.0  0.97753  0.26928  0.92679  1.0000
  H   H1339     1.0  0.96320  0.26148  0.87189  1.0000
  H   H1340     1.0  0.85561  0.31116  0.95017  1.0000
  H   H1341     1.0  0.97643  0.32118  0.54188  1.0000
  H   H1342     1.0  0.97321  0.33688  0.70425  1.0000
  H   H1343     1.0  0.97068  0.30351  0.48536  1.0000
  C   C777      1.0  0.96973  0.28070  0.60025  1.0000
  H   H1344     1.0  0.94454  0.24679  0.93373  1.0000
  H   H1345     1.0  0.79971  0.28168  0.96579  1.0000
  H   H1346     1.0  0.50576  0.41618  0.96567  1.0000
  H   H1347     1.0  0.48565  0.24131  0.89661  1.0000
  C   C778      1.0  0.62526  0.53621  0.04640  1.0000
  S   S220      1.0  0.54091  0.64458  0.30526  1.0000
  H   H1348     1.0  0.54031  0.60067  0.44218  1.0000
  Fe  Fe111     1.0  0.52455  0.66861  0.29821  1.0000
  S   S221      1.0  0.49569  0.66123  0.27566  1.0000
  H   H1349     1.0  0.61622  0.67205  0.00564  1.0000
  H   H1350     1.0  0.69231  0.56513  0.05776  1.0000
  H   H1351     1.0  0.55702  0.66527  0.23804  1.0000
  N   N58       1.0  0.67947  0.60231  0.04543  1.0000
  H   H1352     1.0  0.56508  0.57250  0.11382  1.0000
  C   C779      1.0  0.52912  0.62550  0.19293  1.0000
  C   C780      1.0  0.48705  0.50238  0.11808  1.0000
  C   C781      1.0  0.60165  0.61025  0.24738  1.0000
  H   H1353     1.0  0.51656  0.60417  0.12354  1.0000
  C   C782      1.0  0.57744  0.63253  0.15541  1.0000
  H   H1354     1.0  0.61065  0.61234  0.34901  1.0000
  C   C783      1.0  0.67946  0.62312  0.05049  1.0000
  S   S222      1.0  0.56382  0.72668  0.34064  1.0000
  S   S223      1.0  0.71862  0.48757  0.03146  1.0000
  S   S224      1.0  0.63409  0.55879  0.14858  1.0000
  H   H1355     1.0  0.65568  0.64488  0.31400  1.0000
  H   H1356     1.0  0.51896  0.59308  0.24384  1.0000
  C   C784      1.0  0.60803  0.63202  0.24275  1.0000
  H   H1357     1.0  0.50687  0.60217  0.34071  1.0000
  C   C785      1.0  0.47971  0.54160  0.08807  1.0000
  H   H1358     1.0  0.61913  0.64235  0.22144  1.0000
  N   N59       1.0  0.61912  0.64072  0.36451  1.0000
  Fe  Fe112     1.0  0.59991  0.55294  0.17972  1.0000
  Fe  Fe113     1.0  0.55368  0.52136  0.21499  1.0000
  H   H1359     1.0  0.50553  0.62997  0.23094  1.0000
  H   H1360     1.0  0.50779  0.51306  0.06974  1.0000
  H   H1361     1.0  0.65969  0.58230  0.08995  1.0000
  S   S225      1.0  0.57664  0.67648  0.33331  1.0000
  C   C786      1.0  0.63506  0.52691  0.06683  1.0000
  H   H1362     1.0  0.58890  0.63691  0.01324  1.0000
  H   H1363     1.0  0.48975  0.68620  0.39449  1.0000
  H   H1364     1.0  0.62219  0.57620  0.08567  1.0000
  C   C787      1.0  0.65886  0.58456  0.06609  1.0000
  H   H1365     1.0  0.58250  0.62685  0.19998  1.0000
  H   H1366     1.0  0.51880  0.61006  0.06899  1.0000
  H   H1367     1.0  0.66314  0.60535  0.00896  1.0000
  H   H1368     1.0  0.60832  0.60386  0.22994  1.0000
  C   C788      1.0  0.65718  0.52660  0.05710  1.0000
  C   C789      1.0  0.65998  0.54530  0.00676  1.0000
  S   S226      1.0  0.59683  0.58379  0.00447  1.0000
  S   S227      1.0  0.77457  0.50105  0.06032  1.0000
  C   C790      1.0  0.65003  0.50834  0.18348  1.0000
  C   C791      1.0  0.64009  0.52397  0.18082  1.0000
  C   C792      1.0  0.64575  0.53878  0.15324  1.0000
  C   C793      1.0  0.66148  0.53801  0.12866  1.0000
  C   C794      1.0  0.67098  0.52224  0.13117  1.0000
  C   C795      1.0  0.63840  0.63363  0.40823  1.0000
  H   H1369     1.0  0.62835  0.52473  0.20011  1.0000
  H   H1370     1.0  0.68289  0.52177  0.11193  1.0000
  C   C796      1.0  0.67864  0.60232  0.01347  1.0000
  H   H1371     1.0  0.65875  0.56948  0.06137  1.0000
  H   H1372     1.0  0.58009  0.58894  0.39249  1.0000
  H   H1373     1.0  0.53624  0.51064  0.09639  1.0000
  H   H1374     1.0  0.53350  0.70914  0.43955  1.0000
  C   C797      1.0  0.48761  0.68168  0.46993  1.0000
  C   C798      1.0  0.62651  0.65419  0.33253  1.0000
  C   C799      1.0  0.54530  0.62410  0.23791  1.0000
  S   S228      1.0  0.56730  0.53886  0.16638  1.0000
  H   H1375     1.0  0.68705  0.61982  0.09516  1.0000
  C   C800      1.0  0.59903  0.64033  0.26506  1.0000
  C   C801      1.0  0.58504  0.62694  0.29275  1.0000
  C   C802      1.0  0.57893  0.60524  0.29754  1.0000
  H   H1376     1.0  0.57866  0.63328  0.31040  1.0000
  H   H1377     1.0  0.56758  0.59493  0.31872  1.0000
  C   C803      1.0  0.77265  0.49861  0.14271  1.0000
  Fe  Fe114     1.0  0.57558  0.55942  0.23691  1.0000
  H   H1378     1.0  0.49584  0.70705  0.24636  1.0000
  H   H1379     1.0  0.54950  0.49333  0.16904  1.0000
  H   H1380     1.0  0.51379  0.55974  0.36454  1.0000
  H   H1381     1.0  0.55142  0.70131  0.41398  1.0000
  H   H1382     1.0  0.49937  0.69741  0.46879  1.0000
  H   H1383     1.0  0.52860  0.53942  0.13735  1.0000
  C   C804      1.0  0.60644  0.65088  0.38379  1.0000
  H   H1384     1.0  0.55311  0.66482  0.39919  1.0000
  H   H1385     1.0  0.63798  0.67031  0.33091  1.0000
  C   C805      1.0  0.47976  0.64329  0.41940  1.0000
  C   C806      1.0  0.62016  0.67350  0.38370  1.0000
  H   H1386     1.0  0.53336  0.63024  0.25040  1.0000
  H   H1387     1.0  0.78888  0.50647  0.12466  1.0000
  C   C807      1.0  0.52167  0.52504  0.12973  1.0000
  Fe  Fe115     1.0  0.55694  0.69779  0.32413  1.0000
  H   H1388     1.0  0.59978  0.64177  0.40762  1.0000
  H   H1389     1.0  0.64630  0.64806  0.41518  1.0000
  H   H1390     1.0  0.54770  0.59259  0.24280  1.0000
  H   H1391     1.0  0.48041  0.49313  0.07732  1.0000
  H   H1392     1.0  0.71647  0.61326  0.03976  1.0000
  H   H1393     1.0  0.65490  0.65388  0.36406  1.0000
  H   H1394     1.0  0.62921  0.63210  0.30446  1.0000
  C   C808      1.0  0.61946  0.66444  0.98725  1.0000
  H   H1395     1.0  0.76076  0.50684  0.13721  1.0000
  H   H1396     1.0  0.49937  0.61257  0.29468  1.0000
  H   H1397     1.0  0.51472  0.54323  0.07764  1.0000
  H   H1398     1.0  0.62080  0.68485  0.36314  1.0000
  H   H1399     1.0  0.62550  0.51980  0.09012  1.0000
  H   H1400     1.0  0.50250  0.58145  0.38803  1.0000
  H   H1401     1.0  0.48822  0.72447  0.33726  1.0000
  H   H1402     1.0  0.49235  0.61945  0.20473  1.0000
  H   H1403     1.0  0.62093  0.62500  0.42305  1.0000
  H   H1404     1.0  0.53176  0.71182  0.40077  1.0000
  C   C809      1.0  0.66519  0.50725  0.15841  1.0000
  H   H1405     1.0  0.49697  0.64216  0.41226  1.0000
  C   C810      1.0  0.48265  0.70335  0.30754  1.0000
  H   H1406     1.0  0.50236  0.70618  0.34093  1.0000
  C   C811      1.0  0.51629  0.67930  0.42865  1.0000
  H   H1407     1.0  0.66608  0.54943  0.10742  1.0000
  H   H1408     1.0  0.50851  0.55651  0.10433  1.0000
  H   H1409     1.0  0.63434  0.70627  0.98993  1.0000
  H   H1410     1.0  0.58743  0.62149  0.35724  1.0000
  C   C812      1.0  0.70573  0.58007  0.04396  1.0000
  C   C813      1.0  0.52785  0.59875  0.10948  1.0000
  H   H1411     1.0  0.70780  0.58055  0.01977  1.0000
  Fe  Fe116     1.0  0.73621  0.49151  0.06861  1.0000
  C   C814      1.0  0.60729  0.64082  0.00213  1.0000
  H   H1412     1.0  0.52167  0.66933  0.44525  1.0000
  H   H1413     1.0  0.51916  0.67424  0.40764  1.0000
  N   N60       1.0  0.49125  0.67615  0.44016  1.0000
  H   H1414     1.0  0.48386  0.59033  0.43059  1.0000
  H   H1415     1.0  0.56000  0.60668  0.19405  1.0000
  H   H1416     1.0  0.55727  0.64435  0.99436  1.0000
  Fe  Fe117     1.0  0.70132  0.50852  0.04801  1.0000
  H   H1417     1.0  0.49829  0.71428  0.29003  1.0000
  C   C815      1.0  0.50164  0.54159  0.09805  1.0000
  C   C816      1.0  0.48287  0.68794  0.41709  1.0000
  C   C817      1.0  0.55512  0.58084  0.10408  1.0000
  H   H1418     1.0  0.69636  0.63567  0.03868  1.0000
  C   C818      1.0  0.55206  0.66799  0.21651  1.0000
  C   C819      1.0  0.56756  0.62392  0.18984  1.0000
  H   H1419     1.0  0.53693  0.49693  0.01325  1.0000
  H   H1420     1.0  0.67655  0.58662  0.00959  1.0000
  C   C820      1.0  0.70094  0.59921  0.05177  1.0000
  H   H1421     1.0  0.62960  0.57923  0.04550  1.0000
  H   H1422     1.0  0.48342  0.64405  0.46378  1.0000
  S   S229      1.0  0.72144  0.51489  0.08206  1.0000
  H   H1423     1.0  0.66480  0.51973  0.07299  1.0000
  C   C821      1.0  0.54279  0.59421  0.06061  1.0000
  C   C822      1.0  0.48613  0.70810  0.33755  1.0000
  H   H1424     1.0  0.53126  0.59613  0.27499  1.0000
  C   C823      1.0  0.64014  0.63882  0.37400  1.0000
  C   C824      1.0  0.66939  0.53524  0.02696  1.0000
  S   S230      1.0  0.53395  0.62394  0.38910  1.0000
  C   C825      1.0  0.54074  0.52518  0.10391  1.0000
  H   H1425     1.0  0.52307  0.60838  0.19496  1.0000
  H   H1426     1.0  0.50972  0.64687  0.19440  1.0000
  H   H1427     1.0  0.58973  0.62486  0.14789  1.0000
  H   H1428     1.0  0.63442  0.60153  0.06103  1.0000
  H   H1429     1.0  0.51978  0.51180  0.14845  1.0000
  H   H1430     1.0  0.61139  0.65603  0.32488  1.0000
  C   C826      1.0  0.55603  0.58383  0.07330  1.0000
  C   C827      1.0  0.49534  0.49906  0.08672  1.0000
  C   C828      1.0  0.53519  0.60008  0.25006  1.0000
  C   C829      1.0  0.48894  0.71159  0.41428  1.0000
  H   H1431     1.0  0.63086  0.55389  0.00098  1.0000
  C   C830      1.0  0.63797  0.54597  0.01657  1.0000
  S   S231      1.0  0.53626  0.58170  0.16144  1.0000
  H   H1432     1.0  0.50873  0.54820  0.33435  1.0000
  Fe  Fe118     1.0  0.55717  0.56433  0.18119  1.0000
  H   H1433     1.0  0.51728  0.57589  0.32759  1.0000
  S   S232      1.0  0.69615  0.53312  0.01435  1.0000
  C   C831      1.0  0.63995  0.64673  0.30854  1.0000
  H   H1434     1.0  0.59071  0.65119  0.37656  1.0000
  H   H1435     1.0  0.72213  0.57982  0.04912  1.0000
  C   C832      1.0  0.67467  0.62411  0.08365  1.0000
  S   S233      1.0  0.54205  0.59639  0.02285  1.0000
  C   C833      1.0  0.50671  0.56097  0.34453  1.0000
  C   C834      1.0  0.58663  0.59685  0.27450  1.0000
  H   H1436     1.0  0.49715  0.72057  0.39050  1.0000
  H   H1437     1.0  0.70031  0.59737  0.07609  1.0000
  H   H1438     1.0  0.58006  0.66091  0.19457  1.0000
  H   H1439     1.0  0.64543  0.62684  0.36482  1.0000
  C   C835      1.0  0.59318  0.60294  0.39514  1.0000
  H   H1440     1.0  0.48319  0.68741  0.30877  1.0000
  H   H1441     1.0  0.63785  0.67559  0.38575  1.0000
  H   H1442     1.0  0.60689  0.59775  0.40189  1.0000
  C   C836      1.0  0.55402  0.65323  0.41735  1.0000
  H   H1443     1.0  0.53326  0.66408  0.22112  1.0000
  C   C837      1.0  0.63507  0.58559  0.06408  1.0000
  C   C838      1.0  0.52908  0.60205  0.07865  1.0000
  N   N61       1.0  0.55031  0.63250  0.20434  1.0000
  H   H1444     1.0  0.48277  0.60885  0.35064  1.0000
  H   H1445     1.0  0.56019  0.66276  0.17256  1.0000
  H   H1446     1.0  0.81946  0.50373  0.03004  1.0000
  S   S234      1.0  0.58709  0.53323  0.22740  1.0000
  C   C839      1.0  0.56429  0.65958  0.43985  1.0000
  Fe  Fe119     1.0  0.57427  0.67150  0.28801  1.0000
  S   S235      1.0  0.55785  0.69541  0.27675  1.0000
  H   H1447     1.0  0.48451  0.55494  0.06795  1.0000
  H   H1448     1.0  0.56016  0.68507  0.20584  1.0000
  S   S236      1.0  0.60297  0.66702  0.25714  1.0000
  S   S237      1.0  0.52227  0.67285  0.34487  1.0000
  Fe  Fe120     1.0  0.54201  0.65124  0.34986  1.0000
  H   H1449     1.0  0.58438  0.60809  0.41330  1.0000
  C   C840      1.0  0.54537  0.63198  0.41815  1.0000
  Fe  Fe121     1.0  0.56026  0.57712  0.00295  1.0000
  H   H1450     1.0  0.64882  0.62371  0.41308  1.0000
  C   C841      1.0  0.48808  0.59668  0.34230  1.0000
  C   C842      1.0  0.56663  0.64475  0.46258  1.0000
  C   C843      1.0  0.60259  0.61966  0.36488  1.0000
  H   H1451     1.0  0.77558  0.50072  0.16475  1.0000
  S   S238      1.0  0.57638  0.56966  0.27976  1.0000
  S   S239      1.0  0.54886  0.54237  0.02120  1.0000
  H   H1452     1.0  0.65688  0.61401  0.09657  1.0000
  H   H1453     1.0  0.61127  0.67764  0.40313  1.0000
  H   H1454     1.0  0.60548  0.49681  0.04612  1.0000
  C   C844      1.0  0.54053  0.58780  0.12231  1.0000
  Fe  Fe122     1.0  0.58611  0.54904  0.01911  1.0000
  H   H1455     1.0  0.56653  0.57759  0.05969  1.0000
  C   C845      1.0  0.50832  0.63103  0.20662  1.0000
  S   S240      1.0  0.54091  0.54569  0.22894  1.0000
  S   S241      1.0  0.59103  0.58028  0.19006  1.0000
  H   H1456     1.0  0.56399  0.62873  0.14302  1.0000
  S   S242      1.0  0.59661  0.53415  0.05782  1.0000
  H   H1457     1.0  0.55629  0.52602  0.11223  1.0000
  H   H1458     1.0  0.56126  0.62971  0.24537  1.0000
  H   H1459     1.0  0.58716  0.64961  0.14871  1.0000
  H   H1460     1.0  0.54617  0.53909  0.08476  1.0000
  C   C846      1.0  0.48097  0.55825  0.35298  1.0000
  H   H1461     1.0  0.66686  0.62829  0.04032  1.0000
  C   C847      1.0  0.53380  0.70175  0.42059  1.0000
  H   H1462     1.0  0.53320  0.63240  0.16830  1.0000
  H   H1463     1.0  0.67644  0.64040  0.08442  1.0000
  C   C848      1.0  0.56131  0.65609  0.19556  1.0000
  C   C849      1.0  0.48340  0.57617  0.39288  1.0000
  H   H1464     1.0  0.50085  0.71798  0.42743  1.0000
  N   N62       1.0  0.49868  0.52334  0.12352  1.0000
  C   C850      1.0  0.54701  0.61711  0.44145  1.0000
  H   H1465     1.0  0.48212  0.72609  0.23738  1.0000
  C   C851      1.0  0.55803  0.62352  0.46329  1.0000
  H   H1466     1.0  0.57112  0.67604  0.43907  1.0000
  H   H1467     1.0  0.64577  0.49698  0.20479  1.0000
  H   H1468     1.0  0.64556  0.65876  0.28670  1.0000
  H   H1469     1.0  0.48479  0.58566  0.30097  1.0000
  C   C852      1.0  0.47786  0.65307  0.44634  1.0000
  C   C853      1.0  0.47957  0.70921  0.24361  1.0000
  H   H1470     1.0  0.60549  0.48990  0.14065  1.0000
  H   H1471     1.0  0.64203  0.48908  0.04068  1.0000
  H   H1472     1.0  0.49083  0.54140  0.15458  1.0000
  H   H1473     1.0  0.60914  0.63095  0.98653  1.0000
  H   H1474     1.0  0.61535  0.63625  0.02024  1.0000
  C   C854      1.0  0.48470  0.59914  0.31021  1.0000
  H   H1475     1.0  0.62717  0.50662  0.99676  1.0000
  H   H1476     1.0  0.49670  0.51342  0.18920  1.0000
  H   H1477     1.0  0.48076  0.64813  0.34093  1.0000
  H   H1478     1.0  0.48313  0.60714  0.39750  1.0000
  H   H1479     1.0  0.58499  0.49643  0.00067  1.0000
  C   C855      1.0  0.48072  0.50981  0.18131  1.0000
  C   C856      1.0  0.61775  0.49075  0.99454  1.0000
  C   C857      1.0  0.48382  0.52539  0.15123  1.0000
  H   H1480     1.0  0.55096  0.73618  0.28497  1.0000
  S   S243      1.0  0.52942  0.48809  0.23218  1.0000
  H   H1481     1.0  0.48866  0.48968  0.13487  1.0000
  H   H1482     1.0  0.66211  0.64183  0.98545  1.0000
  H   H1483     1.0  0.71574  0.61586  0.99015  1.0000
  H   H1484     1.0  0.66322  0.49496  0.98997  1.0000
  C   C858      1.0  0.69948  0.61851  0.98890  1.0000
  H   H1485     1.0  0.70133  0.63480  0.98960  1.0000
  H   H1486     1.0  0.58340  0.67590  0.98998  1.0000
  H   H1487     1.0  0.60808  0.70878  0.98159  1.0000
  C   C859      1.0  0.59614  0.49162  0.98444  1.0000
  H   H1488     1.0  0.63832  0.66760  0.98132  1.0000
  H   H1489     1.0  0.66960  0.55239  0.98351  1.0000
  H   H1490     1.0  0.61800  0.72647  0.70543  1.0000
  N   N63       1.0  0.60894  0.54718  0.87433  1.0000
  C   C860      1.0  0.61815  0.66374  0.93504  1.0000
  H   H1491     1.0  0.61708  0.50875  0.89361  1.0000
  H   H1492     1.0  0.59717  0.50363  0.87014  1.0000
  C   C861      1.0  0.47936  0.61272  0.50965  1.0000
  Fe  Fe123     1.0  0.60253  0.57977  0.95769  1.0000
  C   C862      1.0  0.62035  0.56715  0.81824  1.0000
  C   C863      1.0  0.69746  0.72905  0.74473  1.0000
  H   H1493     1.0  0.59959  0.73031  0.68190  1.0000
  Fe  Fe124     1.0  0.70404  0.72439  0.84098  1.0000
  C   C864      1.0  0.48744  0.62785  0.52514  1.0000
  H   H1494     1.0  0.62289  0.70440  0.92930  1.0000
  H   H1495     1.0  0.64015  0.60934  0.97385  1.0000
  S   S244      1.0  0.57985  0.70811  0.59694  1.0000
  C   C865      1.0  0.62727  0.69658  0.94920  1.0000
  S   S245      1.0  0.68861  0.68279  0.94782  1.0000
  S   S246      1.0  0.63186  0.60063  0.91818  1.0000
  H   H1496     1.0  0.62918  0.48869  0.97533  1.0000
  C   C866      1.0  0.54004  0.49223  0.96862  1.0000
  H   H1497     1.0  0.65799  0.73612  0.63858  1.0000
  C   C867      1.0  0.69118  0.72508  0.77607  1.0000
  C   C868      1.0  0.59945  0.50721  0.89174  1.0000
  S   S247      1.0  0.67232  0.70955  0.87901  1.0000
  C   C869      1.0  0.62402  0.67635  0.63813  1.0000
  S   S248      1.0  0.72861  0.72206  0.86943  1.0000
  C   C870      1.0  0.63405  0.68225  0.66436  1.0000
  H   H1498     1.0  0.64121  0.68018  0.72788  1.0000
  Fe  Fe125     1.0  0.69702  0.70998  0.90792  1.0000
  C   C871      1.0  0.61087  0.67068  0.90623  1.0000
  Fe  Fe126     1.0  0.52104  0.67377  0.54372  1.0000
  H   H1499     1.0  0.62173  0.71542  0.55181  1.0000
  H   H1500     1.0  0.60946  0.70911  0.65104  1.0000
  C   C872      1.0  0.63371  0.55134  0.87498  1.0000
  S   S249      1.0  0.70772  0.71561  0.79715  1.0000
  H   H1501     1.0  0.61498  0.66157  0.89023  1.0000
  H   H1502     1.0  0.57490  0.57773  0.88813  1.0000
  H   H1503     1.0  0.61777  0.68952  0.72628  1.0000
  H   H1504     1.0  0.62050  0.68738  0.89447  1.0000
  S   S250      1.0  0.58641  0.70651  0.51137  1.0000
  H   H1505     1.0  0.58857  0.54153  0.84205  1.0000
  Fe  Fe127     1.0  0.55898  0.54177  0.97306  1.0000
  S   S251      1.0  0.53652  0.70637  0.54852  1.0000
  C   C873      1.0  0.64965  0.62277  0.92618  1.0000
  S   S252      1.0  0.48255  0.65672  0.55678  1.0000
  C   C874      1.0  0.65387  0.71972  0.63680  1.0000
  C   C875      1.0  0.67548  0.65932  0.93905  1.0000
  C   C876      1.0  0.67624  0.65872  0.90917  1.0000
  C   C877      1.0  0.66329  0.64044  0.90274  1.0000
  H   H1506     1.0  0.67509  0.70178  0.62080  1.0000
  S   S253      1.0  0.58127  0.65267  0.48921  1.0000
  H   H1507     1.0  0.68649  0.67244  0.89100  1.0000
  H   H1508     1.0  0.66347  0.64019  0.87964  1.0000
  C   C878      1.0  0.63662  0.69441  0.72273  1.0000
  C   C879      1.0  0.61590  0.70812  0.67167  1.0000
  H   H1509     1.0  0.65732  0.55290  0.90371  1.0000
  C   C880      1.0  0.66263  0.64139  0.96236  1.0000
  C   C881      1.0  0.60691  0.54654  0.84290  1.0000
  H   H1510     1.0  0.60136  0.50355  0.96268  1.0000
  H   H1511     1.0  0.61512  0.58037  0.82266  1.0000
  H   H1512     1.0  0.64469  0.56757  0.86177  1.0000
  C   C882      1.0  0.63856  0.54920  0.90634  1.0000
  C   C883      1.0  0.67270  0.72998  0.79008  1.0000
  C   C884      1.0  0.51348  0.73326  0.48870  1.0000
  C   C885      1.0  0.65026  0.70821  0.69074  1.0000
  H   H1513     1.0  0.66675  0.70530  0.68647  1.0000
  S   S254      1.0  0.54806  0.66321  0.55969  1.0000
  H   H1514     1.0  0.57530  0.52301  0.89355  1.0000
  Fe  Fe128     1.0  0.56670  0.67376  0.51062  1.0000
  H   H1515     1.0  0.64999  0.67840  0.66310  1.0000
  H   H1516     1.0  0.61331  0.53455  0.83561  1.0000
  Fe  Fe129     1.0  0.56566  0.69685  0.55938  1.0000
  C   C886      1.0  0.57830  0.56481  0.87958  1.0000
  H   H1517     1.0  0.59208  0.52715  0.91954  1.0000
  N   N64       1.0  0.63852  0.70453  0.66597  1.0000
  H   H1518     1.0  0.57606  0.63753  0.96826  1.0000
  H   H1519     1.0  0.63615  0.68508  0.61585  1.0000
  H   H1520     1.0  0.59216  0.66761  0.91067  1.0000
  H   H1521     1.0  0.56399  0.55018  0.89254  1.0000
  H   H1522     1.0  0.62171  0.67121  0.68543  1.0000
  H   H1523     1.0  0.63389  0.56049  0.91761  1.0000
  C   C887      1.0  0.67713  0.71728  0.62518  1.0000
  C   C888      1.0  0.60186  0.56438  0.88370  1.0000
  H   H1524     1.0  0.61495  0.58007  0.87156  1.0000
  H   H1525     1.0  0.66763  0.72673  0.81434  1.0000
  H   H1526     1.0  0.63565  0.72669  0.95982  1.0000
  H   H1527     1.0  0.62066  0.65947  0.63988  1.0000
  H   H1528     1.0  0.61679  0.56495  0.79644  1.0000
  H   H1529     1.0  0.55865  0.65147  0.95533  1.0000
  H   H1530     1.0  0.60739  0.67876  0.63884  1.0000
  H   H1531     1.0  0.63698  0.66718  0.92823  1.0000
  H   H1532     1.0  0.64075  0.70345  0.73949  1.0000
  H   H1533     1.0  0.58438  0.68330  0.95139  1.0000
  H   H1534     1.0  0.57789  0.56802  0.85564  1.0000
  C   C889      1.0  0.60783  0.72684  0.58786  1.0000
  H   H1535     1.0  0.50502  0.63230  0.52700  1.0000
  C   C890      1.0  0.59325  0.52654  0.89573  1.0000
  H   H1536     1.0  0.64081  0.54101  0.86385  1.0000
  H   H1537     1.0  0.60101  0.56327  0.90789  1.0000
  H   H1538     1.0  0.63919  0.57152  0.81511  1.0000
  H   H1539     1.0  0.62979  0.53317  0.92121  1.0000
  H   H1540     1.0  0.60208  0.69460  0.68852  1.0000
  H   H1541     1.0  0.65569  0.72495  0.69114  1.0000
  H   H1542     1.0  0.68856  0.72046  0.64043  1.0000
  C   C891      1.0  0.61620  0.72799  0.68205  1.0000
  H   H1543     1.0  0.49204  0.67113  0.48690  1.0000
  C   C892      1.0  0.58757  0.67167  0.96836  1.0000
  N   N65       1.0  0.61248  0.67360  0.96020  1.0000
  S   S255      1.0  0.56661  0.57607  0.95460  1.0000
  H   H1544     1.0  0.61072  0.64647  0.94195  1.0000
  C   C893      1.0  0.64983  0.62313  0.95588  1.0000
  Fe  Fe130     1.0  0.55609  0.71386  0.50052  1.0000
  H   H1545     1.0  0.64489  0.71873  0.61854  1.0000
  H   H1546     1.0  0.68626  0.72914  0.60331  1.0000
  H   H1547     1.0  0.64577  0.69856  0.94159  1.0000
  H   H1548     1.0  0.71169  0.72519  0.73388  1.0000
  H   H1549     1.0  0.69677  0.61702  0.96647  1.0000
  C   C894      1.0  0.62592  0.70998  0.97188  1.0000
  S   S256      1.0  0.54179  0.51751  0.95099  1.0000
  H   H1550     1.0  0.58751  0.49339  0.90995  1.0000
  C   C895      1.0  0.62536  0.72684  0.56480  1.0000
  C   C896      1.0  0.56928  0.65005  0.97153  1.0000
  S   S257      1.0  0.53860  0.68210  0.49487  1.0000
  S   S258      1.0  0.59538  0.54534  0.97253  1.0000
  H   H1551     1.0  0.49089  0.60574  0.49940  1.0000
  H   H1552     1.0  0.51520  0.72394  0.50868  1.0000
  C   C897      1.0  0.49175  0.73361  0.48684  1.0000
  H   H1553     1.0  0.55974  0.61203  0.48093  1.0000
  S   S259      1.0  0.50063  0.77623  0.30263  1.0000
  H   H1554     1.0  0.52693  0.75660  0.26965  1.0000
  H   H1555     1.0  0.54505  0.76552  0.42010  1.0000
  C   C898      1.0  0.51985  0.76413  0.31218  1.0000
  C   C899      1.0  0.52997  0.75507  0.29183  1.0000
  H   H1556     1.0  0.63026  0.78470  0.46145  1.0000
  H   H1557     1.0  0.50626  0.76557  0.41638  1.0000
  C   C900      1.0  0.50828  0.75679  0.43672  1.0000
  C   C901      1.0  0.52378  0.76212  0.34088  1.0000
  C   C902      1.0  0.54752  0.74157  0.32916  1.0000
  C   C903      1.0  0.53020  0.75674  0.43884  1.0000
  C   C904      1.0  0.53802  0.75123  0.34911  1.0000
  H   H1558     1.0  0.54124  0.74991  0.37121  1.0000
  H   H1559     1.0  0.51597  0.76908  0.35668  1.0000
  H   H1560     1.0  0.60468  0.79897  0.44693  1.0000
  H   H1561     1.0  0.64426  0.75631  0.46593  1.0000
  H   H1562     1.0  0.47961  0.73823  0.27916  1.0000
  C   C905      1.0  0.54344  0.74343  0.30054  1.0000
  H   H1563     1.0  0.62226  0.81691  0.46420  1.0000
  C   C906      1.0  0.53274  0.74464  0.46466  1.0000
  H   H1564     1.0  0.60682  0.76112  0.47058  1.0000
  S   S260      1.0  0.55973  0.74304  0.46644  1.0000
  H   H1565     1.0  0.59394  0.81631  0.46341  1.0000
  C   C907      1.0  0.48898  0.74494  0.46065  1.0000
  C   C908      1.0  0.60468  0.80642  0.46600  1.0000
  Fe  Fe131     1.0  0.85920  0.87671  0.68704  1.0000
  S   S261      1.0  0.83724  0.86297  0.73409  1.0000
  S   S262      1.0  0.84003  0.88049  0.65111  1.0000
  Fe  Fe132     1.0  0.90316  0.88201  0.70834  1.0000
  S   S263      1.0  0.88419  0.86784  0.75692  1.0000
  Fe  Fe133     1.0  0.86003  0.84427  0.73984  1.0000
  S   S264      1.0  0.84596  0.80918  0.75919  1.0000
  Fe  Fe134     1.0  0.86344  0.88787  0.74650  1.0000
  S   S265      1.0  0.85336  0.90653  0.77748  1.0000
  S   S266      1.0  0.88082  0.85665  0.69176  1.0000
  S   S267      1.0  0.88367  0.90354  0.69877  1.0000
  Fe  Fe135     1.0  0.69548  0.88840  0.77408  1.0000
  S   S268      1.0  0.68906  0.90033  0.81508  1.0000
  S   S269      1.0  0.67617  0.89152  0.73897  1.0000
  Fe  Fe136     1.0  0.73056  0.87182  0.79357  1.0000
  S   S270      1.0  0.72715  0.88195  0.83616  1.0000
  S   S271      1.0  0.75423  0.85464  0.78439  1.0000
  Fe  Fe137     1.0  0.68949  0.86947  0.83969  1.0000
  S   S272      1.0  0.66343  0.84770  0.88154  1.0000
  Fe  Fe138     1.0  0.72761  0.91164  0.80707  1.0000
  S   S273      1.0  0.75082  0.94179  0.81308  1.0000
  S   S274      1.0  0.69302  0.85690  0.79928  1.0000
  S   S275      1.0  0.73379  0.90218  0.76395  1.0000
  H   H1566     1.0  0.83903  0.83762  0.66112  1.0000
  C   C909      1.0  0.82014  0.85724  0.64777  1.0000
  H   H1567     1.0  0.79766  0.87236  0.63236  1.0000
  C   C910      1.0  0.78365  0.83927  0.63743  1.0000
  H   H1568     1.0  0.64073  0.83606  0.81479  1.0000
  H   H1569     1.0  0.83072  0.91506  0.67372  1.0000
  H   H1570     1.0  0.81027  0.80513  0.65749  1.0000
  S   S276      1.0  0.71060  0.80787  0.67470  1.0000
  C   C911      1.0  0.80034  0.85775  0.63851  1.0000
  C   C912      1.0  0.77732  0.95338  0.78569  1.0000
  C   C913      1.0  0.77879  0.95235  0.75585  1.0000
  C   C914      1.0  0.79934  0.96372  0.73354  1.0000
  S   S277      1.0  0.76585  0.79656  0.64500  1.0000
  H   H1571     1.0  0.79897  0.88028  0.68941  1.0000
  C   C915      1.0  0.65564  0.80491  0.79497  1.0000
  H   H1572     1.0  0.76377  0.94375  0.74960  1.0000
  H   H1573     1.0  0.89323  0.81552  0.71716  1.0000
  H   H1574     1.0  0.64645  0.74286  0.78346  1.0000
  H   H1575     1.0  0.72182  0.80652  0.96930  1.0000
  C   C916      1.0  0.65925  0.82111  0.88435  1.0000
  C   C917      1.0  0.67596  0.81496  0.86841  1.0000
  C   C918      1.0  0.67254  0.79358  0.87184  1.0000
  C   C919      1.0  0.65194  0.77834  0.89024  1.0000
  C   C920      1.0  0.63508  0.78455  0.90561  1.0000
  C   C921      1.0  0.63888  0.80583  0.90308  1.0000
  H   H1576     1.0  0.69157  0.82669  0.85368  1.0000
  H   H1577     1.0  0.68560  0.78890  0.85980  1.0000
  H   H1578     1.0  0.61913  0.77288  0.91983  1.0000
  H   H1579     1.0  0.62589  0.81049  0.91541  1.0000
  C   C922      1.0  0.82282  0.80069  0.79137  1.0000
  H   H1580     1.0  0.80450  0.92200  0.73121  1.0000
  C   C923      1.0  0.79876  0.91208  0.64539  1.0000
  C   C924      1.0  0.80058  0.80830  0.83289  1.0000
  C   C925      1.0  0.81935  0.81478  0.80770  1.0000
  S   S278      1.0  0.94191  0.89284  0.69462  1.0000
  Fe  Fe139     1.0  0.69238  0.78605  0.60827  1.0000
  H   H1581     1.0  0.83133  0.83068  0.80095  1.0000
  C   C926      1.0  0.82419  0.89218  0.79231  1.0000
  C   C927      1.0  0.80790  0.90187  0.79067  1.0000
  C   C928      1.0  0.78557  0.88999  0.79036  1.0000
  C   C929      1.0  0.77992  0.86867  0.79156  1.0000
  C   C930      1.0  0.79544  0.85877  0.79701  1.0000
  C   C931      1.0  0.81747  0.87053  0.79786  1.0000
  H   H1582     1.0  0.81309  0.91872  0.78637  1.0000
  H   H1583     1.0  0.77347  0.89772  0.78674  1.0000
  H   H1584     1.0  0.79113  0.84232  0.79868  1.0000
  H   H1585     1.0  0.83008  0.86314  0.79970  1.0000
  H   H1586     1.0  0.81205  0.90532  0.63813  1.0000
  H   H1587     1.0  0.79818  0.81942  0.84526  1.0000
  Fe  Fe140     1.0  0.73114  0.79750  0.64038  1.0000
  C   C932      1.0  0.95813  0.91746  0.76360  1.0000
  C   C933      1.0  0.94555  0.90783  0.74500  1.0000
  H   H1588     1.0  0.94916  0.91888  0.78468  1.0000
  H   H1589     1.0  0.92699  0.90192  0.75181  1.0000
  C   C934      1.0  0.78844  0.77342  0.82556  1.0000
  H   H1590     1.0  0.67356  0.88157  0.63929  1.0000
  C   C935      1.0  0.88609  0.96446  0.68916  1.0000
  H   H1591     1.0  0.70957  0.78385  0.77464  1.0000
  C   C936      1.0  0.70200  0.86065  0.68405  1.0000
  C   C937      1.0  0.69727  0.86904  0.70865  1.0000
  C   C938      1.0  0.68352  0.88151  0.70835  1.0000
  C   C939      1.0  0.67494  0.88586  0.68338  1.0000
  C   C940      1.0  0.57582  0.75893  0.55648  1.0000
  H   H1592     1.0  0.71255  0.85100  0.68420  1.0000
  H   H1593     1.0  0.70407  0.86576  0.72786  1.0000
  H   H1594     1.0  0.66439  0.89553  0.68303  1.0000
  C   C941      1.0  0.82369  0.83819  0.65440  1.0000
  N   N66       1.0  0.74962  0.83892  0.89587  1.0000
  C   C942      1.0  0.73991  0.83894  0.86871  1.0000
  C   C943      1.0  0.75167  0.85953  0.90335  1.0000
  C   C944      1.0  0.73275  0.82069  0.92113  1.0000
  C   C945      1.0  0.77255  0.83623  0.88798  1.0000
  C   C946      1.0  0.73607  0.81913  0.85711  1.0000
  C   C947      1.0  0.96124  0.85977  0.75399  1.0000
  C   C948      1.0  0.73298  0.82191  0.95364  1.0000
  C   C949      1.0  0.78696  0.83828  0.91126  1.0000
  H   H1595     1.0  0.72313  0.84139  0.87340  1.0000
  H   H1596     1.0  0.75135  0.85199  0.84926  1.0000
  H   H1597     1.0  0.65016  0.76827  0.49559  1.0000
  H   H1598     1.0  0.73488  0.86202  0.90565  1.0000
  H   H1599     1.0  0.71467  0.81834  0.91991  1.0000
  H   H1600     1.0  0.73525  0.80578  0.91891  1.0000
  H   H1601     1.0  0.77014  0.82040  0.88454  1.0000
  H   H1602     1.0  0.78346  0.84690  0.86575  1.0000
  H   H1603     1.0  0.72534  0.80454  0.87466  1.0000
  H   H1604     1.0  0.72701  0.82026  0.83900  1.0000
  H   H1605     1.0  0.75275  0.81806  0.84675  1.0000
  N   N67       1.0  0.89934  0.97067  0.73687  1.0000
  H   H1606     1.0  0.58614  0.76546  0.57149  1.0000
  H   H1607     1.0  0.78792  0.87867  0.87944  1.0000
  C   C950      1.0  0.81843  0.97639  0.74082  1.0000
  H   H1608     1.0  0.96638  0.87334  0.76385  1.0000
  H   H1609     1.0  0.85127  0.95195  0.79941  1.0000
  C   C951      1.0  0.76655  0.75797  0.73746  1.0000
  H   H1610     1.0  0.86799  0.97714  0.74973  1.0000
  H   H1611     1.0  0.91773  0.80708  0.71148  1.0000
  C   C952      1.0  0.87013  0.95754  0.78936  1.0000
  C   C953      1.0  0.64781  0.74128  0.55907  1.0000
  C   C954      1.0  0.93557  0.84699  0.76847  1.0000
  C   C955      1.0  0.90024  0.97969  0.70454  1.0000
  C   C956      1.0  0.90620  0.95156  0.74082  1.0000
  H   H1612     1.0  0.92459  0.79737  0.75985  1.0000
  H   H1613     1.0  0.79126  0.78827  0.73100  1.0000
  C   C957      1.0  0.89565  0.81035  0.80841  1.0000
  H   H1614     1.0  0.76772  0.88168  0.85783  1.0000
  H   H1615     1.0  0.92826  0.93842  0.71570  1.0000
  H   H1616     1.0  0.86323  0.95083  0.74844  1.0000
  H   H1617     1.0  0.59389  0.78834  0.75254  1.0000
  C   C958      1.0  0.62139  0.79489  0.77542  1.0000
  H   H1618     1.0  0.58933  0.79792  0.51357  1.0000
  H   H1619     1.0  0.66140  0.74094  0.54157  1.0000
  H   H1620     1.0  0.90663  0.94602  0.76451  1.0000
  H   H1621     1.0  0.89292  0.93802  0.73740  1.0000
  H   H1622     1.0  0.59997  0.74634  0.53682  1.0000
  H   H1623     1.0  0.63082  0.77670  0.53593  1.0000
  H   H1624     1.0  0.76210  0.75199  0.76228  1.0000
  C   C959      1.0  0.91222  0.82081  0.70869  1.0000
  H   H1625     1.0  0.78113  0.75333  0.72805  1.0000
  H   H1626     1.0  0.94137  0.81125  0.78108  1.0000
  H   H1627     1.0  0.72771  0.76437  0.74853  1.0000
  H   H1628     1.0  0.62929  0.85119  0.79139  1.0000
  N   N68       1.0  0.92473  0.82887  0.75608  1.0000
  H   H1629     1.0  0.67846  0.82238  0.73750  1.0000
  H   H1630     1.0  0.87721  0.80035  0.81798  1.0000
  H   H1631     1.0  0.75557  0.85984  0.92542  1.0000
  Fe  Fe141     1.0  0.70077  0.82329  0.63540  1.0000
  C   C960      1.0  0.64511  0.83273  0.76823  1.0000
  Fe  Fe142     1.0  0.67738  0.74220  0.88298  1.0000
  H   H1632     1.0  0.77627  0.78626  0.70239  1.0000
  H   H1633     1.0  0.66247  0.79572  0.74170  1.0000
  H   H1634     1.0  0.67352  0.81599  0.79085  1.0000
  C   C961      1.0  0.95849  0.81733  0.73408  1.0000
  C   C962      1.0  0.60429  0.80172  0.75978  1.0000
  C   C963      1.0  0.65335  0.81656  0.71161  1.0000
  C   C964      1.0  0.81810  0.91801  0.71776  1.0000
  C   C965      1.0  0.73444  0.78135  0.73745  1.0000
  C   C966      1.0  0.76659  0.81453  0.72692  1.0000
  H   H1635     1.0  0.80549  0.84408  0.89926  1.0000
  H   H1636     1.0  0.95450  0.80727  0.71848  1.0000
  H   H1637     1.0  0.80424  0.82247  0.71362  1.0000
  C   C967      1.0  0.80765  0.77984  0.80069  1.0000
  S   S279      1.0  0.64634  0.75145  0.89381  1.0000
  C   C968      1.0  0.89993  0.81828  0.77405  1.0000
  H   H1638     1.0  0.91573  0.84896  0.72308  1.0000
  H   H1639     1.0  0.82467  0.94384  0.62569  1.0000
  C   C969      1.0  0.62418  0.78769  0.52300  1.0000
  H   H1640     1.0  0.92614  0.85817  0.76678  1.0000
  H   H1641     1.0  0.90599  0.80068  0.81453  1.0000
  N   N69       1.0  0.79437  0.91014  0.67878  1.0000
  H   H1642     1.0  0.79494  0.84372  0.71783  1.0000
  C   C970      1.0  0.81726  0.97700  0.77075  1.0000
  C   C971      1.0  0.78708  0.82020  0.64442  1.0000
  H   H1643     1.0  0.76820  0.83980  0.63096  1.0000
  C   C972      1.0  0.80736  0.81979  0.65236  1.0000
  H   H1644     1.0  0.76591  0.81696  0.70296  1.0000
  H   H1645     1.0  0.89117  0.80438  0.76641  1.0000
  C   C973      1.0  0.95705  0.90588  0.71774  1.0000
  C   C974      1.0  0.80709  0.93456  0.62511  1.0000
  H   H1646     1.0  0.66794  0.78025  0.78243  1.0000
  N   N70       1.0  0.60773  0.77673  0.50657  1.0000
  H   H1647     1.0  0.89102  0.95044  0.68972  1.0000
  H   H1648     1.0  0.66382  0.77998  0.82090  1.0000
  C   C975      1.0  0.79125  0.82685  0.72751  1.0000
  H   H1649     1.0  0.71977  0.80631  0.74177  1.0000
  H   H1650     1.0  0.64050  0.82161  0.50306  1.0000
  S   S280      1.0  0.72344  0.81502  0.60054  1.0000
  H   H1651     1.0  0.77265  0.91620  0.71459  1.0000
  H   H1652     1.0  0.59177  0.80528  0.77599  1.0000
  C   C976      1.0  0.81739  0.92074  0.68455  1.0000
  C   C977      1.0  0.63527  0.75587  0.59923  1.0000
  C   C978      1.0  0.69336  0.86514  0.65903  1.0000
  C   C979      1.0  0.77384  0.78202  0.72720  1.0000
  H   H1653     1.0  0.61210  0.81497  0.73951  1.0000
  H   H1654     1.0  0.75565  0.93187  0.66528  1.0000
  S   S281      1.0  0.69910  0.85554  0.62746  1.0000
  H   H1655     1.0  0.75981  0.85674  0.70470  1.0000
  H   H1656     1.0  0.79572  0.96633  0.81621  1.0000
  H   H1657     1.0  0.61398  0.82358  0.80586  1.0000
  H   H1658     1.0  0.72557  0.83360  0.95979  1.0000
  H   H1659     1.0  0.81710  0.90192  0.72809  1.0000
  C   C980      1.0  0.76282  0.87306  0.69264  1.0000
  C   C981      1.0  0.66835  0.74477  0.74120  1.0000
  H   H1660     1.0  0.65117  0.83195  0.70734  1.0000
  H   H1661     1.0  0.83484  0.92859  0.71916  1.0000
  Fe  Fe143     1.0  0.68114  0.77944  0.67599  1.0000
  C   C982      1.0  0.66072  0.81117  0.74080  1.0000
  H   H1662     1.0  0.81038  0.76880  0.78821  1.0000
  C   C983      1.0  0.78582  0.88737  0.69582  1.0000
  S   S282      1.0  0.69964  0.74154  0.91497  1.0000
  S   S283      1.0  0.70676  0.75712  0.84201  1.0000
  C   C984      1.0  0.65654  0.78260  0.80129  1.0000
  H   H1663     1.0  0.70010  0.78206  0.74147  1.0000
  H   H1664     1.0  0.78312  0.88568  0.72048  1.0000
  H   H1665     1.0  0.75202  0.75008  0.72860  1.0000
  H   H1666     1.0  0.74819  0.87691  0.70377  1.0000
  H   H1667     1.0  0.76515  0.81513  0.79243  1.0000
  C   C985      1.0  0.78477  0.78775  0.84154  1.0000
  C   C986      1.0  0.77039  0.87914  0.88074  1.0000
  C   C987      1.0  0.77805  0.92070  0.68963  1.0000
  C   C988      1.0  0.68010  0.87795  0.65866  1.0000
  H   H1668     1.0  0.77453  0.78877  0.77792  1.0000
  S   S284      1.0  0.70230  0.76757  0.64482  1.0000
  H   H1669     1.0  0.74049  0.91062  0.69754  1.0000
  H   H1670     1.0  0.76256  0.87283  0.66912  1.0000
  C   C989      1.0  0.74990  0.80210  0.79248  1.0000
  H   H1671     1.0  0.94186  0.84614  0.70915  1.0000
  H   H1672     1.0  0.66300  0.84391  0.76314  1.0000
  H   H1673     1.0  0.73715  0.80827  0.78500  1.0000
  N   N71       1.0  0.75777  0.79150  0.74232  1.0000
  C   C990      1.0  0.75705  0.78726  0.77531  1.0000
  C   C991      1.0  0.65294  0.75556  0.57664  1.0000
  H   H1674     1.0  0.75572  0.82265  0.73679  1.0000
  H   H1675     1.0  0.79370  0.82489  0.75054  1.0000
  H   H1676     1.0  0.66712  0.81759  0.69227  1.0000
  H   H1677     1.0  0.82379  0.93793  0.67441  1.0000
  H   H1678     1.0  0.89865  0.82346  0.81936  1.0000
  C   C992      1.0  0.71525  0.78919  0.74973  1.0000
  H   H1679     1.0  0.74570  0.77091  0.78741  1.0000
  H   H1680     1.0  0.73574  0.78283  0.71296  1.0000
  N   N72       1.0  0.64515  0.81087  0.76961  1.0000
  H   H1681     1.0  0.72626  0.98140  0.82732  1.0000
  S   S285      1.0  0.66911  0.79585  0.63990  1.0000
  H   H1682     1.0  0.78703  0.93796  0.68349  1.0000
  C   C993      1.0  0.75593  0.91685  0.67816  1.0000
  H   H1683     1.0  0.74271  0.79378  0.81653  1.0000
  C   C994      1.0  0.66084  0.73925  0.77262  1.0000
  H   H1684     1.0  0.75028  0.82533  0.95765  1.0000
  H   H1685     1.0  0.65941  0.80870  0.51490  1.0000
  H   H1686     1.0  0.75331  0.90579  0.66390  1.0000
  S   S286      1.0  0.76065  0.78063  0.87225  1.0000
  H   H1687     1.0  0.87587  0.94440  0.79710  1.0000
  H   H1688     1.0  0.78354  0.90291  0.63900  1.0000
  H   H1689     1.0  0.80801  0.93380  0.60141  1.0000
  H   H1690     1.0  0.79517  0.94288  0.63085  1.0000
  H   H1691     1.0  0.91628  0.82813  0.68418  1.0000
  H   H1692     1.0  0.87808  0.97085  0.79848  1.0000
  H   H1693     1.0  0.63898  0.76696  0.61265  1.0000
  H   H1694     1.0  0.61506  0.79304  0.54081  1.0000
  H   H1695     1.0  0.63864  0.83881  0.74937  1.0000
  H   H1696     1.0  0.78274  0.82285  0.92724  1.0000
  H   H1697     1.0  0.62259  0.78049  0.76906  1.0000
  H   H1698     1.0  0.96736  0.83376  0.72091  1.0000
  H   H1699     1.0  0.63772  0.80395  0.71111  1.0000
  H   H1700     1.0  0.94320  0.95713  0.73367  1.0000
  C   C995      1.0  0.92443  0.83724  0.72405  1.0000
  H   H1701     1.0  0.64595  0.80581  0.81674  1.0000
  H   H1702     1.0  0.56508  0.76827  0.55067  1.0000
  C   C996      1.0  0.63136  0.83571  0.79688  1.0000
  S   S287      1.0  0.68167  0.77198  0.57079  1.0000
  H   H1703     1.0  0.89009  0.82890  0.77039  1.0000
  Fe  Fe144     1.0  0.72911  0.75380  0.87353  1.0000
  H   H1704     1.0  0.61289  0.78989  0.80001  1.0000
  H   H1705     1.0  0.77648  0.75746  0.83227  1.0000
  C   C997      1.0  0.87467  0.96416  0.75476  1.0000
  H   H1706     1.0  0.63920  0.77037  0.80732  1.0000
  S   S288      1.0  0.65578  0.75928  0.71961  1.0000
  H   H1707     1.0  0.78512  0.84983  0.92393  1.0000
  C   C998      1.0  0.92965  0.95356  0.72127  1.0000
  H   H1708     1.0  0.96503  0.86639  0.72943  1.0000
  C   C999      1.0  0.93665  0.81309  0.75919  1.0000
  C   C1000     1.0  0.79673  0.96551  0.79316  1.0000
  H   H1709     1.0  0.93448  0.84161  0.79275  1.0000
  H   H1710     1.0  0.76991  0.89322  0.88844  1.0000
  H   H1711     1.0  0.80016  0.96346  0.71035  1.0000
  C   C1001     1.0  0.59096  0.75664  0.52833  1.0000
  C   C1002     1.0  0.61280  0.74157  0.60477  1.0000
  H   H1712     1.0  0.91800  0.98642  0.68996  1.0000
  C   C1003     1.0  0.68656  0.73950  0.72731  1.0000
  H   H1713     1.0  0.86738  0.95981  0.69900  1.0000
  H   H1714     1.0  0.56380  0.74314  0.56988  1.0000
  H   H1715     1.0  0.57908  0.74751  0.51682  1.0000
  H   H1716     1.0  0.69243  0.74354  0.70317  1.0000
  C   C1004     1.0  0.59386  0.78973  0.49637  1.0000
  H   H1717     1.0  0.93544  0.96513  0.69926  1.0000
  H   H1718     1.0  0.88936  0.97256  0.66510  1.0000
  H   H1719     1.0  0.59926  0.74175  0.62248  1.0000
  H   H1720     1.0  0.57709  0.77952  0.49404  1.0000
  H   H1721     1.0  0.91671  0.97995  0.77073  1.0000
  C   C1005     1.0  0.64487  0.80723  0.50414  1.0000
  H   H1722     1.0  0.97125  0.81265  0.74444  1.0000
  C   C1006     1.0  0.91390  0.98723  0.74910  1.0000
  H   H1723     1.0  0.73467  0.98630  0.78769  1.0000
  H   H1724     1.0  0.97219  0.85050  0.75914  1.0000
  H   H1725     1.0  0.83207  0.98645  0.77663  1.0000
  H   H1726     1.0  0.63002  0.74229  0.66704  1.0000
  H   H1727     1.0  0.62692  0.74355  0.50307  1.0000
  C   C1007     1.0  0.63608  0.75910  0.48712  1.0000
  C   C1008     1.0  0.61971  0.77087  0.48033  1.0000
  H   H1728     1.0  0.65174  0.80642  0.48112  1.0000
