data_image0
_chemical_formula_structural       SFeC3HCH2CSH3SH3CSHFe2H2SFeH2SCSCH3CHC3H2CFeH4CH2NFeS2FeS2FeSFeS4FeS2CH3CNCHC6H4CHC4H2NC8H21FeC2HSHCH5CH4C2H3CH2SHCHCH4CHC3HNCH2C2H4CHCHCSCHFeHCHC2H3C2H2FeH3CH4CSH7C3H2CHNCH2CSCH2C2HCH8CHCH5C3H6FeS2FeSCFeSFeS3FeHSHCFeS2CFeS3FeSH2SC3H3CH4FeCH2C6H4CH7C2H3FeHC3H2C6H4CHC2HNCH2NC8H14CH5S2HC2HC2H4C2FeH2CH2CHC2FeCHCH2CH2CH4SCHFeCSH5CFeS2FeS2FeSFeS3CHC7H4CH3C3HCHSC2HC3H8NCNHCH3CH2C3H3C2H4CH4CH2C3H2CH4CH3C2H8CH2C2HCH2CHCH2C2NH2C2SC2HSH2NH3SH2FeSH3C2H3CHCHC3H3CH5C6H9CH7CH2CH2CHCHNCHSCSHNH2CH3CH4NC2HCH5C5SCH3SCH9CHSCFeS2HSFeS2FeSHS2CFeH3C2HNHC2HC6H4NC8H8CHFeCH11CH2CH2CH5C2H7SC2H3C2H2CH2C2HFeHCH3C3HCH2SH2C2S2HC2H3CH5CH3SCHNHNCH3CHC2H2CH2CHFeH3SH6CHCHCFeS2FeS2FeHFeS3CSHNC2FeS2C3H4C6H5C2HCH3C3HCH3CH4CH5SCH2CHNH3C3SCH2CHCH5FeHCHCNH5C3HCH2CH2SH2C2H3CH2CHCH6FeHCSH3CFeS2H2SHCSH2FeS2FeS2FeSFeS3HSCH2C6H2CH2CHC6H5SCH3CH5C2H2C3H5C2HCNCH4CHNCHFeH2C4H2FeHNCHSHC3H6CH3CH2CH6C3H2CH2S3NC8H5NH2C2H7C2HFeHCHC3H2CHCH2CHCHC2H3CHCH3CH9C3HC2H4C2SH2NH3S2FeH2FeS2FeCFeS3CHCH2SH5SC6H4SH2C2H2SH2CH2CH3CHC2NC8H14CH6NHCHC2H2SH7CH3FeH3FeH4CHC2HCNSH3CHCS2C2H4CH5CH2CFeSH3C3H2CH5CSHCH2FeCNC2HFeHSFeH4S2CH5C2SHCH4C2FeCHC2NHC
_chemical_formula_sum              "S128 Fe64 C448 H768 N32"
_cell_length_a       53.7596
_cell_length_b       53.5493
_cell_length_c       37.5353
_cell_angle_alpha    87.8678
_cell_angle_beta     88.047
_cell_angle_gamma    118.864

_space_group_name_H-M_alt    "P 1"
_space_group_IT_number       1

loop_
  _space_group_symop_operation_xyz
  'x, y, z'

loop_
  _atom_site_type_symbol
  _atom_site_label
  _atom_site_symmetry_multiplicity
  _atom_site_fract_x
  _atom_site_fract_y
  _atom_site_fract_z
  _atom_site_occupancy
  S   S1        1.0  0.47866  0.14504  0.48283  1.0000
  Fe  Fe1       1.0  0.46617  0.07067  0.39053  1.0000
  C   C1        1.0  0.47011  0.20093  0.37449  1.0000
  C   C2        1.0  0.44178  0.19612  0.47473  1.0000
  C   C3        1.0  0.46821  0.17132  0.48999  1.0000
  H   H1        1.0  0.44783  0.19697  0.37489  1.0000
  C   C4        1.0  0.44929  0.17475  0.46828  1.0000
  H   H2        1.0  0.44002  0.16058  0.44699  1.0000
  H   H3        1.0  0.39685  0.00772  0.36459  1.0000
  C   C5        1.0  0.45234  0.99710  0.29177  1.0000
  S   S2        1.0  0.44944  0.02226  0.40151  1.0000
  H   H4        1.0  0.42679  0.19831  0.45815  1.0000
  H   H5        1.0  0.47689  0.20130  0.34615  1.0000
  H   H6        1.0  0.46968  0.18244  0.38930  1.0000
  S   S3        1.0  0.44936  0.10249  0.38862  1.0000
  H   H7        1.0  0.43757  0.99822  0.27271  1.0000
  H   H8        1.0  0.48819  0.24666  0.37422  1.0000
  H   H9        1.0  0.47743  0.22900  0.41688  1.0000
  C   C6        1.0  0.48883  0.22959  0.39130  1.0000
  S   S4        1.0  0.49076  0.15832  0.30089  1.0000
  H   H10       1.0  0.45584  0.01324  0.31164  1.0000
  Fe  Fe2       1.0  0.48677  0.12871  0.34844  1.0000
  Fe  Fe3       1.0  0.48067  0.12625  0.42987  1.0000
  H   H11       1.0  0.47329  0.00365  0.27788  1.0000
  H   H12       1.0  0.46762  0.02289  0.49578  1.0000
  S   S5        1.0  0.48122  0.32240  0.52445  1.0000
  Fe  Fe4       1.0  0.46516  0.27720  0.54700  1.0000
  H   H13       1.0  0.39566  0.28140  0.65592  1.0000
  H   H14       1.0  0.47249  0.05721  0.50519  1.0000
  S   S6        1.0  0.44614  0.28460  0.59776  1.0000
  C   C7        1.0  0.45351  0.21466  0.50241  1.0000
  S   S7        1.0  0.44380  0.24160  0.50894  1.0000
  C   C8        1.0  0.40675  0.32177  0.68204  1.0000
  H   H15       1.0  0.41034  0.28188  0.71534  1.0000
  H   H16       1.0  0.47039  0.03280  0.54107  1.0000
  H   H17       1.0  0.37875  0.30078  0.63966  1.0000
  C   C9        1.0  0.47252  0.21127  0.52402  1.0000
  H   H18       1.0  0.38810  0.31120  0.70178  1.0000
  C   C10       1.0  0.47868  0.04089  0.51332  1.0000
  C   C11       1.0  0.43254  0.29863  0.70717  1.0000
  C   C12       1.0  0.45076  0.29679  0.73700  1.0000
  H   H19       1.0  0.39138  0.32775  0.57448  1.0000
  H   H20       1.0  0.43865  0.29119  0.68268  1.0000
  C   C13       1.0  0.39905  0.30323  0.64942  1.0000
  Fe  Fe5       1.0  0.48905  0.29694  0.61933  1.0000
  H   H21       1.0  0.41519  0.31355  0.62694  1.0000
  H   H22       1.0  0.45004  0.27569  0.73688  1.0000
  H   H23       1.0  0.47343  0.31311  0.73328  1.0000
  H   H24       1.0  0.44211  0.29798  0.76378  1.0000
  C   C14       1.0  0.47954  0.18951  0.51809  1.0000
  H   H25       1.0  0.48145  0.22512  0.54566  1.0000
  H   H26       1.0  0.41555  0.32728  0.75147  1.0000
  N   N1        1.0  0.43379  0.32716  0.69929  1.0000
  Fe  Fe6       1.0  0.17158  0.48114  0.33782  1.0000
  S   S8        1.0  0.14093  0.43838  0.36556  1.0000
  S   S9        1.0  0.19440  0.48475  0.28432  1.0000
  Fe  Fe7       1.0  0.16463  0.51392  0.39755  1.0000
  S   S10       1.0  0.13344  0.47430  0.43002  1.0000
  S   S11       1.0  0.17885  0.55889  0.41222  1.0000
  Fe  Fe8       1.0  0.16397  0.45811  0.41506  1.0000
  S   S12       1.0  0.17691  0.43595  0.45806  1.0000
  Fe  Fe9       1.0  0.11296  0.45807  0.37834  1.0000
  S   S13       1.0  0.06598  0.44455  0.36963  1.0000
  S   S14       1.0  0.19629  0.49905  0.38608  1.0000
  S   S15       1.0  0.14254  0.49951  0.34700  1.0000
  S   S16       1.0  0.44378  0.57568  0.40068  1.0000
  Fe  Fe10      1.0  0.29985  0.62737  0.17306  1.0000
  S   S17       1.0  0.32548  0.60865  0.14952  1.0000
  S   S18       1.0  0.25307  0.60275  0.19121  1.0000
  C   C15       1.0  0.41968  0.62622  0.27073  1.0000
  H   H27       1.0  0.24933  0.63918  0.40418  1.0000
  H   H28       1.0  0.40415  0.60567  0.28301  1.0000
  H   H29       1.0  0.45141  0.63199  0.30825  1.0000
  C   C16       1.0  0.44025  0.56050  0.44388  1.0000
  N   N2        1.0  0.08230  0.42362  0.26789  1.0000
  C   C17       1.0  0.16830  0.55865  0.45691  1.0000
  H   H30       1.0  0.16632  0.59766  0.44935  1.0000
  C   C18       1.0  0.21182  0.51829  0.26000  1.0000
  C   C19       1.0  0.23051  0.52233  0.23058  1.0000
  C   C20       1.0  0.24456  0.54871  0.21056  1.0000
  C   C21       1.0  0.23909  0.57092  0.21893  1.0000
  C   C22       1.0  0.22027  0.56682  0.24822  1.0000
  C   C23       1.0  0.20709  0.54082  0.26910  1.0000
  H   H31       1.0  0.23407  0.50493  0.22317  1.0000
  H   H32       1.0  0.25882  0.55154  0.18791  1.0000
  H   H33       1.0  0.21572  0.58380  0.25467  1.0000
  H   H34       1.0  0.19272  0.53801  0.29166  1.0000
  C   C24       1.0  0.21290  0.44723  0.46712  1.0000
  H   H35       1.0  0.99523  0.47864  0.47384  1.0000
  C   C25       1.0  0.31492  0.41433  0.45387  1.0000
  C   C26       1.0  0.02589  0.38625  0.37632  1.0000
  C   C27       1.0  0.03105  0.41444  0.37137  1.0000
  C   C28       1.0  0.00780  0.41913  0.36571  1.0000
  H   H36       1.0  0.04342  0.38220  0.38084  1.0000
  H   H37       1.0  0.01148  0.44079  0.36169  1.0000
  N   N3        1.0  0.30362  0.54860  0.30198  1.0000
  C   C29       1.0  0.29086  0.52716  0.33367  1.0000
  C   C30       1.0  0.33515  0.56579  0.30666  1.0000
  C   C31       1.0  0.29847  0.53206  0.26878  1.0000
  C   C32       1.0  0.28895  0.56657  0.30127  1.0000
  C   C33       1.0  0.25911  0.50479  0.33235  1.0000
  C   C34       1.0  0.34370  0.58439  0.33917  1.0000
  C   C35       1.0  0.31672  0.54820  0.23448  1.0000
  C   C36       1.0  0.30201  0.59368  0.27579  1.0000
  H   H38       1.0  0.30275  0.51508  0.33736  1.0000
  H   H39       1.0  0.29255  0.53803  0.35889  1.0000
  H   H40       1.0  0.34675  0.58036  0.28311  1.0000
  H   H41       1.0  0.34474  0.55142  0.30869  1.0000
  H   H42       1.0  0.30209  0.51342  0.27355  1.0000
  H   H43       1.0  0.27589  0.52291  0.26200  1.0000
  H   H44       1.0  0.26659  0.55369  0.29374  1.0000
  H   H45       1.0  0.28651  0.57307  0.32847  1.0000
  H   H46       1.0  0.48351  0.37063  0.47613  1.0000
  H   H47       1.0  0.24534  0.51484  0.33072  1.0000
  H   H48       1.0  0.25513  0.49054  0.31005  1.0000
  H   H49       1.0  0.36728  0.59752  0.33809  1.0000
  H   H50       1.0  0.33501  0.59941  0.33900  1.0000
  H   H51       1.0  0.26721  0.55176  0.12234  1.0000
  H   H52       1.0  0.30835  0.53435  0.21171  1.0000
  H   H53       1.0  0.33913  0.55292  0.23633  1.0000
  H   H54       1.0  0.31616  0.56809  0.22737  1.0000
  H   H55       1.0  0.29172  0.58920  0.24996  1.0000
  H   H56       1.0  0.32521  0.60362  0.27040  1.0000
  H   H57       1.0  0.29845  0.61038  0.28795  1.0000
  H   H58       1.0  0.39446  0.53813  0.44514  1.0000
  Fe  Fe11      1.0  0.34368  0.64681  0.10931  1.0000
  C   C37       1.0  0.40981  0.53214  0.49526  1.0000
  C   C38       1.0  0.16416  0.53636  0.48124  1.0000
  H   H59       1.0  0.02273  0.39802  0.29903  1.0000
  S   S19       1.0  0.34754  0.63603  0.05085  1.0000
  H   H60       1.0  0.35680  0.40138  0.47710  1.0000
  C   C39       1.0  0.46422  0.56661  0.46300  1.0000
  H   H61       1.0  0.26148  0.39941  0.48346  1.0000
  H   H62       1.0  0.23112  0.47678  0.42125  1.0000
  H   H63       1.0  0.26027  0.63026  0.02667  1.0000
  H   H64       1.0  0.11653  0.40159  0.30187  1.0000
  H   H65       1.0  0.25079  0.34730  0.41497  1.0000
  C   C40       1.0  0.08628  0.41620  0.23053  1.0000
  H   H66       1.0  0.25217  0.49085  0.35738  1.0000
  H   H67       1.0  0.33228  0.36500  0.46620  1.0000
  H   H68       1.0  0.05300  0.38135  0.29291  1.0000
  H   H69       1.0  0.21824  0.55359  0.04551  1.0000
  C   C41       1.0  0.21991  0.62790  0.36244  1.0000
  C   C42       1.0  0.07469  0.39933  0.29535  1.0000
  H   H70       1.0  0.28371  0.42754  0.43636  1.0000
  H   H71       1.0  0.08649  0.36829  0.31591  1.0000
  H   H72       1.0  0.12363  0.47532  0.22708  1.0000
  C   C43       1.0  0.25245  0.35719  0.44090  1.0000
  H   H73       1.0  0.21275  0.62139  0.41857  1.0000
  H   H74       1.0  0.08970  0.43380  0.21089  1.0000
  S   S20       1.0  0.33214  0.65224  0.21194  1.0000
  H   H75       1.0  0.06338  0.44660  0.29352  1.0000
  C   C44       1.0  0.28041  0.36218  0.45740  1.0000
  H   H76       1.0  0.46258  0.65086  0.47603  1.0000
  C   C45       1.0  0.03177  0.61781  0.49558  1.0000
  H   H77       1.0  0.09532  0.37715  0.26918  1.0000
  H   H78       1.0  0.14179  0.49255  0.26501  1.0000
  H   H79       1.0  0.19820  0.64740  0.47447  1.0000
  H   H80       1.0  0.99436  0.34152  0.37821  1.0000
  C   C46       1.0  0.02869  0.41053  0.27300  1.0000
  H   H81       1.0  0.10629  0.41487  0.22705  1.0000
  C   C47       1.0  0.06035  0.43358  0.26991  1.0000
  C   C48       1.0  0.20686  0.56951  0.09115  1.0000
  C   C49       1.0  0.41305  0.54291  0.45986  1.0000
  H   H82       1.0  0.44495  0.61691  0.45730  1.0000
  N   N4        1.0  0.29567  0.38851  0.47823  1.0000
  C   C50       1.0  0.11032  0.44810  0.27757  1.0000
  H   H83       1.0  0.04761  0.39398  0.20103  1.0000
  H   H84       1.0  0.29135  0.60002  0.08819  1.0000
  C   C51       1.0  0.12063  0.47690  0.25607  1.0000
  C   C52       1.0  0.23548  0.46755  0.44466  1.0000
  H   H85       1.0  0.18484  0.64491  0.41648  1.0000
  H   H86       1.0  0.29247  0.40785  0.40426  1.0000
  H   H87       1.0  0.23944  0.53923  0.09174  1.0000
  H   H88       1.0  0.36385  0.65133  0.28352  1.0000
  C   C53       1.0  0.26990  0.46368  0.48236  1.0000
  H   H89       1.0  0.47457  0.42281  0.47697  1.0000
  C   C54       1.0  0.34279  0.64451  0.00566  1.0000
  H   H90       1.0  0.06312  0.44804  0.24623  1.0000
  C   C55       1.0  0.99798  0.36319  0.37488  1.0000
  S   S21       1.0  0.30588  0.47329  0.48886  1.0000
  C   C56       1.0  0.26376  0.47548  0.45206  1.0000
  H   H91       1.0  0.19994  0.54760  0.10274  1.0000
  Fe  Fe12      1.0  0.48445  0.61691  0.39058  1.0000
  H   H92       1.0  0.29303  0.59553  0.02577  1.0000
  C   C57       1.0  0.22869  0.63869  0.39984  1.0000
  H   H93       1.0  0.10125  0.64456  0.47716  1.0000
  C   C58       1.0  0.09467  0.38617  0.29508  1.0000
  C   C59       1.0  0.06187  0.38883  0.21673  1.0000
  H   H94       1.0  0.04897  0.37210  0.23778  1.0000
  H   H95       1.0  0.07407  0.40648  0.32269  1.0000
  H   H96       1.0  0.23419  0.64298  0.34055  1.0000
  C   C60       1.0  0.26608  0.62411  0.05238  1.0000
  C   C61       1.0  0.41289  0.63772  0.24075  1.0000
  H   H97       1.0  0.33737  0.57126  0.36477  1.0000
  H   H98       1.0  0.16832  0.51961  0.47282  1.0000
  Fe  Fe13      1.0  0.35952  0.63660  0.18537  1.0000
  H   H99       1.0  0.21739  0.58497  0.11160  1.0000
  H   H100      1.0  0.31697  0.44409  0.41167  1.0000
  H   H101      1.0  0.26007  0.59147  0.11358  1.0000
  C   C62       1.0  0.16369  0.58073  0.46821  1.0000
  H   H102      1.0  0.25772  0.63098  0.10859  1.0000
  H   H103      1.0  0.28974  0.63654  0.05229  1.0000
  H   H104      1.0  0.22105  0.60783  0.36009  1.0000
  H   H105      1.0  0.28102  0.49081  0.43409  1.0000
  C   C63       1.0  0.22431  0.57511  0.05517  1.0000
  S   S22       1.0  0.37884  0.61795  0.22383  1.0000
  H   H106      1.0  0.10631  0.48608  0.26104  1.0000
  H   H107      1.0  0.10918  0.45227  0.30624  1.0000
  H   H108      1.0  0.23092  0.62808  0.07828  1.0000
  H   H109      1.0  0.07100  0.37880  0.19892  1.0000
  H   H110      1.0  0.48522  0.57939  0.45041  1.0000
  H   H111      1.0  0.12793  0.44289  0.27438  1.0000
  H   H112      1.0  0.01545  0.42128  0.27212  1.0000
  C   C64       1.0  0.33899  0.38040  0.48742  1.0000
  C   C65       1.0  0.25394  0.63582  0.08102  1.0000
  C   C66       1.0  0.44654  0.64106  0.28500  1.0000
  H   H113      1.0  0.02248  0.39599  0.25098  1.0000
  H   H114      1.0  0.19741  0.62209  0.35874  1.0000
  C   C67       1.0  0.26199  0.55504  0.09479  1.0000
  H   H115      1.0  0.29486  0.36213  0.43545  1.0000
  N   N5        1.0  0.25629  0.59250  0.05575  1.0000
  C   C68       1.0  0.45710  0.62814  0.48034  1.0000
  H   H116      1.0  0.18693  0.57014  0.08606  1.0000
  H   H117      1.0  0.27594  0.55075  0.07644  1.0000
  C   C69       1.0  0.22047  0.65152  0.47514  1.0000
  S   S23       1.0  0.48132  0.65718  0.38773  1.0000
  C   C70       1.0  0.26784  0.58611  0.08890  1.0000
  H   H118      1.0  0.26202  0.56206  0.02454  1.0000
  H   H119      1.0  0.33099  0.41086  0.43869  1.0000
  C   C71       1.0  0.26956  0.58542  0.02424  1.0000
  C   C72       1.0  0.48367  0.38952  0.46270  1.0000
  H   H120      1.0  0.21624  0.58523  0.03558  1.0000
  C   C73       1.0  0.30066  0.42351  0.42518  1.0000
  H   H121      1.0  0.99748  0.50797  0.49639  1.0000
  H   H122      1.0  0.47686  0.62649  0.47957  1.0000
  H   H123      1.0  0.02181  0.62734  0.47839  1.0000
  H   H124      1.0  0.25050  0.37653  0.43527  1.0000
  H   H125      1.0  0.46427  0.38140  0.44729  1.0000
  H   H126      1.0  0.22110  0.63114  0.47475  1.0000
  H   H127      1.0  0.32725  0.43316  0.46988  1.0000
  H   H128      1.0  0.07439  0.64145  0.44840  1.0000
  C   C74       1.0  0.48296  0.40984  0.49034  1.0000
  H   H129      1.0  0.03876  0.60500  0.47970  1.0000
  C   C75       1.0  0.09110  0.65656  0.46517  1.0000
  H   H130      1.0  0.23367  0.34138  0.45790  1.0000
  H   H131      1.0  0.27454  0.34267  0.47500  1.0000
  H   H132      1.0  0.20618  0.49518  0.49501  1.0000
  H   H133      1.0  0.17067  0.65767  0.36589  1.0000
  H   H134      1.0  0.49157  0.60509  0.22549  1.0000
  C   C76       1.0  0.27568  0.39505  0.50011  1.0000
  C   C77       1.0  0.46100  0.55573  0.49838  1.0000
  C   C78       1.0  0.21901  0.43531  0.49740  1.0000
  H   H135      1.0  0.26473  0.65948  0.07700  1.0000
  H   H136      1.0  0.18822  0.44360  0.56878  1.0000
  H   H137      1.0  0.46128  0.58930  0.55416  1.0000
  H   H138      1.0  0.20167  0.41948  0.51484  1.0000
  H   H139      1.0  0.29721  0.50994  0.59389  1.0000
  H   H140      1.0  0.43988  0.62579  0.60462  1.0000
  Fe  Fe14      1.0  0.34577  0.43106  0.58439  1.0000
  S   S24       1.0  0.36826  0.46629  0.62166  1.0000
  S   S25       1.0  0.34500  0.38765  0.58548  1.0000
  Fe  Fe15      1.0  0.32587  0.46715  0.53883  1.0000
  S   S26       1.0  0.34867  0.50535  0.57118  1.0000
  C   C79       1.0  0.23226  0.64788  0.73705  1.0000
  Fe  Fe16      1.0  0.38392  0.49444  0.57112  1.0000
  S   S27       1.0  0.42968  0.52684  0.55956  1.0000
  Fe  Fe17      1.0  0.33073  0.47429  0.61881  1.0000
  S   S28       1.0  0.30733  0.48537  0.66171  1.0000
  S   S29       1.0  0.36339  0.45925  0.53405  1.0000
  S   S30       1.0  0.30598  0.43596  0.58634  1.0000
  Fe  Fe18      1.0  0.34236  0.62442  0.76411  1.0000
  H   H141      1.0  0.27944  0.65539  0.68930  1.0000
  S   S31       1.0  0.36576  0.60274  0.73949  1.0000
  H   H142      1.0  0.15092  0.59741  0.51221  1.0000
  C   C80       1.0  0.19932  0.64834  0.69408  1.0000
  Fe  Fe19      1.0  0.28761  0.62752  0.76704  1.0000
  S   S32       1.0  0.24310  0.60270  0.74743  1.0000
  S   S33       1.0  0.30493  0.60656  0.80463  1.0000
  C   C81       1.0  0.25657  0.37192  0.52926  1.0000
  Fe  Fe20      1.0  0.09608  0.62218  0.59700  1.0000
  S   S34       1.0  0.11641  0.60268  0.63194  1.0000
  S   S35       1.0  0.05183  0.61815  0.60648  1.0000
  S   S36       1.0  0.17458  0.63745  0.57701  1.0000
  Fe  Fe21      1.0  0.13381  0.59599  0.58008  1.0000
  S   S37       1.0  0.13666  0.55628  0.57164  1.0000
  H   H143      1.0  0.27112  0.58372  0.96639  1.0000
  H   H144      1.0  0.48690  0.46867  0.55471  1.0000
  S   S38       1.0  0.11065  0.61208  0.54542  1.0000
  C   C82       1.0  0.22529  0.62005  0.72896  1.0000
  C   C83       1.0  0.20460  0.60608  0.70426  1.0000
  C   C84       1.0  0.19189  0.62028  0.68656  1.0000
  H   H145      1.0  0.40776  0.34220  0.67246  1.0000
  H   H146      1.0  0.19896  0.58448  0.69806  1.0000
  H   H147      1.0  0.17650  0.60957  0.66692  1.0000
  C   C85       1.0  0.49193  0.46181  0.52910  1.0000
  H   H148      1.0  0.35163  0.61250  0.98456  1.0000
  H   H149      1.0  0.35025  0.33707  0.57624  1.0000
  H   H150      1.0  0.47260  0.61170  0.61452  1.0000
  H   H151      1.0  0.34769  0.37227  0.50859  1.0000
  Fe  Fe22      1.0  0.32744  0.64929  0.82968  1.0000
  C   C86       1.0  0.31410  0.38364  0.50405  1.0000
  H   H152      1.0  0.22557  0.45444  0.57154  1.0000
  H   H153      1.0  0.42610  0.57412  0.59910  1.0000
  C   C87       1.0  0.32370  0.51900  0.68114  1.0000
  C   C88       1.0  0.35316  0.53709  0.67758  1.0000
  C   C89       1.0  0.36565  0.56279  0.69524  1.0000
  C   C90       1.0  0.34884  0.57100  0.71605  1.0000
  C   C91       1.0  0.31928  0.55337  0.71861  1.0000
  C   C92       1.0  0.30683  0.52739  0.70150  1.0000
  H   H154      1.0  0.36641  0.53084  0.66217  1.0000
  H   H155      1.0  0.38851  0.57620  0.69322  1.0000
  H   H156      1.0  0.30610  0.55933  0.73467  1.0000
  H   H157      1.0  0.28406  0.51351  0.70456  1.0000
  C   C93       1.0  0.34128  0.63377  0.94216  1.0000
  H   H158      1.0  0.30129  0.36399  0.52175  1.0000
  H   H159      1.0  0.20117  0.43693  0.60870  1.0000
  H   H160      1.0  0.01484  0.60248  0.51524  1.0000
  H   H161      1.0  0.40226  0.57138  0.56474  1.0000
  H   H162      1.0  0.47146  0.45042  0.51621  1.0000
  H   H163      1.0  0.27639  0.49547  0.55674  1.0000
  H   H164      1.0  0.34371  0.62141  0.92151  1.0000
  C   C94       1.0  0.43377  0.53870  0.51462  1.0000
  C   C95       1.0  0.43855  0.61413  0.51512  1.0000
  H   H165      1.0  0.48978  0.62071  0.53359  1.0000
  H   H166      1.0  0.43803  0.37974  0.75592  1.0000
  H   H167      1.0  0.15076  0.51817  0.53527  1.0000
  Fe  Fe23      1.0  0.15589  0.64561  0.62661  1.0000
  H   H168      1.0  0.47957  0.56060  0.51318  1.0000
  C   C96       1.0  0.01654  0.56703  0.57602  1.0000
  C   C97       1.0  0.01876  0.59079  0.59293  1.0000
  C   C98       1.0  0.33366  0.65467  0.93308  1.0000
  H   H169      1.0  0.03533  0.56483  0.57120  1.0000
  H   H170      1.0  0.27648  0.61711  0.98030  1.0000
  C   C99       1.0  0.42231  0.37120  0.58282  1.0000
  C   C100      1.0  0.42610  0.39878  0.58754  1.0000
  C   C101      1.0  0.40287  0.40425  0.58782  1.0000
  C   C102      1.0  0.37527  0.38207  0.58395  1.0000
  C   C103      1.0  0.37144  0.35444  0.57927  1.0000
  C   C104      1.0  0.39478  0.34905  0.57843  1.0000
  H   H171      1.0  0.44712  0.41613  0.59133  1.0000
  H   H172      1.0  0.40626  0.42559  0.59160  1.0000
  H   H173      1.0  0.99553  0.61158  0.61196  1.0000
  H   H174      1.0  0.06659  0.62897  0.52959  1.0000
  C   C105      1.0  0.43605  0.37086  0.72922  1.0000
  H   H175      1.0  0.43071  0.59078  0.51419  1.0000
  C   C106      1.0  0.41294  0.58308  0.58826  1.0000
  C   C107      1.0  0.43047  0.61564  0.57959  1.0000
  H   H176      1.0  0.41493  0.62314  0.57368  1.0000
  N   N6        1.0  0.45293  0.62499  0.54941  1.0000
  C   C108      1.0  0.27715  0.63095  0.64474  1.0000
  H   H177      1.0  0.32336  0.40134  0.52239  1.0000
  H   H178      1.0  0.20197  0.51960  0.52208  1.0000
  N   N7        1.0  0.23216  0.50861  0.58075  1.0000
  C   C109      1.0  0.22468  0.53179  0.58862  1.0000
  C   C110      1.0  0.23269  0.50658  0.54073  1.0000
  C   C111      1.0  0.26158  0.51802  0.59341  1.0000
  C   C112      1.0  0.21043  0.48112  0.60056  1.0000
  C   C113      1.0  0.22627  0.53999  0.62785  1.0000
  C   C114      1.0  0.20493  0.50048  0.52314  1.0000
  C   C115      1.0  0.27500  0.49897  0.58548  1.0000
  C   C116      1.0  0.20664  0.45293  0.58594  1.0000
  H   H179      1.0  0.23866  0.55176  0.57191  1.0000
  H   H180      1.0  0.20254  0.52547  0.58150  1.0000
  H   H181      1.0  0.23785  0.48992  0.53244  1.0000
  H   H182      1.0  0.25005  0.52678  0.52746  1.0000
  H   H183      1.0  0.27675  0.53990  0.58177  1.0000
  H   H184      1.0  0.26179  0.51944  0.62294  1.0000
  H   H185      1.0  0.21528  0.48103  0.62918  1.0000
  H   H186      1.0  0.18897  0.47952  0.60047  1.0000
  H   H187      1.0  0.21411  0.52114  0.64677  1.0000
  H   H188      1.0  0.24860  0.55220  0.63558  1.0000
  H   H189      1.0  0.21677  0.55425  0.63101  1.0000
  H   H190      1.0  0.46628  0.39633  0.51157  1.0000
  H   H191      1.0  0.45789  0.33404  0.64934  1.0000
  H   H192      1.0  0.28798  0.41518  0.51379  1.0000
  C   C117      1.0  0.26388  0.59375  0.98676  1.0000
  H   H193      1.0  0.26304  0.61066  0.66066  1.0000
  H   H194      1.0  0.24777  0.65858  0.75653  1.0000
  H   H195      1.0  0.41641  0.36939  0.71862  1.0000
  H   H196      1.0  0.45685  0.36444  0.66203  1.0000
  H   H197      1.0  0.25178  0.43443  0.52865  1.0000
  S   S39       1.0  0.45276  0.36592  0.58317  1.0000
  S   S40       1.0  0.32367  0.64277  0.72552  1.0000
  H   H198      1.0  0.29910  0.63434  0.64640  1.0000
  C   C118      1.0  0.47007  0.65712  0.54746  1.0000
  C   C119      1.0  0.34581  0.62879  0.97809  1.0000
  H   H199      1.0  0.49183  0.42673  0.55894  1.0000
  C   C120      1.0  0.15457  0.53573  0.51664  1.0000
  C   C121      1.0  0.15457  0.58036  0.50371  1.0000
  H   H200      1.0  0.24588  0.35025  0.51912  1.0000
  H   H201      1.0  0.26892  0.37207  0.55248  1.0000
  H   H202      1.0  0.18592  0.48214  0.53673  1.0000
  H   H203      1.0  0.27065  0.62764  0.61689  1.0000
  C   C122      1.0  0.27359  0.65512  0.66115  1.0000
  C   C123      1.0  0.14954  0.55761  0.52779  1.0000
  Fe  Fe24      1.0  0.15026  0.65469  0.54714  1.0000
  H   H204      1.0  0.39598  0.57865  0.60924  1.0000
  H   H205      1.0  0.38871  0.51927  0.50766  1.0000
  C   C124      1.0  0.05641  0.64026  0.51599  1.0000
  H   H206      1.0  0.26416  0.47843  0.60176  1.0000
  H   H207      1.0  0.04610  0.64625  0.53778  1.0000
  C   C125      1.0  0.48869  0.35686  0.68657  1.0000
  H   H208      1.0  0.23979  0.37675  0.53944  1.0000
  C   C126      1.0  0.45851  0.34581  0.67333  1.0000
  C   C127      1.0  0.24738  0.44372  0.50525  1.0000
  Fe  Fe25      1.0  0.46551  0.33076  0.57674  1.0000
  C   C128      1.0  0.43461  0.34140  0.73351  1.0000
  H   H209      1.0  0.45294  0.34463  0.74914  1.0000
  C   C129      1.0  0.47272  0.61288  0.55538  1.0000
  H   H210      1.0  0.23954  0.64732  0.60445  1.0000
  H   H211      1.0  0.41900  0.61618  0.51337  1.0000
  C   C130      1.0  0.99402  0.59320  0.59903  1.0000
  H   H212      1.0  0.25052  0.64823  0.66272  1.0000
  H   H213      1.0  0.45490  0.38642  0.71222  1.0000
  C   C131      1.0  0.48779  0.61947  0.59080  1.0000
  H   H214      1.0  0.49070  0.36272  0.71461  1.0000
  H   H215      1.0  0.24100  0.58631  0.98347  1.0000
  H   H216      1.0  0.43447  0.66130  0.52420  1.0000
  H   H217      1.0  0.22802  0.66029  0.50139  1.0000
  S   S41       1.0  0.32769  0.66223  0.88812  1.0000
  C   C132      1.0  0.21913  0.66187  0.71986  1.0000
  H   H218      1.0  0.35652  0.96073  0.35082  1.0000
  Fe  Fe26      1.0  0.35063  0.68742  0.16903  1.0000
  C   C133      1.0  0.19394  0.67152  0.36776  1.0000
  S   S42       1.0  0.36926  0.73282  0.18654  1.0000
  H   H219      1.0  0.10330  0.68927  0.42100  1.0000
  H   H220      1.0  0.27378  0.73541  0.36634  1.0000
  H   H221      1.0  0.47004  0.96505  0.25209  1.0000
  H   H222      1.0  0.27295  0.72891  0.41317  1.0000
  H   H223      1.0  0.19766  0.69378  0.36433  1.0000
  C   C134      1.0  0.38307  0.73191  0.30335  1.0000
  Fe  Fe27      1.0  0.34073  0.85810  0.37274  1.0000
  S   S43       1.0  0.36241  0.84311  0.33310  1.0000
  S   S44       1.0  0.34485  0.90259  0.36369  1.0000
  Fe  Fe28      1.0  0.31771  0.80283  0.42139  1.0000
  S   S45       1.0  0.33933  0.78501  0.38668  1.0000
  S   S46       1.0  0.29701  0.77755  0.47411  1.0000
  Fe  Fe29      1.0  0.37622  0.82926  0.38202  1.0000
  S   S47       1.0  0.42070  0.83645  0.38449  1.0000
  Fe  Fe30      1.0  0.32343  0.79993  0.34068  1.0000
  S   S48       1.0  0.30166  0.76650  0.30041  1.0000
  S   S49       1.0  0.35665  0.84614  0.42139  1.0000
  S   S50       1.0  0.29952  0.81576  0.37570  1.0000
  C   C135      1.0  0.42313  0.74853  0.25906  1.0000
  H   H224      1.0  0.33292  0.67791  0.01718  1.0000
  C   C136      1.0  0.41833  0.91542  0.31260  1.0000
  C   C137      1.0  0.35026  0.74173  0.21845  1.0000
  C   C138      1.0  0.36382  0.76869  0.23288  1.0000
  C   C139      1.0  0.34951  0.77619  0.25893  1.0000
  C   C140      1.0  0.32119  0.75708  0.26997  1.0000
  C   C141      1.0  0.30763  0.73017  0.25546  1.0000
  C   C142      1.0  0.32219  0.72236  0.23017  1.0000
  H   H225      1.0  0.38545  0.78387  0.22380  1.0000
  H   H226      1.0  0.36007  0.79705  0.26967  1.0000
  H   H227      1.0  0.28566  0.71536  0.26362  1.0000
  H   H228      1.0  0.31148  0.70159  0.21917  1.0000
  C   C143      1.0  0.45780  0.85290  0.47835  1.0000
  H   H229      1.0  0.19705  0.72842  0.44181  1.0000
  H   H230      1.0  0.24095  0.72309  0.39182  1.0000
  H   H231      1.0  0.44990  0.70720  0.33524  1.0000
  C   C144      1.0  0.41379  0.94122  0.26022  1.0000
  C   C145      1.0  0.43900  0.74108  0.22989  1.0000
  C   C146      1.0  0.43527  0.88237  0.47171  1.0000
  H   H232      1.0  0.48855  0.93110  0.48025  1.0000
  C   C147      1.0  0.43998  0.96751  0.31182  1.0000
  H   H233      1.0  0.42387  0.72618  0.21133  1.0000
  S   S51       1.0  0.38014  0.67315  0.14393  1.0000
  C   C148      1.0  0.43398  0.85208  0.42450  1.0000
  C   C149      1.0  0.44990  0.84296  0.44440  1.0000
  H   H234      1.0  0.45532  0.82745  0.43411  1.0000
  C   C150      1.0  0.39523  0.93686  0.39631  1.0000
  C   C151      1.0  0.37296  0.93560  0.37678  1.0000
  C   C152      1.0  0.37364  0.96140  0.36583  1.0000
  H   H235      1.0  0.39498  0.91728  0.40512  1.0000
  H   H236      1.0  0.47622  0.69913  0.22622  1.0000
  H   H237      1.0  0.45538  0.91173  0.33092  1.0000
  H   H238      1.0  0.40941  0.75508  0.24418  1.0000
  H   H239      1.0  0.41597  0.88031  0.42190  1.0000
  H   H240      1.0  0.40697  0.92149  0.24555  1.0000
  H   H241      1.0  0.43653  0.74773  0.32667  1.0000
  H   H242      1.0  0.36715  0.72888  0.28336  1.0000
  N   N8        1.0  0.40558  0.72552  0.28788  1.0000
  C   C153      1.0  0.39653  0.98813  0.37358  1.0000
  N   N9        1.0  0.43320  0.94264  0.28911  1.0000
  H   H243      1.0  0.47961  0.92651  0.23925  1.0000
  C   C154      1.0  0.37171  0.67117  0.29814  1.0000
  H   H244      1.0  0.45561  0.96953  0.33173  1.0000
  H   H245      1.0  0.37525  0.76407  0.32728  1.0000
  H   H246      1.0  0.42079  0.96396  0.32785  1.0000
  C   C155      1.0  0.26040  0.72097  0.38929  1.0000
  H   H247      1.0  0.40505  0.69130  0.25742  1.0000
  H   H248      1.0  0.37646  0.69772  0.25077  1.0000
  C   C156      1.0  0.42376  0.72570  0.31774  1.0000
  C   C157      1.0  0.39026  0.69689  0.27178  1.0000
  C   C158      1.0  0.21202  0.72972  0.46117  1.0000
  H   H249      1.0  0.39906  0.91369  0.32684  1.0000
  H   H250      1.0  0.47682  0.96105  0.45820  1.0000
  H   H251      1.0  0.43511  0.96415  0.41912  1.0000
  C   C159      1.0  0.38600  0.94097  0.27282  1.0000
  C   C160      1.0  0.24085  0.75061  0.45571  1.0000
  H   H252      1.0  0.43923  0.76823  0.27094  1.0000
  H   H253      1.0  0.40807  0.76633  0.33917  1.0000
  H   H254      1.0  0.42277  0.89062  0.35641  1.0000
  H   H255      1.0  0.45367  0.76084  0.21347  1.0000
  C   C161      1.0  0.41801  0.96354  0.40420  1.0000
  H   H256      1.0  0.38521  0.83504  0.49847  1.0000
  H   H257      1.0  0.24903  0.68703  0.35428  1.0000
  H   H258      1.0  0.44353  0.91528  0.22990  1.0000
  H   H259      1.0  0.27411  0.68951  0.38462  1.0000
  C   C162      1.0  0.39384  0.76216  0.31685  1.0000
  H   H260      1.0  0.37076  0.71675  0.32642  1.0000
  H   H261      1.0  0.24794  0.76538  0.43239  1.0000
  C   C163      1.0  0.26043  0.75229  0.48037  1.0000
  C   C164      1.0  0.42733  0.87237  0.43774  1.0000
  C   C165      1.0  0.46706  0.66739  0.26905  1.0000
  H   H262      1.0  0.45187  0.90154  0.26983  1.0000
  H   H263      1.0  0.37184  0.92159  0.29007  1.0000
  C   C166      1.0  0.45834  0.92078  0.25172  1.0000
  H   H264      1.0  0.43724  0.69669  0.29315  1.0000
  H   H265      1.0  0.37398  0.94048  0.24912  1.0000
  H   H266      1.0  0.44166  0.92795  0.36199  1.0000
  H   H267      1.0  0.10604  0.72183  0.46350  1.0000
  C   C167      1.0  0.46042  0.67881  0.23879  1.0000
  H   H268      1.0  0.45186  0.73192  0.24080  1.0000
  H   H269      1.0  0.24193  0.69415  0.45231  1.0000
  H   H270      1.0  0.38398  0.66912  0.32012  1.0000
  C   C168      1.0  0.11324  0.67976  0.43833  1.0000
  C   C169      1.0  0.44539  0.71520  0.30986  1.0000
  H   H271      1.0  0.40457  0.77915  0.29516  1.0000
  H   H272      1.0  0.41023  0.89636  0.29635  1.0000
  H   H273      1.0  0.46577  0.73268  0.29757  1.0000
  H   H274      1.0  0.41059  0.71351  0.34229  1.0000
  H   H275      1.0  0.38982  0.96027  0.28678  1.0000
  H   H276      1.0  0.47686  0.95134  0.29199  1.0000
  H   H277      1.0  0.42961  0.89764  0.48213  1.0000
  H   H278      1.0  0.13147  0.69668  0.45124  1.0000
  C   C170      1.0  0.08312  0.71460  0.46817  1.0000
  H   H279      1.0  0.35270  0.67201  0.30897  1.0000
  H   H280      1.0  0.42513  0.95919  0.23966  1.0000
  C   C171      1.0  0.46060  0.94637  0.27187  1.0000
  C   C172      1.0  0.25377  0.69017  0.38273  1.0000
  H   H281      1.0  0.20127  0.68212  0.42213  1.0000
  C   C173      1.0  0.43599  0.91172  0.34186  1.0000
  H   H282      1.0  0.05271  0.67194  0.45477  1.0000
  H   H283      1.0  0.08025  0.72780  0.48836  1.0000
  C   C174      1.0  0.06405  0.68235  0.47877  1.0000
  H   H284      1.0  0.07601  0.71991  0.44292  1.0000
  C   C175      1.0  0.24015  0.67344  0.44510  1.0000
  H   H285      1.0  0.38398  0.79797  0.47401  1.0000
  H   H286      1.0  0.37294  0.76129  0.48383  1.0000
  C   C176      1.0  0.43334  0.66416  0.22485  1.0000
  C   C177      1.0  0.20220  0.66593  0.40518  1.0000
  N   N10       1.0  0.23074  0.66707  0.40746  1.0000
  H   H287      1.0  0.26181  0.67584  0.44740  1.0000
  H   H288      1.0  0.42843  0.67310  0.20153  1.0000
  C   C178      1.0  0.20254  0.71047  0.49137  1.0000
  C   C179      1.0  0.41899  0.98938  0.39266  1.0000
  S   S52       1.0  0.31590  0.66412  0.13146  1.0000
  C   C180      1.0  0.38121  0.78223  0.49597  1.0000
  C   C181      1.0  0.44992  0.87208  0.49236  1.0000
  H   H289      1.0  0.46947  0.84514  0.49381  1.0000
  S   S53       1.0  0.16661  0.68336  0.49612  1.0000
  H   H290      1.0  0.04728  0.68095  0.49835  1.0000
  H   H291      1.0  0.12228  0.66967  0.42047  1.0000
  N   N11       1.0  0.07843  0.66650  0.49421  1.0000
  H   H292      1.0  0.20432  0.66700  0.34493  1.0000
  H   H293      1.0  0.49067  0.99553  0.43646  1.0000
  H   H294      1.0  0.44655  0.67905  0.56480  1.0000
  S   S54       1.0  0.45781  0.88262  0.53596  1.0000
  H   H295      1.0  0.36293  0.72589  0.87348  1.0000
  H   H296      1.0  0.32657  0.69292  0.67313  1.0000
  Fe  Fe31      1.0  0.34492  0.68245  0.75554  1.0000
  S   S55       1.0  0.36276  0.72663  0.72731  1.0000
  H   H297      1.0  0.29393  0.70567  0.59077  1.0000
  H   H298      1.0  0.36394  0.73026  0.63478  1.0000
  H   H299      1.0  0.32496  0.68678  0.95410  1.0000
  C   C182      1.0  0.35211  0.74316  0.82874  1.0000
  C   C183      1.0  0.45344  0.67334  0.53956  1.0000
  H   H300      1.0  0.41320  0.82492  0.53852  1.0000
  H   H301      1.0  0.43736  0.74099  0.85145  1.0000
  H   H302      1.0  0.40081  0.76322  0.78462  1.0000
  C   C184      1.0  0.40017  0.79668  0.58597  1.0000
  H   H303      1.0  0.32916  0.72736  0.83350  1.0000
  C   C185      1.0  0.41317  0.80063  0.83572  1.0000
  H   H304      1.0  0.35592  0.74765  0.79945  1.0000
  C   C186      1.0  0.32143  0.69434  0.64490  1.0000
  C   C187      1.0  0.41289  0.77512  0.85697  1.0000
  C   C188      1.0  0.40970  0.75135  0.79934  1.0000
  H   H305      1.0  0.31532  0.72844  0.69681  1.0000
  H   H306      1.0  0.40837  0.81345  0.85460  1.0000
  H   H307      1.0  0.40025  0.73028  0.78713  1.0000
  C   C189      1.0  0.44197  0.76669  0.78918  1.0000
  H   H308      1.0  0.46735  0.69325  0.52291  1.0000
  H   H309      1.0  0.21493  0.69780  0.53974  1.0000
  H   H310      1.0  0.45421  0.78525  0.80523  1.0000
  H   H311      1.0  0.43481  0.81535  0.82357  1.0000
  H   H312      1.0  0.40222  0.78732  0.50598  1.0000
  C   C190      1.0  0.45224  0.77846  0.67216  1.0000
  C   C191      1.0  0.44417  0.75203  0.69045  1.0000
  C   C192      1.0  0.41651  0.73539  0.70644  1.0000
  C   C193      1.0  0.39687  0.74541  0.70494  1.0000
  C   C194      1.0  0.40481  0.77170  0.68636  1.0000
  C   C195      1.0  0.43231  0.78807  0.66982  1.0000
  H   H313      1.0  0.45951  0.74451  0.69253  1.0000
  H   H314      1.0  0.41065  0.71517  0.72062  1.0000
  H   H315      1.0  0.38983  0.77972  0.68536  1.0000
  H   H316      1.0  0.43850  0.80866  0.65650  1.0000
  H   H317      1.0  0.47161  0.94511  0.52387  1.0000
  H   H318      1.0  0.26576  0.73425  0.53001  1.0000
  H   H319      1.0  0.34112  0.72622  0.59946  1.0000
  H   H320      1.0  0.40080  0.77189  0.88301  1.0000
  H   H321      1.0  0.36506  0.86811  0.51819  1.0000
  C   C196      1.0  0.34574  0.79918  0.57637  1.0000
  H   H322      1.0  0.28092  0.72289  0.71061  1.0000
  H   H323      1.0  0.30601  0.77468  0.54953  1.0000
  H   H324      1.0  0.11945  0.70282  0.50494  1.0000
  H   H325      1.0  0.35545  0.76241  0.84246  1.0000
  H   H326      1.0  0.34245  0.77972  0.59215  1.0000
  H   H327      1.0  0.38576  0.79028  0.61035  1.0000
  H   H328      1.0  0.31627  0.81205  0.55218  1.0000
  C   C197      1.0  0.48643  0.96791  0.52767  1.0000
  H   H329      1.0  0.48136  0.98195  0.51057  1.0000
  H   H330      1.0  0.38460  0.70616  0.90231  1.0000
  C   C198      1.0  0.29239  0.71262  0.69797  1.0000
  H   H331      1.0  0.48877  0.66511  0.52795  1.0000
  H   H332      1.0  0.35587  0.76161  0.54477  1.0000
  C   C199      1.0  0.40723  0.72193  0.89585  1.0000
  H   H333      1.0  0.45057  0.75160  0.79169  1.0000
  C   C200      1.0  0.22203  0.71245  0.51633  1.0000
  H   H334      1.0  0.34856  0.82086  0.50464  1.0000
  N   N12       1.0  0.36745  0.80644  0.54568  1.0000
  C   C201      1.0  0.28167  0.70419  0.66032  1.0000
  H   H335      1.0  0.40179  0.83709  0.57532  1.0000
  S   S56       1.0  0.13437  0.66631  0.59649  1.0000
  C   C202      1.0  0.34181  0.72482  0.62890  1.0000
  S   S57       1.0  0.36658  0.66570  0.79182  1.0000
  H   H336      1.0  0.39756  0.79494  0.81497  1.0000
  N   N13       1.0  0.40153  0.74730  0.83884  1.0000
  H   H337      1.0  0.28862  0.69414  0.71596  1.0000
  H   H338      1.0  0.36334  0.85466  0.56228  1.0000
  C   C203      1.0  0.37394  0.85745  0.53557  1.0000
  H   H339      1.0  0.44576  0.77478  0.76074  1.0000
  H   H340      1.0  0.41340  0.74093  0.91161  1.0000
  H   H341      1.0  0.42216  0.80763  0.59510  1.0000
  C   C204      1.0  0.10134  0.68388  0.51889  1.0000
  H   H342      1.0  0.30190  0.78804  0.59082  1.0000
  H   H343      1.0  0.36175  0.70874  0.83351  1.0000
  H   H344      1.0  0.28883  0.72434  0.64361  1.0000
  H   H345      1.0  0.39711  0.87189  0.53720  1.0000
  N   N14       1.0  0.29015  0.68439  0.64244  1.0000
  C   C205      1.0  0.36959  0.73009  0.84455  1.0000
  C   C206      1.0  0.39637  0.81767  0.56041  1.0000
  H   H346      1.0  0.35338  0.81619  0.59581  1.0000
  C   C207      1.0  0.41376  0.72967  0.85530  1.0000
  H   H347      1.0  0.33767  0.74118  0.64072  1.0000
  H   H348      1.0  0.43535  0.78254  0.86362  1.0000
  H   H349      1.0  0.41961  0.71149  0.90505  1.0000
  H   H350      1.0  0.40629  0.70923  0.84186  1.0000
  H   H351      1.0  0.39765  0.77754  0.57262  1.0000
  C   C208      1.0  0.31594  0.79327  0.56616  1.0000
  C   C209      1.0  0.33076  0.67049  0.96063  1.0000
  C   C210      1.0  0.09165  0.69439  0.55154  1.0000
  C   C211      1.0  0.25085  0.73322  0.51078  1.0000
  C   C212      1.0  0.36815  0.82901  0.51982  1.0000
  S   S58       1.0  0.47686  0.82037  0.55863  1.0000
  C   C213      1.0  0.28351  0.68367  0.60367  1.0000
  H   H352      1.0  0.11114  0.67115  0.52938  1.0000
  H   H353      1.0  0.24947  0.67256  0.56722  1.0000
  H   H354      1.0  0.33912  0.77281  0.51330  1.0000
  S   S59       1.0  0.48792  0.79976  0.65514  1.0000
  C   C214      1.0  0.35963  0.77982  0.52603  1.0000
  H   H355      1.0  0.24124  0.68149  0.60969  1.0000
  H   H356      1.0  0.22466  0.68343  0.72614  1.0000
  H   H357      1.0  0.25809  0.69446  0.66314  1.0000
  H   H358      1.0  0.07851  0.70439  0.54445  1.0000
  H   H359      1.0  0.11074  0.71062  0.56416  1.0000
  H   H360      1.0  0.07980  0.67676  0.57223  1.0000
  H   H361      1.0  0.47989  0.66477  0.57322  1.0000
  H   H362      1.0  0.48228  0.97145  0.55574  1.0000
  H   H363      1.0  0.32762  0.68009  0.63083  1.0000
  C   C215      1.0  0.33522  0.66547  0.99657  1.0000
  H   H364      1.0  0.29245  0.67203  0.58855  1.0000
  S   S60       1.0  0.30711  0.66869  0.79424  1.0000
  C   C216      1.0  0.25161  0.67046  0.59636  1.0000
  Fe  Fe32      1.0  0.48653  0.86618  0.55504  1.0000
  S   S61       1.0  0.18546  0.66757  0.67044  1.0000
  S   S62       1.0  0.51618  0.15369  0.38971  1.0000
  H   H365      1.0  0.63700  0.22002  0.16685  1.0000
  S   S63       1.0  0.57281  0.12896  0.39527  1.0000
  Fe  Fe33      1.0  0.84161  0.31096  0.41399  1.0000
  S   S64       1.0  0.82209  0.28954  0.46884  1.0000
  S   S65       1.0  0.85663  0.29453  0.36861  1.0000
  Fe  Fe34      1.0  0.63949  0.27923  0.20095  1.0000
  S   S66       1.0  0.61755  0.23723  0.23477  1.0000
  H   H366      1.0  0.51438  0.20571  0.24742  1.0000
  S   S67       1.0  0.67633  0.28561  0.16410  1.0000
  S   S68       1.0  0.65849  0.29004  0.06731  1.0000
  C   C217      1.0  0.56453  0.22584  0.11484  1.0000
  Fe  Fe35      1.0  0.52761  0.11894  0.39128  1.0000
  H   H367      1.0  0.66901  0.17787  0.36450  1.0000
  H   H368      1.0  0.54904  0.15337  0.44456  1.0000
  H   H369      1.0  0.51603  0.06112  0.47910  1.0000
  C   C218      1.0  0.76438  0.20598  0.45806  1.0000
  C   C219      1.0  0.55367  0.17856  0.16997  1.0000
  H   H370      1.0  0.57992  0.16477  0.06858  1.0000
  N   N15       1.0  0.51901  0.23638  0.39748  1.0000
  H   H371      1.0  0.79828  0.24013  0.42482  1.0000
  C   C220      1.0  0.58583  0.14820  0.43312  1.0000
  C   C221      1.0  0.61188  0.15265  0.44502  1.0000
  H   H372      1.0  0.62444  0.14553  0.42974  1.0000
  C   C222      1.0  0.52603  0.18091  0.28280  1.0000
  C   C223      1.0  0.54860  0.17729  0.29434  1.0000
  C   C224      1.0  0.57641  0.19503  0.27960  1.0000
  C   C225      1.0  0.58222  0.21700  0.25364  1.0000
  C   C226      1.0  0.55978  0.22107  0.24237  1.0000
  C   C227      1.0  0.53172  0.20281  0.25660  1.0000
  H   H373      1.0  0.54461  0.16043  0.31423  1.0000
  H   H374      1.0  0.59354  0.19155  0.28834  1.0000
  H   H375      1.0  0.56394  0.23780  0.22222  1.0000
  H   H376      1.0  0.90845  0.23759  0.42258  1.0000
  N   N16       1.0  0.70846  0.22396  0.40496  1.0000
  C   C228      1.0  0.73512  0.23065  0.38264  1.0000
  C   C229      1.0  0.69253  0.19211  0.41357  1.0000
  C   C230      1.0  0.71722  0.23966  0.43901  1.0000
  C   C231      1.0  0.69153  0.23405  0.38326  1.0000
  C   C232      1.0  0.75658  0.26265  0.37478  1.0000
  C   C233      1.0  0.68294  0.17318  0.38141  1.0000
  C   C234      1.0  0.69749  0.22585  0.47314  1.0000
  C   C235      1.0  0.66158  0.22597  0.39881  1.0000
  H   H377      1.0  0.74677  0.22068  0.39556  1.0000
  H   H378      1.0  0.72995  0.22146  0.35606  1.0000
  H   H379      1.0  0.67303  0.18574  0.43078  1.0000
  H   H380      1.0  0.70572  0.18543  0.42948  1.0000
  H   H381      1.0  0.73810  0.24224  0.44672  1.0000
  H   H382      1.0  0.72062  0.26183  0.43497  1.0000
  H   H383      1.0  0.70310  0.25774  0.37892  1.0000
  H   H384      1.0  0.68904  0.22589  0.35601  1.0000
  C   C236      1.0  0.79326  0.25444  0.47607  1.0000
  H   H385      1.0  0.94206  0.25833  0.44280  1.0000
  Fe  Fe36      1.0  0.83846  0.31603  0.33304  1.0000
  C   C237      1.0  0.78889  0.30783  0.26936  1.0000
  H   H386      1.0  0.93884  0.30265  0.43198  1.0000
  H   H387      1.0  0.64087  0.16791  0.48707  1.0000
  H   H388      1.0  0.69788  0.20621  0.48287  1.0000
  H   H389      1.0  0.52255  0.20789  0.36068  1.0000
  H   H390      1.0  0.53158  0.26612  0.46460  1.0000
  H   H391      1.0  0.64762  0.20255  0.40237  1.0000
  H   H392      1.0  0.65132  0.23394  0.37966  1.0000
  H   H393      1.0  0.66230  0.23615  0.42411  1.0000
  H   H394      1.0  0.55540  0.23752  0.36914  1.0000
  H   H395      1.0  0.71237  0.29641  0.09608  1.0000
  H   H396      1.0  0.62171  0.24814  0.12085  1.0000
  C   C238      1.0  0.89412  0.30013  0.47070  1.0000
  H   H397      1.0  0.75555  0.26770  0.25327  1.0000
  H   H398      1.0  0.56181  0.23122  0.14260  1.0000
  C   C239      1.0  0.91865  0.28195  0.43260  1.0000
  H   H399      1.0  0.54008  0.15575  0.17915  1.0000
  H   H400      1.0  0.77583  0.26448  0.36036  1.0000
  C   C240      1.0  0.87471  0.24833  0.46943  1.0000
  H   H401      1.0  0.73086  0.28936  0.21954  1.0000
  H   H402      1.0  0.75955  0.19025  0.43838  1.0000
  H   H403      1.0  0.57178  0.20524  0.05809  1.0000
  H   H404      1.0  0.56138  0.24340  0.44771  1.0000
  H   H405      1.0  0.57314  0.16687  0.12814  1.0000
  C   C241      1.0  0.62091  0.16484  0.47766  1.0000
  C   C242      1.0  0.74992  0.30283  0.23289  1.0000
  H   H406      1.0  0.52006  0.23098  0.31016  1.0000
  H   H407      1.0  0.67021  0.15049  0.39161  1.0000
  H   H408      1.0  0.84884  0.25860  0.43364  1.0000
  H   H409      1.0  0.90704  0.28448  0.40994  1.0000
  H   H410      1.0  0.55452  0.25943  0.31730  1.0000
  H   H411      1.0  0.70124  0.17471  0.36503  1.0000
  H   H412      1.0  0.61599  0.18771  0.08101  1.0000
  S   S69       1.0  0.49478  0.09313  0.43453  1.0000
  C   C243      1.0  0.76396  0.29060  0.25203  1.0000
  C   C244      1.0  0.65978  0.30191  0.02147  1.0000
  H   H413      1.0  0.54257  0.21197  0.10635  1.0000
  H   H414      1.0  0.61597  0.18996  0.14338  1.0000
  H   H415      1.0  0.93843  0.26490  0.39681  1.0000
  C   C245      1.0  0.59843  0.18665  0.06560  1.0000
  C   C246      1.0  0.74323  0.28783  0.12043  1.0000
  H   H416      1.0  0.72627  0.26532  0.12605  1.0000
  H   H417      1.0  0.64458  0.22128  0.11955  1.0000
  C   C247      1.0  0.57381  0.07998  0.49470  1.0000
  H   H418      1.0  0.55914  0.27398  0.40612  1.0000
  H   H419      1.0  0.55420  0.10651  0.48835  1.0000
  C   C248      1.0  0.74831  0.19805  0.49083  1.0000
  C   C249      1.0  0.57662  0.25406  0.09141  1.0000
  H   H420      1.0  0.54078  0.18930  0.17479  1.0000
  Fe  Fe37      1.0  0.66079  0.30674  0.12395  1.0000
  H   H421      1.0  0.60607  0.19038  0.03699  1.0000
  C   C250      1.0  0.57847  0.16936  0.48579  1.0000
  H   H422      1.0  0.86655  0.24126  0.41216  1.0000
  H   H423      1.0  0.59925  0.26879  0.09548  1.0000
  H   H424      1.0  0.55801  0.21530  0.41919  1.0000
  C   C251      1.0  0.51820  0.21731  0.42855  1.0000
  C   C252      1.0  0.54716  0.22141  0.44000  1.0000
  C   C253      1.0  0.85592  0.24249  0.43734  1.0000
  H   H425      1.0  0.54334  0.16945  0.11514  1.0000
  C   C254      1.0  0.60777  0.22683  0.13443  1.0000
  H   H426      1.0  0.54331  0.20683  0.46393  1.0000
  H   H427      1.0  0.50545  0.19449  0.42298  1.0000
  S   S70       1.0  0.66489  0.32064  0.22679  1.0000
  H   H428      1.0  0.53971  0.29936  0.44245  1.0000
  H   H429      1.0  0.88218  0.30085  0.44746  1.0000
  C   C255      1.0  0.53252  0.24684  0.32960  1.0000
  C   C256      1.0  0.78642  0.23419  0.45040  1.0000
  S   S71       1.0  0.80683  0.29189  0.29166  1.0000
  S   S72       1.0  0.50080  0.09532  0.34713  1.0000
  H   H430      1.0  0.60211  0.23213  0.16083  1.0000
  C   C257      1.0  0.62719  0.21351  0.14084  1.0000
  C   C258      1.0  0.56296  0.18051  0.13014  1.0000
  H   H431      1.0  0.57426  0.25015  0.06257  1.0000
  H   H432      1.0  0.76390  0.27441  0.39932  1.0000
  H   H433      1.0  0.71500  0.30236  0.02243  1.0000
  C   C259      1.0  0.53276  0.23116  0.36502  1.0000
  H   H434      1.0  0.57218  0.18726  0.18695  1.0000
  H   H435      1.0  0.60778  0.23051  0.06477  1.0000
  H   H436      1.0  0.73330  0.28819  0.06612  1.0000
  H   H437      1.0  0.56455  0.26536  0.09835  1.0000
  H   H438      1.0  0.83637  0.22149  0.44256  1.0000
  C   C260      1.0  0.58989  0.20938  0.07501  1.0000
  H   H439      1.0  0.67522  0.22063  0.46975  1.0000
  H   H440      1.0  0.76294  0.28695  0.11325  1.0000
  H   H441      1.0  0.74808  0.27341  0.35703  1.0000
  S   S73       1.0  0.62223  0.29747  0.15998  1.0000
  C   C261      1.0  0.56943  0.15719  0.45310  1.0000
  H   H442      1.0  0.87921  0.23019  0.47282  1.0000
  N   N17       1.0  0.58176  0.21032  0.11371  1.0000
  H   H443      1.0  0.86089  0.24632  0.49337  1.0000
  N   N18       1.0  0.90179  0.27667  0.46758  1.0000
  C   C262      1.0  0.73459  0.30102  0.08930  1.0000
  H   H444      1.0  0.60175  0.32128  0.28903  1.0000
  H   H445      1.0  0.74506  0.29854  0.14569  1.0000
  H   H446      1.0  0.75123  0.32557  0.00449  1.0000
  C   C263      1.0  0.92713  0.25910  0.42369  1.0000
  H   H447      1.0  0.53125  0.01057  0.46579  1.0000
  C   C264      1.0  0.53610  0.26738  0.40556  1.0000
  C   C265      1.0  0.52713  0.27583  0.44072  1.0000
  H   H448      1.0  0.50704  0.21981  0.45241  1.0000
  H   H449      1.0  0.53485  0.28138  0.38395  1.0000
  C   C266      1.0  0.60373  0.17219  0.49862  1.0000
  H   H450      1.0  0.57373  0.32481  0.34431  1.0000
  H   H451      1.0  0.57987  0.02469  0.47005  1.0000
  C   C267      1.0  0.73208  0.32484  0.01756  1.0000
  H   H452      1.0  0.52356  0.26146  0.33211  1.0000
  Fe  Fe38      1.0  0.70035  0.32824  0.18712  1.0000
  H   H453      1.0  0.87877  0.29588  0.49383  1.0000
  H   H454      1.0  0.50436  0.27023  0.44219  1.0000
  H   H455      1.0  0.94191  0.29380  0.49357  1.0000
  S   S74       1.0  0.72017  0.16263  0.49880  1.0000
  H   H456      1.0  0.77984  0.32148  0.04633  1.0000
  H   H457      1.0  0.60147  0.01370  0.49383  1.0000
  H   H458      1.0  0.92140  0.25639  0.49809  1.0000
  H   H459      1.0  0.56074  0.06318  0.47674  1.0000
  H   H460      1.0  0.65208  0.26159  0.00182  1.0000
  H   H461      1.0  0.59271  0.09612  0.47817  1.0000
  C   C268      1.0  0.57957  0.01075  0.49284  1.0000
  H   H462      1.0  0.70547  0.24090  0.49481  1.0000
  C   C269      1.0  0.91954  0.27623  0.49762  1.0000
  H   H463      1.0  0.53379  0.32838  0.37240  1.0000
  C   C270      1.0  0.53319  0.23279  0.66371  1.0000
  Fe  Fe39      1.0  0.63567  0.15859  0.56133  1.0000
  S   S75       1.0  0.64124  0.12595  0.53154  1.0000
  S   S76       1.0  0.61171  0.18076  0.54269  1.0000
  Fe  Fe40      1.0  0.67104  0.15766  0.62119  1.0000
  S   S77       1.0  0.68010  0.12467  0.59633  1.0000
  S   S78       1.0  0.69063  0.18190  0.67027  1.0000
  Fe  Fe41      1.0  0.68707  0.15109  0.54477  1.0000
  H   H464      1.0  0.75516  0.30500  0.73723  1.0000
  Fe  Fe42      1.0  0.63338  0.10181  0.58459  1.0000
  S   S79       1.0  0.59695  0.05527  0.58954  1.0000
  S   S80       1.0  0.68161  0.18522  0.57049  1.0000
  S   S81       1.0  0.62420  0.13309  0.61356  1.0000
  C   C271      1.0  0.56954  0.22619  0.63117  1.0000
  S   S82       1.0  0.66039  0.31101  0.73959  1.0000
  H   H465      1.0  0.57366  0.24019  0.60651  1.0000
  N   N19       1.0  0.56388  0.23932  0.66336  1.0000
  C   C272      1.0  0.56372  0.23839  0.73236  1.0000
  C   C273      1.0  0.59415  0.21913  0.63242  1.0000
  Fe  Fe43      1.0  0.64650  0.27659  0.78290  1.0000
  S   S83       1.0  0.62488  0.23262  0.76084  1.0000
  S   S84       1.0  0.62143  0.29278  0.81508  1.0000
  C   C274      1.0  0.61453  0.28319  0.66442  1.0000
  C   C275      1.0  0.65612  0.28299  0.99445  1.0000
  C   C276      1.0  0.65778  0.29145  0.95781  1.0000
  H   H466      1.0  0.57340  0.11147  0.52758  1.0000
  H   H467      1.0  0.51308  0.10372  0.51802  1.0000
  H   H468      1.0  0.67282  0.28532  0.66297  1.0000
  H   H469      1.0  0.64015  0.03839  0.56977  1.0000
  C   C277      1.0  0.67230  0.19612  0.69512  1.0000
  C   C278      1.0  0.64461  0.18985  0.68787  1.0000
  C   C279      1.0  0.63036  0.20104  0.70842  1.0000
  C   C280      1.0  0.64404  0.21969  0.73526  1.0000
  C   C281      1.0  0.67191  0.22638  0.74222  1.0000
  C   C282      1.0  0.68576  0.21415  0.72269  1.0000
  H   H470      1.0  0.63385  0.17571  0.66712  1.0000
  H   H471      1.0  0.60849  0.19487  0.70383  1.0000
  H   H472      1.0  0.68238  0.24012  0.76350  1.0000
  H   H473      1.0  0.70694  0.21862  0.72899  1.0000
  H   H474      1.0  0.58853  0.22711  0.69808  1.0000
  C   C283      1.0  0.75349  0.30498  0.67946  1.0000
  C   C284      1.0  0.61981  0.01929  0.57499  1.0000
  H   H475      1.0  0.70269  0.31317  0.63737  1.0000
  C   C285      1.0  0.77745  0.24640  0.50904  1.0000
  H   H476      1.0  0.61965  0.27075  0.68414  1.0000
  H   H477      1.0  0.58054  0.28050  0.63446  1.0000
  H   H478      1.0  0.78269  0.26189  0.52912  1.0000
  C   C286      1.0  0.53352  0.29035  0.72491  1.0000
  C   C287      1.0  0.56051  0.30418  0.73928  1.0000
  C   C288      1.0  0.52403  0.24228  0.62949  1.0000
  H   H479      1.0  0.78636  0.30115  0.59777  1.0000
  C   C289      1.0  0.75485  0.21845  0.51625  1.0000
  H   H480      1.0  0.51634  0.27178  0.73924  1.0000
  H   H481      1.0  0.56396  0.29639  0.76464  1.0000
  H   H482      1.0  0.55039  0.20554  0.62626  1.0000
  C   C290      1.0  0.59589  0.02167  0.58571  1.0000
  H   H483      1.0  0.61424  0.23699  0.64052  1.0000
  H   H484      1.0  0.50099  0.23558  0.63293  1.0000
  H   H485      1.0  0.52808  0.24322  0.68570  1.0000
  H   H486      1.0  0.54531  0.04822  0.55547  1.0000
  C   C291      1.0  0.58238  0.27133  0.66068  1.0000
  H   H487      1.0  0.55424  0.13494  0.55305  1.0000
  H   H488      1.0  0.59847  0.21372  0.60540  1.0000
  H   H489      1.0  0.55099  0.99801  0.60066  1.0000
  H   H490      1.0  0.58001  0.26117  0.73342  1.0000
  H   H491      1.0  0.55431  0.07940  0.57841  1.0000
  S   S85       1.0  0.49452  0.28280  0.67491  1.0000
  C   C292      1.0  0.69643  0.29699  0.65992  1.0000
  H   H492      1.0  0.57477  0.28164  0.68014  1.0000
  H   H493      1.0  0.74286  0.21252  0.54173  1.0000
  C   C293      1.0  0.74939  0.30662  0.61473  1.0000
  H   H494      1.0  0.74489  0.25747  0.58849  1.0000
  N   N20       1.0  0.73879  0.28751  0.64856  1.0000
  H   H495      1.0  0.65493  0.27658  0.93756  1.0000
  H   H496      1.0  0.77661  0.31184  0.67736  1.0000
  H   H497      1.0  0.52030  0.03728  0.61383  1.0000
  C   C294      1.0  0.70697  0.27532  0.65321  1.0000
  C   C295      1.0  0.90829  0.27766  0.53545  1.0000
  C   C296      1.0  0.56962  0.99650  0.59219  1.0000
  S   S86       1.0  0.50603  0.28577  0.57063  1.0000
  C   C297      1.0  0.58265  0.32864  0.72140  1.0000
  H   H498      1.0  0.74090  0.22779  0.61612  1.0000
  H   H499      1.0  0.73521  0.24782  0.67056  1.0000
  C   C298      1.0  0.51207  0.04463  0.59127  1.0000
  H   H500      1.0  0.51526  0.03446  0.50904  1.0000
  C   C299      1.0  0.51117  0.05290  0.50765  1.0000
  H   H501      1.0  0.53890  0.11043  0.59212  1.0000
  H   H502      1.0  0.69642  0.26415  0.62923  1.0000
  H   H503      1.0  0.58195  0.07115  0.51567  1.0000
  H   H504      1.0  0.76849  0.27079  0.64817  1.0000
  H   H505      1.0  0.88632  0.26010  0.54187  1.0000
  Fe  Fe44      1.0  0.66256  0.31876  0.84241  1.0000
  H   H506      1.0  0.71153  0.23421  0.61352  1.0000
  C   C300      1.0  0.55794  0.09487  0.51086  1.0000
  H   H507      1.0  0.72008  0.28415  0.72342  1.0000
  C   C301      1.0  0.51706  0.09384  0.54238  1.0000
  N   N21       1.0  0.53023  0.07565  0.53184  1.0000
  H   H508      1.0  0.53524  0.26585  0.62484  1.0000
  H   H509      1.0  0.52678  0.23222  0.60545  1.0000
  H   H510      1.0  0.58809  0.19992  0.65046  1.0000
  H   H511      1.0  0.62350  0.30482  0.67490  1.0000
  H   H512      1.0  0.57538  0.01835  0.51814  1.0000
  C   C302      1.0  0.74528  0.26313  0.64690  1.0000
  C   C303      1.0  0.56734  0.22576  0.69750  1.0000
  C   C304      1.0  0.52865  0.30051  0.69225  1.0000
  H   H513      1.0  0.62560  0.28491  0.63819  1.0000
  C   C305      1.0  0.73500  0.24502  0.61410  1.0000
  H   H514      1.0  0.51855  0.20941  0.66882  1.0000
  H   H515      1.0  0.55204  0.20240  0.69963  1.0000
  C   C306      1.0  0.74257  0.28996  0.71704  1.0000
  H   H516      1.0  0.69792  0.25868  0.67554  1.0000
  H   H517      1.0  0.54213  0.23582  0.73690  1.0000
  S   S87       1.0  0.68639  0.29975  0.81269  1.0000
  H   H518      1.0  0.56692  0.22675  0.75534  1.0000
  H   H519      1.0  0.70398  0.30790  0.68495  1.0000
  C   C307      1.0  0.53427  0.11821  0.56677  1.0000
  C   C308      1.0  0.55096  0.32462  0.67409  1.0000
  H   H520      1.0  0.74533  0.27085  0.72077  1.0000
  H   H521      1.0  0.92204  0.27543  0.55535  1.0000
  H   H522      1.0  0.52157  0.12884  0.57387  1.0000
  C   C309      1.0  0.53692  0.06257  0.56386  1.0000
  H   H523      1.0  0.75235  0.32518  0.67899  1.0000
  H   H524      1.0  0.49407  0.18693  0.53513  1.0000
  C   C310      1.0  0.78110  0.31833  0.60320  1.0000
  H   H525      1.0  0.90911  0.29850  0.53912  1.0000
  C   C311      1.0  0.66324  0.31913  0.94740  1.0000
  H   H526      1.0  0.73661  0.29560  0.59191  1.0000
  H   H527      1.0  0.49591  0.08084  0.55666  1.0000
  H   H528      1.0  0.74661  0.32577  0.61741  1.0000
  H   H529      1.0  0.50265  0.05717  0.60277  1.0000
  H   H530      1.0  0.56502  0.17488  0.50203  1.0000
  H   H531      1.0  0.49553  0.02524  0.57980  1.0000
  Fe  Fe45      1.0  0.63814  0.32878  0.77275  1.0000
  H   H532      1.0  0.53017  0.99840  0.52854  1.0000
  C   C312      1.0  0.78326  0.52333  0.48758  1.0000
  S   S88       1.0  0.88019  0.35717  0.32565  1.0000
  H   H533      1.0  0.56448  0.34629  0.39781  1.0000
  H   H534      1.0  0.68086  0.62368  0.39273  1.0000
  H   H535      1.0  0.81103  0.44342  0.38118  1.0000
  C   C313      1.0  0.59111  0.42026  0.45166  1.0000
  Fe  Fe46      1.0  0.86340  0.36885  0.37424  1.0000
  S   S89       1.0  0.74610  0.34930  0.20350  1.0000
  S   S90       1.0  0.52319  0.63449  0.42278  1.0000
  H   H536      1.0  0.96236  0.40014  0.35999  1.0000
  H   H537      1.0  0.74736  0.38844  0.45379  1.0000
  S   S91       1.0  0.68779  0.35040  0.14456  1.0000
  H   H538      1.0  0.95969  0.43247  0.45748  1.0000
  C   C314      1.0  0.73862  0.34113  0.05212  1.0000
  S   S92       1.0  0.63353  0.36999  0.19600  1.0000
  H   H539      1.0  0.73337  0.41116  0.40912  1.0000
  H   H540      1.0  0.98362  0.50210  0.45349  1.0000
  Fe  Fe47      1.0  0.61390  0.46585  0.38139  1.0000
  S   S93       1.0  0.63189  0.50435  0.41389  1.0000
  S   S94       1.0  0.56922  0.42998  0.39147  1.0000
  Fe  Fe48      1.0  0.66895  0.48440  0.33712  1.0000
  S   S95       1.0  0.69148  0.52536  0.36537  1.0000
  S   S96       1.0  0.69374  0.46877  0.30288  1.0000
  Fe  Fe49      1.0  0.67059  0.49828  0.41572  1.0000
  S   S97       1.0  0.68998  0.49748  0.46837  1.0000
  Fe  Fe50      1.0  0.65088  0.52827  0.36096  1.0000
  S   S98       1.0  0.65419  0.57164  0.34593  1.0000
  S   S99       1.0  0.65041  0.45742  0.38798  1.0000
  S   S100      1.0  0.63049  0.48967  0.32792  1.0000
  H   H541      1.0  0.80480  0.44436  0.33579  1.0000
  S   S101      1.0  0.81939  0.53412  0.49510  1.0000
  C   C315      1.0  0.84664  0.43342  0.43243  1.0000
  H   H542      1.0  0.60878  0.44154  0.44639  1.0000
  H   H543      1.0  0.66178  0.37931  0.34653  1.0000
  C   C316      1.0  0.63301  0.58906  0.34854  1.0000
  C   C317      1.0  0.60569  0.57718  0.36588  1.0000
  C   C318      1.0  0.59113  0.59343  0.36774  1.0000
  C   C319      1.0  0.60398  0.62165  0.35252  1.0000
  C   C320      1.0  0.63106  0.63303  0.33527  1.0000
  C   C321      1.0  0.64528  0.61699  0.33321  1.0000
  H   H544      1.0  0.59588  0.55565  0.37791  1.0000
  H   H545      1.0  0.75213  0.60471  0.47278  1.0000
  C   C322      1.0  0.55553  0.34701  0.37184  1.0000
  H   H546      1.0  0.66625  0.62651  0.31982  1.0000
  H   H547      1.0  0.75071  0.60112  0.37405  1.0000
  C   C323      1.0  0.72602  0.50718  0.47430  1.0000
  H   H548      1.0  0.79364  0.54983  0.43881  1.0000
  C   C324      1.0  0.65222  0.39925  0.22270  1.0000
  C   C325      1.0  0.64012  0.41653  0.23138  1.0000
  C   C326      1.0  0.65270  0.43805  0.25568  1.0000
  C   C327      1.0  0.67787  0.44284  0.27100  1.0000
  C   C328      1.0  0.69064  0.42636  0.26118  1.0000
  C   C329      1.0  0.67776  0.40447  0.23738  1.0000
  H   H549      1.0  0.62061  0.41290  0.21970  1.0000
  H   H550      1.0  0.64298  0.45098  0.26247  1.0000
  H   H551      1.0  0.71031  0.43016  0.27253  1.0000
  H   H552      1.0  0.68740  0.39144  0.23074  1.0000
  H   H553      1.0  0.91203  0.34417  0.48579  1.0000
  S   S102      1.0  0.94018  0.33798  0.36615  1.0000
  C   C330      1.0  0.65210  0.38894  0.36409  1.0000
  H   H554      1.0  0.54226  0.47976  0.43416  1.0000
  H   H555      1.0  0.79048  0.39039  0.08953  1.0000
  H   H556      1.0  0.83900  0.36655  0.43742  1.0000
  C   C331      1.0  0.97478  0.36792  0.36903  1.0000
  H   H557      1.0  0.57021  0.58429  0.38118  1.0000
  H   H558      1.0  0.68708  0.63979  0.43551  1.0000
  H   H559      1.0  0.88662  0.42360  0.47857  1.0000
  H   H560      1.0  0.80836  0.51627  0.40836  1.0000
  H   H561      1.0  0.85484  0.45234  0.41452  1.0000
  C   C332      1.0  0.76113  0.33253  0.23022  1.0000
  C   C333      1.0  0.98389  0.49101  0.47871  1.0000
  H   H562      1.0  0.70544  0.62099  0.48686  1.0000
  H   H563      1.0  0.79490  0.37267  0.24560  1.0000
  C   C334      1.0  0.83479  0.43303  0.46637  1.0000
  C   C335      1.0  0.54522  0.38227  0.43701  1.0000
  C   C336      1.0  0.56844  0.40949  0.42924  1.0000
  H   H564      1.0  0.52761  0.37392  0.41976  1.0000
  H   H565      1.0  0.71340  0.47145  0.39309  1.0000
  H   H566      1.0  0.55314  0.36638  0.36919  1.0000
  H   H567      1.0  0.51192  0.44604  0.42951  1.0000
  H   H568      1.0  0.66102  0.39043  0.39067  1.0000
  C   C337      1.0  0.82574  0.38471  0.47909  1.0000
  C   C338      1.0  0.76382  0.41039  0.44432  1.0000
  H   H569      1.0  0.70773  0.43664  0.40581  1.0000
  C   C339      1.0  0.67865  0.55678  0.49575  1.0000
  N   N22       1.0  0.92874  0.46057  0.47635  1.0000
  C   C340      1.0  0.71933  0.61911  0.46558  1.0000
  H   H570      1.0  0.81880  0.35096  0.28057  1.0000
  H   H571      1.0  0.50202  0.63506  0.25187  1.0000
  H   H572      1.0  0.59836  0.40433  0.35691  1.0000
  H   H573      1.0  0.50246  0.40027  0.44354  1.0000
  C   C341      1.0  0.54484  0.36570  0.46701  1.0000
  H   H574      1.0  0.65900  0.57487  0.42340  1.0000
  N   N23       1.0  0.56331  0.65295  0.23827  1.0000
  C   C342      1.0  0.61990  0.33820  0.30233  1.0000
  H   H575      1.0  0.76155  0.63937  0.48643  1.0000
  Fe  Fe51      1.0  0.89709  0.33731  0.36566  1.0000
  H   H576      1.0  0.71540  0.56471  0.46297  1.0000
  H   H577      1.0  0.75584  0.38857  0.09306  1.0000
  C   C343      1.0  0.78599  0.34969  0.24762  1.0000
  C   C344      1.0  0.67305  0.59337  0.43899  1.0000
  C   C345      1.0  0.83764  0.38506  0.44514  1.0000
  C   C346      1.0  0.77015  0.38180  0.10579  1.0000
  H   H578      1.0  0.77898  0.40822  0.42578  1.0000
  H   H579      1.0  0.72415  0.45366  0.36214  1.0000
  Fe  Fe52      1.0  0.54772  0.64626  0.36959  1.0000
  H   H580      1.0  0.56229  0.60121  0.22901  1.0000
  N   N24       1.0  0.60362  0.36990  0.33556  1.0000
  C   C347      1.0  0.60407  0.39825  0.33114  1.0000
  H   H581      1.0  0.55547  0.63254  0.29123  1.0000
  S   S103      1.0  0.50873  0.62561  0.33792  1.0000
  H   H582      1.0  0.76119  0.61910  0.41422  1.0000
  C   C348      1.0  0.58455  0.40045  0.30339  1.0000
  C   C349      1.0  0.93891  0.51109  0.45304  1.0000
  C   C350      1.0  0.78209  0.33867  0.06392  1.0000
  H   H583      1.0  0.77491  0.39165  0.13201  1.0000
  H   H584      1.0  0.65560  0.54839  0.49227  1.0000
  H   H585      1.0  0.62597  0.41570  0.32350  1.0000
  H   H586      1.0  0.54321  0.58887  0.27212  1.0000
  H   H587      1.0  0.95723  0.52352  0.46945  1.0000
  H   H588      1.0  0.89831  0.47274  0.45741  1.0000
  C   C351      1.0  0.61757  0.36586  0.30248  1.0000
  H   H589      1.0  0.51016  0.60693  0.26470  1.0000
  H   H590      1.0  0.63996  0.34275  0.28727  1.0000
  H   H591      1.0  0.79148  0.35873  0.04639  1.0000
  C   C352      1.0  0.53690  0.63535  0.21861  1.0000
  H   H592      1.0  0.58896  0.39546  0.27636  1.0000
  H   H593      1.0  0.91262  0.48723  0.49831  1.0000
  C   C353      1.0  0.97986  0.39609  0.36477  1.0000
  H   H594      1.0  0.81917  0.36600  0.09392  1.0000
  H   H595      1.0  0.66150  0.58980  0.46543  1.0000
  H   H596      1.0  0.76681  0.34469  0.13354  1.0000
  H   H597      1.0  0.61219  0.37845  0.39118  1.0000
  H   H598      1.0  0.74354  0.58016  0.41465  1.0000
  H   H599      1.0  0.54556  0.44054  0.46639  1.0000
  C   C354      1.0  0.90504  0.43392  0.49559  1.0000
  C   C355      1.0  0.84853  0.40960  0.42201  1.0000
  C   C356      1.0  0.71538  0.59908  0.40591  1.0000
  H   H600      1.0  0.65883  0.41102  0.35351  1.0000
  H   H601      1.0  0.83302  0.45123  0.47413  1.0000
  C   C357      1.0  0.56312  0.60540  0.25760  1.0000
  H   H602      1.0  0.74328  0.53493  0.42664  1.0000
  H   H603      1.0  0.68383  0.54893  0.44085  1.0000
  S   S104      1.0  0.86608  0.41138  0.38114  1.0000
  S   S105      1.0  0.58851  0.64463  0.35384  1.0000
  S   S106      1.0  0.88293  0.35210  0.41343  1.0000
  N   N25       1.0  0.76823  0.45475  0.40721  1.0000
  C   C358      1.0  0.75230  0.47151  0.40685  1.0000
  C   C359      1.0  0.79478  0.47158  0.42696  1.0000
  C   C360      1.0  0.74924  0.42618  0.42700  1.0000
  C   C361      1.0  0.77472  0.45092  0.36902  1.0000
  C   C362      1.0  0.75545  0.34904  0.11224  1.0000
  C   C363      1.0  0.81663  0.50092  0.40923  1.0000
  C   C364      1.0  0.72278  0.45702  0.39096  1.0000
  C   C365      1.0  0.79371  0.43704  0.36273  1.0000
  H   H604      1.0  0.74893  0.47651  0.43454  1.0000
  H   H605      1.0  0.76469  0.49241  0.39143  1.0000
  H   H606      1.0  0.80666  0.45978  0.43096  1.0000
  H   H607      1.0  0.78910  0.47509  0.45450  1.0000
  H   H608      1.0  0.73654  0.42859  0.44943  1.0000
  N   N26       1.0  0.70154  0.59464  0.44296  1.0000
  H   H609      1.0  0.75471  0.43716  0.35596  1.0000
  H   H610      1.0  0.78397  0.47142  0.35241  1.0000
  C   C366      1.0  0.94230  0.42856  0.43971  1.0000
  C   C367      1.0  0.59637  0.64951  0.18884  1.0000
  H   H611      1.0  0.92774  0.34044  0.44432  1.0000
  H   H612      1.0  0.82423  0.49912  0.38212  1.0000
  H   H613      1.0  0.77485  0.42107  0.46830  1.0000
  H   H614      1.0  0.64131  0.65467  0.32345  1.0000
  H   H615      1.0  0.71812  0.33872  0.06373  1.0000
  H   H616      1.0  0.91457  0.44507  0.42437  1.0000
  H   H617      1.0  0.72906  0.63973  0.44918  1.0000
  C   C368      1.0  0.80512  0.34291  0.09038  1.0000
  C   C369      1.0  0.69572  0.56601  0.45931  1.0000
  H   H618      1.0  0.78083  0.41336  0.36398  1.0000
  Fe  Fe53      1.0  0.65061  0.33976  0.18328  1.0000
  H   H619      1.0  0.58031  0.60180  0.26809  1.0000
  C   C370      1.0  0.95449  0.47183  0.49851  1.0000
  H   H620      1.0  0.71923  0.61963  0.39264  1.0000
  C   C371      1.0  0.74432  0.59978  0.40284  1.0000
  C   C372      1.0  0.74812  0.52634  0.45028  1.0000
  C   C373      1.0  0.77663  0.53463  0.45717  1.0000
  H   H621      1.0  0.63907  0.38433  0.29639  1.0000
  H   H622      1.0  0.56210  0.34339  0.31549  1.0000
  C   C374      1.0  0.79959  0.33743  0.26749  1.0000
  H   H623      1.0  0.92764  0.52377  0.45019  1.0000
  C   C375      1.0  0.56732  0.37670  0.48972  1.0000
  H   H624      1.0  0.95060  0.47078  0.42334  1.0000
  H   H625      1.0  0.70092  0.58213  0.38875  1.0000
  C   C376      1.0  0.56886  0.63568  0.26648  1.0000
  H   H626      1.0  0.94611  0.50927  0.42575  1.0000
  C   C377      1.0  0.93396  0.45239  0.43990  1.0000
  H   H627      1.0  0.53406  0.64909  0.19788  1.0000
  C   C378      1.0  0.61940  0.37036  0.36827  1.0000
  C   C379      1.0  0.53338  0.44985  0.47980  1.0000
  H   H628      1.0  0.83551  0.51039  0.42565  1.0000
  H   H629      1.0  0.58840  0.42282  0.30138  1.0000
  H   H630      1.0  0.56170  0.38680  0.31148  1.0000
  C   C380      1.0  0.59064  0.40380  0.48177  1.0000
  H   H631      1.0  0.66812  0.34452  0.03129  1.0000
  C   C381      1.0  0.50881  0.61988  0.24194  1.0000
  H   H632      1.0  0.81801  0.36594  0.49721  1.0000
  H   H633      1.0  0.60427  0.63751  0.20535  1.0000
  H   H634      1.0  0.94977  0.42737  0.41215  1.0000
  C   C382      1.0  0.67379  0.62029  0.42141  1.0000
  H   H635      1.0  0.75165  0.36411  0.04318  1.0000
  H   H636      1.0  0.57880  0.63497  0.17276  1.0000
  H   H637      1.0  0.92366  0.40736  0.44718  1.0000
  H   H638      1.0  0.53843  0.61876  0.20353  1.0000
  H   H639      1.0  0.65180  0.61728  0.42242  1.0000
  H   H640      1.0  0.73390  0.34195  0.12477  1.0000
  H   H641      1.0  0.54965  0.46832  0.49348  1.0000
  H   H642      1.0  0.52715  0.34449  0.47259  1.0000
  H   H643      1.0  0.60586  0.36563  0.27854  1.0000
  C   C383      1.0  0.82493  0.40897  0.49001  1.0000
  C   C384      1.0  0.52329  0.46217  0.44911  1.0000
  C   C385      1.0  0.91822  0.48196  0.47199  1.0000
  H   H644      1.0  0.61453  0.34847  0.37781  1.0000
  C   C386      1.0  0.74341  0.61742  0.48525  1.0000
  C   C387      1.0  0.57367  0.34547  0.34023  1.0000
  H   H645      1.0  0.59123  0.64767  0.27448  1.0000
  H   H646      1.0  0.50969  0.47113  0.45833  1.0000
  H   H647      1.0  0.62089  0.32970  0.32921  1.0000
  H   H648      1.0  0.93718  0.33200  0.48675  1.0000
  C   C388      1.0  0.66518  0.32956  0.01114  1.0000
  C   C389      1.0  0.91935  0.33077  0.47175  1.0000
  S   S107      1.0  0.82090  0.32944  0.37894  1.0000
  H   H649      1.0  0.81925  0.33524  0.07854  1.0000
  H   H650      1.0  0.79712  0.33139  0.11681  1.0000
  N   N27       1.0  0.75335  0.33253  0.07976  1.0000
  H   H651      1.0  0.60799  0.41241  0.49943  1.0000
  H   H652      1.0  0.54754  0.33266  0.64892  1.0000
  H   H653      1.0  0.50694  0.48171  0.51335  1.0000
  S   S108      1.0  0.73932  0.35424  0.73474  1.0000
  S   S109      1.0  0.67763  0.35635  0.80142  1.0000
  Fe  Fe54      1.0  0.83053  0.45467  0.55032  1.0000
  H   H654      1.0  0.69832  0.35902  0.68434  1.0000
  H   H655      1.0  0.74125  0.44259  0.61118  1.0000
  Fe  Fe55      1.0  0.82980  0.48785  0.61276  1.0000
  S   S110      1.0  0.85991  0.53060  0.58420  1.0000
  S   S111      1.0  0.81108  0.48223  0.66930  1.0000
  Fe  Fe56      1.0  0.83262  0.51178  0.53730  1.0000
  C   C390      1.0  0.89480  0.55095  0.67785  1.0000
  Fe  Fe57      1.0  0.88517  0.50917  0.56604  1.0000
  S   S112      1.0  0.93207  0.52019  0.55920  1.0000
  S   S113      1.0  0.80115  0.47104  0.56749  1.0000
  S   S114      1.0  0.85672  0.46793  0.59804  1.0000
  C   C391      1.0  0.96512  0.54817  0.57194  1.0000
  H   H656      1.0  0.50304  0.64252  0.59207  1.0000
  C   C392      1.0  0.96736  0.57209  0.58852  1.0000
  H   H657      1.0  0.91125  0.56349  0.65621  1.0000
  H   H658      1.0  0.94859  0.57431  0.59334  1.0000
  S   S115      1.0  0.81309  0.40968  0.53377  1.0000
  H   H659      1.0  0.95211  0.48396  0.52065  1.0000
  H   H660      1.0  0.89968  0.47416  0.66102  1.0000
  H   H661      1.0  0.79531  0.33232  0.62307  1.0000
  H   H662      1.0  0.52585  0.45716  0.54971  1.0000
  H   H663      1.0  0.93451  0.51465  0.73464  1.0000
  S   S116      1.0  0.61626  0.34820  0.73949  1.0000
  C   C393      1.0  0.75885  0.39004  0.71718  1.0000
  C   C394      1.0  0.76209  0.41298  0.73693  1.0000
  C   C395      1.0  0.77828  0.44121  0.72214  1.0000
  C   C396      1.0  0.79129  0.44669  0.68755  1.0000
  C   C397      1.0  0.78817  0.42376  0.66791  1.0000
  C   C398      1.0  0.77222  0.39560  0.68280  1.0000
  H   H664      1.0  0.75229  0.40894  0.76370  1.0000
  H   H665      1.0  0.78074  0.45886  0.73757  1.0000
  H   H666      1.0  0.79806  0.42768  0.64122  1.0000
  H   H667      1.0  0.77009  0.37806  0.66744  1.0000
  S   S117      1.0  0.86046  0.49417  0.51697  1.0000
  H   H668      1.0  0.95605  0.45369  0.51173  1.0000
  H   H669      1.0  0.91124  0.47322  0.70462  1.0000
  C   C399      1.0  0.89794  0.47985  0.68897  1.0000
  C   C400      1.0  0.98988  0.54588  0.56566  1.0000
  H   H670      1.0  0.87634  0.51075  0.75098  1.0000
  H   H671      1.0  0.63676  0.39748  0.64240  1.0000
  S   S118      1.0  0.56577  0.35767  0.52927  1.0000
  H   H672      1.0  0.56604  0.44181  0.52795  1.0000
  H   H673      1.0  0.87578  0.55309  0.67180  1.0000
  C   C401      1.0  0.89343  0.43783  0.53195  1.0000
  H   H674      1.0  0.86084  0.46433  0.72844  1.0000
  H   H675      1.0  0.64117  0.43177  0.65089  1.0000
  C   C402      1.0  0.93388  0.52669  0.66323  1.0000
  H   H676      1.0  0.91055  0.45011  0.54998  1.0000
  H   H677      1.0  0.87962  0.51141  0.65195  1.0000
  H   H678      1.0  0.66739  0.42952  0.62301  1.0000
  C   C403      1.0  0.57768  0.33882  0.68886  1.0000
  H   H679      1.0  0.65555  0.36526  0.67665  1.0000
  C   C404      1.0  0.95810  0.51915  0.66661  1.0000
  C   C405      1.0  0.66693  0.33804  0.97449  1.0000
  N   N28       1.0  0.68900  0.40884  0.67992  1.0000
  C   C406      1.0  0.69330  0.40234  0.71801  1.0000
  C   C407      1.0  0.67590  0.38091  0.66194  1.0000
  C   C408      1.0  0.66872  0.42088  0.68112  1.0000
  C   C409      1.0  0.71764  0.43030  0.66275  1.0000
  C   C410      1.0  0.70358  0.42735  0.74293  1.0000
  C   C411      1.0  0.69461  0.36647  0.65815  1.0000
  C   C412      1.0  0.65297  0.41972  0.64709  1.0000
  C   C413      1.0  0.71965  0.43718  0.62214  1.0000
  H   H680      1.0  0.67334  0.38473  0.73096  1.0000
  H   H681      1.0  0.70883  0.39440  0.71907  1.0000
  H   H682      1.0  0.71574  0.48144  0.52367  1.0000
  H   H683      1.0  0.68624  0.57427  0.51427  1.0000
  H   H684      1.0  0.65157  0.40926  0.70266  1.0000
  H   H685      1.0  0.67995  0.44362  0.68809  1.0000
  H   H686      1.0  0.72569  0.45121  0.67502  1.0000
  H   H687      1.0  0.73410  0.42404  0.66851  1.0000
  H   H688      1.0  0.68777  0.43485  0.74683  1.0000
  H   H689      1.0  0.70626  0.41973  0.76972  1.0000
  H   H690      1.0  0.72457  0.44545  0.73365  1.0000
  H   H691      1.0  0.66971  0.38316  0.63468  1.0000
  H   H692      1.0  0.90463  0.52761  0.77874  1.0000
  H   H693      1.0  0.71645  0.45590  0.61633  1.0000
  C   C414      1.0  0.73268  0.49610  0.50482  1.0000
  H   H694      1.0  0.94412  0.55030  0.66458  1.0000
  H   H695      1.0  0.67114  0.35949  0.96701  1.0000
  H   H696      1.0  0.59455  0.35785  0.67502  1.0000
  H   H697      1.0  0.70494  0.41915  0.60695  1.0000
  H   H698      1.0  0.54388  0.42965  0.56948  1.0000
  H   H699      1.0  0.76585  0.49517  0.53487  1.0000
  N   N29       1.0  0.90886  0.51165  0.69019  1.0000
  H   H700      1.0  0.90184  0.56034  0.70387  1.0000
  C   C415      1.0  0.91916  0.52181  0.72648  1.0000
  H   H701      1.0  0.95092  0.49633  0.66246  1.0000
  C   C416      1.0  0.86662  0.45977  0.70190  1.0000
  C   C417      1.0  0.89660  0.51176  0.75792  1.0000
  H   H702      1.0  0.68085  0.53900  0.50871  1.0000
  H   H703      1.0  0.86662  0.50778  0.69640  1.0000
  S   S119      1.0  0.50718  0.34305  0.60178  1.0000
  H   H704      1.0  0.93200  0.54554  0.72594  1.0000
  H   H705      1.0  0.92660  0.52215  0.63563  1.0000
  H   H706      1.0  0.71527  0.38056  0.64334  1.0000
  H   H707      1.0  0.49625  0.34110  0.68276  1.0000
  H   H708      1.0  0.86264  0.43737  0.70374  1.0000
  H   H709      1.0  0.85197  0.46055  0.68232  1.0000
  H   H710      1.0  0.89235  0.49071  0.76999  1.0000
  C   C418      1.0  0.88637  0.51901  0.67896  1.0000
  H   H711      1.0  0.50450  0.39132  0.53968  1.0000
  H   H712      1.0  0.68326  0.34718  0.64277  1.0000
  H   H713      1.0  0.96831  0.52502  0.69237  1.0000
  Fe  Fe58      1.0  0.69862  0.33572  0.77072  1.0000
  H   H714      1.0  0.73638  0.60945  0.51353  1.0000
  H   H715      1.0  0.87932  0.41647  0.54551  1.0000
  H   H716      1.0  0.87995  0.44809  0.52849  1.0000
  Fe  Fe59      1.0  0.52085  0.33098  0.55147  1.0000
  H   H717      1.0  0.78609  0.33175  0.57788  1.0000
  H   H718      1.0  0.97504  0.53173  0.64539  1.0000
  H   H719      1.0  0.72396  0.33498  0.99817  1.0000
  H   H720      1.0  0.55577  0.40754  0.54918  1.0000
  C   C419      1.0  0.76109  0.50383  0.51122  1.0000
  H   H721      1.0  0.50039  0.60806  0.59246  1.0000
  C   C420      1.0  0.54835  0.42327  0.54327  1.0000
  C   C421      1.0  0.52137  0.40891  0.52197  1.0000
  H   H722      1.0  0.52654  0.39825  0.50045  1.0000
  C   C422      1.0  0.50563  0.44294  0.53739  1.0000
  N   N30       1.0  0.51085  0.42836  0.50662  1.0000
  S   S120      1.0  0.66600  0.33146  0.90139  1.0000
  H   H723      1.0  0.91194  0.41769  0.50098  1.0000
  H   H724      1.0  0.50351  0.37699  0.67088  1.0000
  H   H725      1.0  0.98846  0.52744  0.55309  1.0000
  C   C423      1.0  0.52538  0.77386  0.44318  1.0000
  H   H726      1.0  0.54042  0.92880  0.44894  1.0000
  C   C424      1.0  0.49505  0.97742  0.44130  1.0000
  S   S121      1.0  0.52654  0.69943  0.46709  1.0000
  S   S122      1.0  0.54985  0.68959  0.36516  1.0000
  C   C425      1.0  0.60551  0.85275  0.46194  1.0000
  C   C426      1.0  0.52535  0.73181  0.47007  1.0000
  H   H727      1.0  0.52241  0.94347  0.42226  1.0000
  H   H728      1.0  0.66706  0.86050  0.47059  1.0000
  H   H729      1.0  0.57748  0.71126  0.29018  1.0000
  H   H730      1.0  0.59304  0.68850  0.29435  1.0000
  C   C427      1.0  0.52492  0.78410  0.47703  1.0000
  H   H731      1.0  0.62128  0.87036  0.44323  1.0000
  H   H732      1.0  0.56689  0.97391  0.46338  1.0000
  H   H733      1.0  0.63358  0.92189  0.48823  1.0000
  H   H734      1.0  0.52586  0.78626  0.41948  1.0000
  H   H735      1.0  0.65412  0.89452  0.48469  1.0000
  C   C428      1.0  0.52037  0.92969  0.44613  1.0000
  H   H736      1.0  0.60179  0.71332  0.25550  1.0000
  H   H737      1.0  0.58525  0.68298  0.19311  1.0000
  C   C429      1.0  0.52539  0.74775  0.43968  1.0000
  Fe  Fe60      1.0  0.52201  0.67598  0.41609  1.0000
  S   S123      1.0  0.52701  0.81805  0.47970  1.0000
  H   H738      1.0  0.60163  0.82393  0.42055  1.0000
  H   H739      1.0  0.52581  0.74014  0.41348  1.0000
  H   H740      1.0  0.50374  0.90760  0.44135  1.0000
  C   C430      1.0  0.60404  0.82486  0.44983  1.0000
  C   C431      1.0  0.52471  0.98878  0.45686  1.0000
  C   C432      1.0  0.58459  0.69821  0.27492  1.0000
  H   H741      1.0  0.53975  0.99193  0.43376  1.0000
  H   H742      1.0  0.60563  0.90280  0.45792  1.0000
  C   C433      1.0  0.58853  0.66825  0.21175  1.0000
  H   H743      1.0  0.62331  0.82325  0.45507  1.0000
  H   H744      1.0  0.58454  0.85087  0.45591  1.0000
  H   H745      1.0  0.58498  0.80579  0.46225  1.0000
  H   H746      1.0  0.59926  0.91860  0.49563  1.0000
  H   H747      1.0  0.55226  0.68710  0.23687  1.0000
  C   C434      1.0  0.61056  0.90710  0.48620  1.0000
  S   S124      1.0  0.50092  0.68658  0.28663  1.0000
  H   H748      1.0  0.60818  0.68181  0.22557  1.0000
  C   C435      1.0  0.55896  0.67549  0.25623  1.0000
  H   H749      1.0  0.49495  0.96899  0.41468  1.0000
  H   H750      1.0  0.54142  0.66553  0.27731  1.0000
  Fe  Fe61      1.0  0.50881  0.66751  0.33726  1.0000
  C   C436      1.0  0.51168  0.93914  0.48058  1.0000
  N   N31       1.0  0.52767  0.97064  0.48641  1.0000
  C   C437      1.0  0.55874  0.97885  0.48822  1.0000
  C   C438      1.0  0.65975  0.85884  0.49905  1.0000
  H   H751      1.0  0.61426  0.66367  0.16949  1.0000
  Fe  Fe62      1.0  0.54754  0.89071  0.57398  1.0000
  H   H752      1.0  0.64880  0.88567  0.53062  1.0000
  S   S125      1.0  0.58917  0.93302  0.57220  1.0000
  Fe  Fe63      1.0  0.51964  0.83654  0.53004  1.0000
  H   H753      1.0  0.57357  0.82423  0.52471  1.0000
  H   H754      1.0  0.59116  0.81701  0.58051  1.0000
  H   H755      1.0  0.67865  0.86768  0.51545  1.0000
  H   H756      1.0  0.52417  0.77562  0.53367  1.0000
  S   S126      1.0  0.54380  0.84677  0.57985  1.0000
  S   S127      1.0  0.50707  0.87758  0.60730  1.0000
  C   C439      1.0  0.52491  0.74207  0.50393  1.0000
  H   H757      1.0  0.63615  0.99052  0.56304  1.0000
  H   H758      1.0  0.57646  0.86784  0.50984  1.0000
  H   H759      1.0  0.52497  0.72992  0.52758  1.0000
  H   H760      1.0  0.64728  0.83607  0.50834  1.0000
  H   H761      1.0  0.60115  0.81609  0.51691  1.0000
  C   C440      1.0  0.59119  0.96691  0.57768  1.0000
  C   C441      1.0  0.56726  0.96933  0.58821  1.0000
  S   S128      1.0  0.52696  0.88140  0.52188  1.0000
  H   H762      1.0  0.54699  0.95021  0.59377  1.0000
  C   C442      1.0  0.59708  0.83348  0.52527  1.0000
  H   H763      1.0  0.52195  0.96334  0.54390  1.0000
  H   H764      1.0  0.60493  0.88643  0.53783  1.0000
  H   H765      1.0  0.56168  0.96610  0.51027  1.0000
  H   H766      1.0  0.62729  0.84228  0.56761  1.0000
  C   C443      1.0  0.60496  0.83738  0.56464  1.0000
  C   C444      1.0  0.60010  0.87943  0.51021  1.0000
  Fe  Fe64      1.0  0.50100  0.83270  0.60844  1.0000
  C   C445      1.0  0.61745  0.99207  0.57109  1.0000
  H   H767      1.0  0.60151  0.85401  0.57692  1.0000
  C   C446      1.0  0.52446  0.76797  0.50746  1.0000
  C   C447      1.0  0.51792  0.97564  0.52235  1.0000
  N   N32       1.0  0.61200  0.85998  0.50034  1.0000
  H   H768      1.0  0.51399  0.92674  0.50348  1.0000
  C   C448      1.0  0.64364  0.87582  0.50435  1.0000
