data_image0
_chemical_formula_structural       HFeS2HFeS3FeSHFeS2FeSFeS2FeS2FeS2FeSFeS3C6H5CH2FeHC2H3C3HC6H5C2H4NH2C2H4CHCH3C2HC3HCH5C2HFeNC8H22CHCH5SH2CHCH2NCH2C4H3CH5CHCHNCHCH7CH5CHNH2CSCH3FeS2H2FeS3FeS2FeSFeSFeCS2FeS2FeS2FeSFeS3C3HCNHC2H2C6H6C2HC3H2C6H3C2HCSH3SCH11CH5CNCHC4H3CH6CH4C4HCH5CH2CH6CH5NH4CHCHC2H3NCH7Fe2H3CHFeS2FeS2FeSFeS4CSC6H4C6H8NC6H3NC8H9CH7CH2CH4CSH10C2H2CH5CH5C2HNHC2HCH2CH2CH2CH2CH2CHCH4CHCH8CHFeHCHC2HCNCFeS2FeS2FeSFeS3HCHC6H4C6H4CHCH2CHC4H6CH8CH3SH3C3H3C2N2CH2NHC3HC3HC2H7C2H2CH2C4H2CHC2H3CH16CHNHCH2C2H8CH2SH4FeS2FeSHFeSFeS3FeS2HSFeSFeS3FeCHFeHFeS2H4CHC6H6C7H4CHC2H4C3H3CH2CHCH4C2H5CHCHCHCNS2H3CFeCH6CH2C2HC5H2SCH6SH3CNCH4C2HCHCH5CHCSH3FeSHFeS2FeSFeS3FeS2FeSFeHFeS3FeS2FeSFeHSNC2H2C7H4C2H2C2HC6H4CH2C5H10SH8CH3C3H3CHCH3CH3CNC2HCFeCHSCH8CH6CH3CHCH3CHCHCH4CHCH2CH4C2NCSCNC2NCH2CHCH2SH2C2H2CH2CHCH9CH4C3H3C2HFeS2FeS2FeSFeS3CHFeS2FeS2FeSFeS3C6H5C2H2C6H4C6H4CHCH4CHCNC6SCH20NC5HCH10CH2NH4CH2CHC2H3CHCNHCHCH5C2H12CHC2H3CH4CHC2HNH8C2H4C2HCH3SHCFeS2FeSHFeSFeS4CFeS2FeS2FeSFeS3CH3C7H4C3HC7H4C6H5NHC3HC2H2CH5SHCH3CSC2H12SCNHC2H5NC8H20NC8H24CH2CH7CH2C2H2CH3C2HCH4CFeS2FeS2FeSFeS3HFeSH3C3SH6C5HCH3C6H5C2H8NH3C3HCNC2H3CSH3C2H3CHCHC3HCH2CH9CHCHCHCH12CHCH2C4NC2H2CH3CH4FeS2FeS2FeSFeS3HCSH3CHC2HC3H2C2H3CH4CHC2HC6H3NH2CSHNHCNC8H21CHSH3CHCHCH2C2H2FeCHC2H8SCH2CHFeH3C2HC2H5SNFeSFeSCFeS2FeS2FeSFeS3HC6H4C2HC3H4C6H4C5H3C3H3C4H6CNHNC8H8CHSH12CH7CHCH2CH2C2H2NC2HCH4CH4CH2CHSHCHCH6CFeH2NHCHCHCHSH2CHCH2CH2SCSFeSFeSHFeS2FeS2FeSFeS3HC4HCH3CH4C8H2C6H4C2NHC2H4C2H2CNH2CH2CH4CH5CHSCH2CHCHNC8H24C2H2NH5C2H10C3HCH3CH2CH2CH4C3H3CHCHC3H
_chemical_formula_sum              "H1152 Fe96 S192 C672 N48"
_cell_length_a       52.4929
_cell_length_b       54.7759
_cell_length_c       43.9278
_cell_angle_alpha    90.4554
_cell_angle_beta     89.9874
_cell_angle_gamma    118.798

_space_group_name_H-M_alt    "P 1"
_space_group_IT_number       1

loop_
  _space_group_symop_operation_xyz
  'x, y, z'

loop_
  _atom_site_type_symbol
  _atom_site_label
  _atom_site_symmetry_multiplicity
  _atom_site_fract_x
  _atom_site_fract_y
  _atom_site_fract_z
  _atom_site_occupancy
  H   H1        1.0  0.41581  0.22004  0.03294  1.0000
  Fe  Fe1       1.0  0.40547  0.19927  0.15279  1.0000
  S   S1        1.0  0.42439  0.17264  0.13510  1.0000
  S   S2        1.0  0.35842  0.17952  0.17055  1.0000
  H   H2        1.0  0.36906  0.14915  0.36116  1.0000
  Fe  Fe2       1.0  0.43688  0.19931  0.09319  1.0000
  S   S3        1.0  0.43735  0.18118  0.04664  1.0000
  S   S4        1.0  0.44732  0.23096  0.17542  1.0000
  S   S5        1.0  0.41505  0.22365  0.10880  1.0000
  Fe  Fe3       1.0  0.03865  0.23471  0.32149  1.0000
  S   S6        1.0  0.06921  0.27375  0.34744  1.0000
  H   H3        1.0  0.31468  0.10764  0.45188  1.0000
  Fe  Fe4       1.0  0.08775  0.22048  0.30895  1.0000
  S   S7        1.0  0.12121  0.25892  0.33294  1.0000
  S   S8        1.0  0.09486  0.18497  0.29077  1.0000
  Fe  Fe5       1.0  0.08704  0.24807  0.36928  1.0000
  S   S9        1.0  0.09743  0.24035  0.41778  1.0000
  Fe  Fe6       1.0  0.10060  0.28158  0.30864  1.0000
  S   S10       1.0  0.05430  0.20870  0.34594  1.0000
  S   S11       1.0  0.06928  0.24358  0.28192  1.0000
  Fe  Fe7       1.0  0.24810  0.10379  0.31168  1.0000
  S   S12       1.0  0.20742  0.09677  0.28720  1.0000
  S   S13       1.0  0.29583  0.12417  0.29641  1.0000
  Fe  Fe8       1.0  0.21534  0.08409  0.37309  1.0000
  S   S14       1.0  0.17291  0.07694  0.35303  1.0000
  S   S15       1.0  0.21922  0.07002  0.42061  1.0000
  Fe  Fe9       1.0  0.18442  0.05669  0.31430  1.0000
  S   S16       1.0  0.15075  0.01448  0.29472  1.0000
  Fe  Fe10      1.0  0.19918  0.11735  0.32798  1.0000
  S   S17       1.0  0.19648  0.15792  0.32747  1.0000
  S   S18       1.0  0.22575  0.06230  0.33535  1.0000
  S   S19       1.0  0.24087  0.12579  0.35148  1.0000
  C   C1        1.0  0.16825  0.16499  0.31592  1.0000
  C   C2        1.0  0.14194  0.14443  0.30370  1.0000
  C   C3        1.0  0.11988  0.15101  0.29578  1.0000
  C   C4        1.0  0.12364  0.17801  0.30044  1.0000
  C   C5        1.0  0.15002  0.19859  0.31255  1.0000
  C   C6        1.0  0.17228  0.19216  0.31991  1.0000
  H   H4        1.0  0.13853  0.12347  0.30037  1.0000
  H   H5        1.0  0.09965  0.13498  0.28623  1.0000
  H   H6        1.0  0.15333  0.21950  0.31604  1.0000
  H   H7        1.0  0.19257  0.20825  0.32926  1.0000
  H   H8        1.0  0.16510  0.23049  0.40898  1.0000
  C   C7        1.0  0.30771  0.15166  0.43638  1.0000
  H   H9        1.0  0.27800  0.08718  0.43987  1.0000
  H   H10       1.0  0.35147  0.13839  0.41970  1.0000
  Fe  Fe11      1.0  0.46665  0.20580  0.15457  1.0000
  H   H11       1.0  0.42905  0.09981  0.06583  1.0000
  C   C8        1.0  0.22308  0.08794  0.45543  1.0000
  C   C9        1.0  0.23004  0.11600  0.45648  1.0000
  H   H12       1.0  0.46461  0.07536  0.07122  1.0000
  H   H13       1.0  0.23198  0.12703  0.43556  1.0000
  H   H14       1.0  0.04903  0.15312  0.42506  1.0000
  C   C10       1.0  0.09092  0.25138  0.45379  1.0000
  C   C11       1.0  0.08184  0.27147  0.45674  1.0000
  C   C12       1.0  0.14266  0.14586  0.40112  1.0000
  H   H15       1.0  0.07813  0.28054  0.43657  1.0000
  C   C13       1.0  0.34175  0.16303  0.20545  1.0000
  C   C14       1.0  0.31122  0.14695  0.20662  1.0000
  C   C15       1.0  0.29685  0.13430  0.23393  1.0000
  C   C16       1.0  0.31279  0.13814  0.26076  1.0000
  C   C17       1.0  0.34331  0.15406  0.25957  1.0000
  C   C18       1.0  0.35773  0.16633  0.23213  1.0000
  H   H16       1.0  0.29862  0.14406  0.18613  1.0000
  H   H17       1.0  0.27346  0.12154  0.23416  1.0000
  H   H18       1.0  0.35596  0.15707  0.28005  1.0000
  H   H19       1.0  0.38117  0.17866  0.23170  1.0000
  H   H20       1.0  0.28874  0.05245  0.41609  1.0000
  C   C19       1.0  0.43504  0.19695  0.01257  1.0000
  C   C20       1.0  0.42372  0.21542  0.01211  1.0000
  H   H21       1.0  0.07843  0.18280  0.38886  1.0000
  H   H22       1.0  0.33311  0.14284  0.35459  1.0000
  H   H23       1.0  0.18114  0.99837  0.33962  1.0000
  H   H24       1.0  0.04635  0.13019  0.37729  1.0000
  N   N1        1.0  0.30742  0.11166  0.40396  1.0000
  H   H25       1.0  0.46961  0.05793  0.10366  1.0000
  H   H26       1.0  0.33171  0.16427  0.43636  1.0000
  C   C21       1.0  0.44447  0.12223  0.06945  1.0000
  C   C22       1.0  0.06513  0.15223  0.44070  1.0000
  H   H27       1.0  0.28998  0.06488  0.34186  1.0000
  H   H28       1.0  0.32372  0.09617  0.34411  1.0000
  H   H29       1.0  0.44586  0.30417  0.05141  1.0000
  H   H30       1.0  0.07101  0.13425  0.34632  1.0000
  C   C23       1.0  0.33971  0.12708  0.39871  1.0000
  H   H31       1.0  0.29886  0.16644  0.43583  1.0000
  C   C24       1.0  0.02185  0.28309  0.23196  1.0000
  H   H32       1.0  0.13976  0.22097  0.37854  1.0000
  H   H33       1.0  0.30012  0.14010  0.45806  1.0000
  H   H34       1.0  0.10168  0.18398  0.35937  1.0000
  C   C25       1.0  0.29598  0.13202  0.40846  1.0000
  C   C26       1.0  0.08756  0.17038  0.37777  1.0000
  H   H35       1.0  0.29996  0.14529  0.38807  1.0000
  C   C27       1.0  0.45721  0.12767  0.13683  1.0000
  C   C28       1.0  0.45516  0.06505  0.09300  1.0000
  C   C29       1.0  0.34985  0.14846  0.37261  1.0000
  H   H36       1.0  0.01955  0.24686  0.25649  1.0000
  C   C30       1.0  0.22067  0.07389  0.48280  1.0000
  H   H37       1.0  0.43440  0.04640  0.08652  1.0000
  H   H38       1.0  0.34866  0.11265  0.39462  1.0000
  H   H39       1.0  0.26945  0.07604  0.38488  1.0000
  H   H40       1.0  0.16184  0.16593  0.40744  1.0000
  H   H41       1.0  0.03558  0.28005  0.29159  1.0000
  C   C31       1.0  0.30603  0.08024  0.35813  1.0000
  C   C32       1.0  0.23516  0.12997  0.48473  1.0000
  H   H42       1.0  0.13333  0.13304  0.42167  1.0000
  Fe  Fe12      1.0  0.45820  0.25297  0.13033  1.0000
  N   N2        1.0  0.27097  0.19493  0.25912  1.0000
  C   C33       1.0  0.29867  0.20064  0.24302  1.0000
  C   C34       1.0  0.25067  0.16394  0.25810  1.0000
  C   C35       1.0  0.27665  0.20432  0.29192  1.0000
  C   C36       1.0  0.25784  0.21063  0.24346  1.0000
  C   C37       1.0  0.32342  0.23106  0.24389  1.0000
  C   C38       1.0  0.23690  0.15171  0.22677  1.0000
  C   C39       1.0  0.29348  0.19299  0.31067  1.0000
  C   C40       1.0  0.22844  0.20617  0.25625  1.0000
  H   H43       1.0  0.30765  0.18752  0.25231  1.0000
  H   H44       1.0  0.29447  0.19469  0.21854  1.0000
  H   H45       1.0  0.23268  0.15771  0.27476  1.0000
  H   H46       1.0  0.26210  0.15238  0.26552  1.0000
  H   H47       1.0  0.28857  0.22745  0.29378  1.0000
  H   H48       1.0  0.25576  0.19794  0.30407  1.0000
  H   H49       1.0  0.27268  0.23345  0.24523  1.0000
  H   H50       1.0  0.25568  0.20662  0.21844  1.0000
  H   H51       1.0  0.31775  0.24512  0.23102  1.0000
  H   H52       1.0  0.33015  0.23906  0.26739  1.0000
  H   H53       1.0  0.34279  0.23193  0.23255  1.0000
  H   H54       1.0  0.25344  0.15632  0.20888  1.0000
  H   H55       1.0  0.22420  0.12867  0.22843  1.0000
  H   H56       1.0  0.22143  0.15896  0.21959  1.0000
  H   H57       1.0  0.29491  0.20003  0.33469  1.0000
  H   H58       1.0  0.31603  0.20080  0.30245  1.0000
  H   H59       1.0  0.28219  0.16996  0.31083  1.0000
  H   H60       1.0  0.23180  0.22070  0.27552  1.0000
  H   H61       1.0  0.21410  0.18470  0.26412  1.0000
  H   H62       1.0  0.21595  0.20962  0.23795  1.0000
  H   H63       1.0  0.99847  0.31638  0.31033  1.0000
  H   H64       1.0  0.98487  0.24149  0.24258  1.0000
  C   C41       1.0  0.30524  0.06885  0.43108  1.0000
  H   H65       1.0  0.47921  0.12993  0.18064  1.0000
  C   C42       1.0  0.29078  0.09322  0.37724  1.0000
  H   H66       1.0  0.13852  0.18596  0.43414  1.0000
  H   H67       1.0  0.43376  0.13233  0.08217  1.0000
  H   H68       1.0  0.15086  0.13461  0.38629  1.0000
  H   H69       1.0  0.35568  0.16957  0.38146  1.0000
  H   H70       1.0  0.09907  0.14118  0.44217  1.0000
  S   S20       1.0  0.99186  0.22724  0.31839  1.0000
  H   H71       1.0  0.16279  0.20487  0.38213  1.0000
  H   H72       1.0  0.07706  0.17240  0.45300  1.0000
  C   C43       1.0  0.06264  0.14513  0.36136  1.0000
  H   H73       1.0  0.10377  0.12916  0.37430  1.0000
  C   C44       1.0  0.47290  0.12702  0.08493  1.0000
  H   H74       1.0  0.27189  0.12055  0.41059  1.0000
  H   H75       1.0  0.44392  0.09904  0.17620  1.0000
  N   N3        1.0  0.10501  0.16366  0.40014  1.0000
  C   C45       1.0  0.11989  0.15010  0.38309  1.0000
  H   H76       1.0  0.05102  0.15267  0.34622  1.0000
  H   H77       1.0  0.05258  0.13626  0.45802  1.0000
  C   C46       1.0  0.08574  0.14380  0.42412  1.0000
  C   C47       1.0  0.12683  0.19026  0.41560  1.0000
  C   C48       1.0  0.14976  0.21256  0.39472  1.0000
  C   C49       1.0  0.30091  0.09467  0.43262  1.0000
  H   H78       1.0  0.10290  0.22448  0.47836  1.0000
  H   H79       1.0  0.30188  0.05968  0.45417  1.0000
  H   H80       1.0  0.13076  0.16222  0.36258  1.0000
  C   C50       1.0  0.00851  0.25147  0.23776  1.0000
  H   H81       1.0  0.28486  0.10482  0.36047  1.0000
  H   H82       1.0  0.07217  0.12254  0.41437  1.0000
  H   H83       1.0  0.11573  0.20060  0.42713  1.0000
  H   H84       1.0  0.24130  0.15185  0.48531  1.0000
  H   H85       1.0  0.47721  0.25387  0.03055  1.0000
  C   C51       1.0  0.98325  0.30598  0.29129  1.0000
  H   H86       1.0  0.44971  0.13202  0.04661  1.0000
  C   C52       1.0  0.09577  0.23993  0.48033  1.0000
  H   H87       1.0  0.44962  0.27375  0.05394  1.0000
  N   N4        1.0  0.46957  0.11400  0.11585  1.0000
  C   C53       1.0  0.99158  0.28748  0.27160  1.0000
  H   H88       1.0  0.01105  0.24116  0.21699  1.0000
  C   C54       1.0  0.04345  0.30111  0.28184  1.0000
  H   H89       1.0  0.00967  0.28534  0.21234  1.0000
  H   H90       1.0  0.04432  0.29005  0.22359  1.0000
  H   H91       1.0  0.32753  0.07410  0.42397  1.0000
  H   H92       1.0  0.44381  0.28541  0.01736  1.0000
  H   H93       1.0  0.31478  0.06912  0.37180  1.0000
  H   H94       1.0  0.42588  0.07872  0.11159  1.0000
  H   H95       1.0  0.21535  0.05220  0.48216  1.0000
  C   C55       1.0  0.44870  0.08315  0.11543  1.0000
  H   H96       1.0  0.46939  0.15074  0.13451  1.0000
  H   H97       1.0  0.06440  0.30544  0.27103  1.0000
  H   H98       1.0  0.44776  0.07414  0.13827  1.0000
  H   H99       1.0  0.43432  0.12148  0.13066  1.0000
  H   H100      1.0  0.98730  0.26907  0.28560  1.0000
  C   C56       1.0  0.07811  0.28026  0.48593  1.0000
  H   H101      1.0  0.03597  0.31000  0.32885  1.0000
  N   N5        1.0  0.02201  0.30072  0.25872  1.0000
  H   H102      1.0  0.21608  0.20423  0.48225  1.0000
  H   H103      1.0  0.10776  0.31028  0.22670  1.0000
  C   C57       1.0  0.45509  0.29219  0.03960  1.0000
  S   S21       1.0  0.48042  0.23020  0.11168  1.0000
  C   C58       1.0  0.45694  0.12152  0.17113  1.0000
  H   H104      1.0  0.44676  0.13234  0.18361  1.0000
  H   H105      1.0  0.07143  0.29606  0.48795  1.0000
  H   H106      1.0  0.18866  0.99671  0.66781  1.0000
  Fe  Fe13      1.0  0.41822  0.19446  0.81918  1.0000
  S   S22       1.0  0.43066  0.18357  0.86453  1.0000
  S   S23       1.0  0.37093  0.16520  0.80341  1.0000
  H   H107      1.0  0.38979  0.18223  0.74008  1.0000
  H   H108      1.0  0.18666  0.21294  0.55962  1.0000
  Fe  Fe14      1.0  0.44495  0.22762  0.87854  1.0000
  S   S24       1.0  0.43229  0.23923  0.92375  1.0000
  S   S25       1.0  0.46252  0.20674  0.79929  1.0000
  S   S26       1.0  0.43059  0.23820  0.83451  1.0000
  Fe  Fe15      1.0  0.09340  0.22032  0.62819  1.0000
  S   S27       1.0  0.12049  0.26528  0.61513  1.0000
  S   S28       1.0  0.10268  0.18435  0.61797  1.0000
  Fe  Fe16      1.0  0.04190  0.22851  0.64767  1.0000
  S   S29       1.0  0.06513  0.27421  0.63632  1.0000
  Fe  Fe17      1.0  0.07962  0.26093  0.59369  1.0000
  S   S30       1.0  0.07893  0.28121  0.54875  1.0000
  Fe  Fe18      1.0  0.10442  0.27578  0.65869  1.0000
  C   C59       1.0  0.15769  0.12375  0.54459  1.0000
  S   S31       1.0  0.05335  0.21531  0.60361  1.0000
  S   S32       1.0  0.08035  0.23076  0.67314  1.0000
  Fe  Fe19      1.0  0.25690  0.11043  0.65542  1.0000
  S   S33       1.0  0.21323  0.09026  0.67885  1.0000
  S   S34       1.0  0.30348  0.12940  0.67491  1.0000
  Fe  Fe20      1.0  0.22960  0.11320  0.59343  1.0000
  S   S35       1.0  0.18477  0.09426  0.61326  1.0000
  S   S36       1.0  0.23983  0.13437  0.54702  1.0000
  Fe  Fe21      1.0  0.20481  0.12170  0.65409  1.0000
  S   S37       1.0  0.19314  0.15231  0.67768  1.0000
  Fe  Fe22      1.0  0.19634  0.06381  0.63590  1.0000
  S   S38       1.0  0.15914  0.01910  0.62872  1.0000
  S   S39       1.0  0.24887  0.14275  0.63281  1.0000
  S   S40       1.0  0.24071  0.08191  0.61381  1.0000
  C   C60       1.0  0.23264  0.11585  0.51212  1.0000
  C   C61       1.0  0.22511  0.08768  0.51106  1.0000
  C   C62       1.0  0.42261  0.22790  0.98463  1.0000
  H   H109      1.0  0.22319  0.07662  0.53198  1.0000
  C   C63       1.0  0.33233  0.15448  0.93266  1.0000
  N   N6        1.0  0.34217  0.15081  0.90151  1.0000
  H   H110      1.0  0.00802  0.09271  0.66599  1.0000
  C   C64       1.0  0.30962  0.19904  0.68010  1.0000
  C   C65       1.0  0.08300  0.26883  0.51246  1.0000
  H   H111      1.0  0.09559  0.23953  0.52966  1.0000
  H   H112      1.0  0.21814  0.15568  0.74016  1.0000
  C   C66       1.0  0.12684  0.17536  0.63677  1.0000
  C   C67       1.0  0.14785  0.19325  0.65758  1.0000
  C   C68       1.0  0.16771  0.18574  0.67044  1.0000
  C   C69       1.0  0.16683  0.16041  0.66248  1.0000
  C   C70       1.0  0.14534  0.14227  0.64233  1.0000
  C   C71       1.0  0.12555  0.14976  0.62944  1.0000
  H   H113      1.0  0.14905  0.21300  0.66345  1.0000
  H   H114      1.0  0.18409  0.19981  0.68626  1.0000
  H   H115      1.0  0.14405  0.12245  0.63656  1.0000
  H   H116      1.0  0.10926  0.13567  0.61356  1.0000
  H   H117      1.0  0.14686  0.10377  0.55715  1.0000
  H   H118      1.0  0.37169  0.17560  0.86609  1.0000
  C   C72       1.0  0.27902  0.23772  0.71256  1.0000
  C   C73       1.0  0.28143  0.19923  0.76116  1.0000
  H   H119      1.0  0.30088  0.24661  0.70217  1.0000
  C   C74       1.0  0.43297  0.22219  0.95747  1.0000
  C   C75       1.0  0.44381  0.20337  0.95781  1.0000
  C   C76       1.0  0.23231  0.14597  0.74232  1.0000
  H   H120      1.0  0.35031  0.20643  0.90945  1.0000
  H   H121      1.0  0.16956  0.12045  0.52541  1.0000
  C   C77       1.0  0.35284  0.15551  0.76730  1.0000
  C   C78       1.0  0.32308  0.13564  0.76633  1.0000
  C   C79       1.0  0.30761  0.12738  0.73846  1.0000
  C   C80       1.0  0.32168  0.13891  0.71100  1.0000
  C   C81       1.0  0.35147  0.15868  0.71198  1.0000
  C   C82       1.0  0.36692  0.16704  0.73987  1.0000
  H   H122      1.0  0.31195  0.12633  0.78728  1.0000
  H   H123      1.0  0.28491  0.11174  0.73817  1.0000
  H   H124      1.0  0.36275  0.16760  0.69095  1.0000
  C   C83       1.0  0.36539  0.17822  0.88945  1.0000
  C   C84       1.0  0.19956  0.17748  0.52167  1.0000
  H   H125      1.0  0.12834  0.15952  0.55956  1.0000
  C   C85       1.0  0.17475  0.18999  0.56299  1.0000
  S   S41       1.0  0.13830  0.31129  0.68879  1.0000
  H   H126      1.0  0.34075  0.19748  0.86960  1.0000
  H   H127      1.0  0.37395  0.13681  0.85797  1.0000
  H   H128      1.0  0.33972  0.10560  0.86173  1.0000
  S   S42       1.0  0.99774  0.20479  0.67084  1.0000
  C   C86       1.0  0.03425  0.15562  0.68726  1.0000
  H   H129      1.0  0.20181  0.99354  0.57328  1.0000
  H   H130      1.0  0.21377  0.16791  0.51727  1.0000
  H   H131      1.0  0.08400  0.30104  0.82038  1.0000
  H   H132      1.0  0.21938  0.12403  0.73447  1.0000
  H   H133      1.0  0.20120  0.21748  0.51028  1.0000
  H   H134      1.0  0.27287  0.14980  0.72638  1.0000
  H   H135      1.0  0.37120  0.16115  0.95916  1.0000
  H   H136      1.0  0.32368  0.13849  0.85624  1.0000
  H   H137      1.0  0.31784  0.13389  0.94301  1.0000
  H   H138      1.0  0.05646  0.17266  0.69257  1.0000
  H   H139      1.0  0.29075  0.16483  0.77279  1.0000
  C   C87       1.0  0.29125  0.11051  0.88796  1.0000
  H   H140      1.0  0.26630  0.24509  0.69884  1.0000
  H   H141      1.0  0.98791  0.10653  0.68554  1.0000
  H   H142      1.0  0.04301  0.16544  0.64031  1.0000
  H   H143      1.0  0.04549  0.15438  0.59157  1.0000
  H   H144      1.0  0.25782  0.19859  0.68804  1.0000
  C   C88       1.0  0.26002  0.16071  0.72277  1.0000
  N   N7        1.0  0.19318  0.17655  0.55526  1.0000
  C   C89       1.0  0.22201  0.19268  0.57156  1.0000
  H   H145      1.0  0.03008  0.13886  0.70370  1.0000
  C   C90       1.0  0.17894  0.14682  0.56636  1.0000
  C   C91       1.0  0.09166  0.24844  0.50949  1.0000
  C   C92       1.0  0.22099  0.19154  0.60668  1.0000
  C   C93       1.0  0.35470  0.13120  0.90403  1.0000
  H   H146      1.0  0.16986  0.18816  0.58776  1.0000
  H   H147      1.0  0.27412  0.10414  0.87016  1.0000
  H   H148      1.0  0.23666  0.21977  0.51580  1.0000
  C   C94       1.0  0.21421  0.20662  0.50717  1.0000
  H   H149      1.0  0.19555  0.14058  0.57222  1.0000
  H   H150      1.0  0.16711  0.14478  0.58786  1.0000
  H   H151      1.0  0.31995  0.19907  0.78099  1.0000
  H   H152      1.0  0.38567  0.18610  0.90317  1.0000
  H   H153      1.0  0.20908  0.20182  0.61645  1.0000
  H   H154      1.0  0.14522  0.17269  0.52297  1.0000
  C   C95       1.0  0.99198  0.10034  0.66263  1.0000
  H   H155      1.0  0.37178  0.10802  0.87851  1.0000
  H   H156      1.0  0.13782  0.19415  0.54724  1.0000
  H   H157      1.0  0.45174  0.19872  0.93700  1.0000
  H   H158      1.0  0.29798  0.09422  0.88859  1.0000
  C   C96       1.0  0.29590  0.18590  0.78073  1.0000
  C   C97       1.0  0.26287  0.20558  0.71224  1.0000
  C   C98       1.0  0.03361  0.14607  0.65398  1.0000
  C   C99       1.0  0.00964  0.11603  0.61056  1.0000
  H   H159      1.0  0.23755  0.14529  0.76664  1.0000
  C   C100      1.0  0.31660  0.13947  0.87996  1.0000
  H   H160      1.0  0.24126  0.19902  0.72273  1.0000
  H   H161      1.0  0.33225  0.20472  0.67359  1.0000
  H   H162      1.0  0.32322  0.22337  0.72157  1.0000
  H   H163      1.0  0.28115  0.11081  0.91002  1.0000
  H   H164      1.0  0.24354  0.20287  0.61577  1.0000
  C   C101      1.0  0.35675  0.17049  0.95621  1.0000
  H   H165      1.0  0.31891  0.16515  0.93124  1.0000
  H   H166      1.0  0.02249  0.12973  0.56398  1.0000
  C   C102      1.0  0.14488  0.17799  0.54721  1.0000
  H   H167      1.0  0.26036  0.19493  0.77163  1.0000
  H   H168      1.0  0.34056  0.11276  0.91809  1.0000
  H   H169      1.0  0.37711  0.22125  0.88056  1.0000
  H   H170      1.0  0.30372  0.21327  0.66794  1.0000
  H   H171      1.0  0.23256  0.21518  0.56582  1.0000
  H   H172      1.0  0.21154  0.16995  0.61516  1.0000
  C   C103      1.0  0.30808  0.20140  0.71491  1.0000
  H   H173      1.0  0.31798  0.18921  0.72475  1.0000
  H   H174      1.0  0.29530  0.22209  0.76442  1.0000
  H   H175      1.0  0.37601  0.14152  0.91616  1.0000
  H   H176      1.0  0.29569  0.17745  0.67208  1.0000
  H   H177      1.0  0.28068  0.24631  0.73585  1.0000
  N   N8        1.0  0.27814  0.19176  0.72780  1.0000
  H   H178      1.0  0.30702  0.15365  0.87894  1.0000
  H   H179      1.0  0.23742  0.18519  0.56420  1.0000
  H   H180      1.0  0.04956  0.13813  0.65239  1.0000
  H   H181      1.0  0.25285  0.15591  0.69861  1.0000
  C   C104      1.0  0.35740  0.20184  0.88741  1.0000
  H   H182      1.0  0.14042  0.12786  0.53575  1.0000
  C   C105      1.0  0.02254  0.13918  0.58645  1.0000
  H   H183      1.0  0.28762  0.18325  0.80441  1.0000
  C   C106      1.0  0.36015  0.11999  0.87371  1.0000
  C   C107      1.0  0.09874  0.31645  0.80370  1.0000
  H   H184      1.0  0.11589  0.31900  0.87114  1.0000
  H   H185      1.0  0.00983  0.15036  0.58390  1.0000
  H   H186      1.0  0.99773  0.16021  0.63229  1.0000
  N   N9        1.0  0.00426  0.12491  0.64145  1.0000
  C   C108      1.0  0.44472  0.19072  0.98526  1.0000
  H   H187      1.0  0.17969  0.16474  0.50803  1.0000
  H   H188      1.0  0.36998  0.19275  0.95022  1.0000
  H   H189      1.0  0.02469  0.10711  0.61266  1.0000
  H   H190      1.0  0.41379  0.24213  0.98440  1.0000
  H   H191      1.0  0.01904  0.16401  0.69111  1.0000
  H   H192      1.0  0.34691  0.16995  0.97875  1.0000
  H   H193      1.0  0.45329  0.17628  0.98539  1.0000
  Fe  Fe23      1.0  0.47561  0.24971  0.81806  1.0000
  Fe  Fe24      1.0  0.47568  0.19986  0.84579  1.0000
  H   H194      1.0  0.10633  0.30545  0.78774  1.0000
  H   H195      1.0  0.98973  0.09900  0.60032  1.0000
  H   H196      1.0  0.47252  0.27759  0.98717  1.0000
  C   C109      1.0  0.98498  0.13827  0.64011  1.0000
  H   H197      1.0  0.21868  0.59160  0.09663  1.0000
  Fe  Fe25      1.0  0.17765  0.44318  0.15250  1.0000
  S   S43       1.0  0.21251  0.45236  0.11702  1.0000
  S   S44       1.0  0.14905  0.39732  0.16735  1.0000
  Fe  Fe26      1.0  0.19484  0.50542  0.15791  1.0000
  S   S45       1.0  0.23061  0.51840  0.12401  1.0000
  S   S46       1.0  0.19370  0.54120  0.18305  1.0000
  Fe  Fe27      1.0  0.19890  0.48169  0.09586  1.0000
  S   S47       1.0  0.20132  0.49579  0.04651  1.0000
  Fe  Fe28      1.0  0.24123  0.48859  0.14737  1.0000
  S   S48       1.0  0.28612  0.49807  0.16262  1.0000
  S   S49       1.0  0.16179  0.47033  0.12884  1.0000
  S   S50       1.0  0.20766  0.47765  0.18384  1.0000
  S   S51       1.0  0.14668  0.61439  0.11664  1.0000
  C   C110      1.0  0.31579  0.61252  0.19189  1.0000
  S   S52       1.0  0.40430  0.61096  0.14609  1.0000
  C   C111      1.0  0.37049  0.58029  0.14925  1.0000
  C   C112      1.0  0.34431  0.57786  0.13795  1.0000
  C   C113      1.0  0.31800  0.55265  0.14139  1.0000
  C   C114      1.0  0.31795  0.53005  0.15638  1.0000
  C   C115      1.0  0.34413  0.53274  0.16752  1.0000
  C   C116      1.0  0.37019  0.55756  0.16381  1.0000
  H   H198      1.0  0.34443  0.59522  0.12627  1.0000
  H   H199      1.0  0.29793  0.55065  0.13236  1.0000
  H   H200      1.0  0.34434  0.51544  0.17900  1.0000
  H   H201      1.0  0.39025  0.55915  0.17243  1.0000
  C   C117      1.0  0.18114  0.56163  0.16395  1.0000
  C   C118      1.0  0.18433  0.58609  0.17794  1.0000
  C   C119      1.0  0.17469  0.60292  0.16328  1.0000
  C   C120      1.0  0.16080  0.59484  0.13495  1.0000
  C   C121      1.0  0.15750  0.57031  0.12102  1.0000
  C   C122      1.0  0.16801  0.55396  0.13524  1.0000
  H   H202      1.0  0.19426  0.59202  0.20024  1.0000
  H   H203      1.0  0.17748  0.62181  0.17420  1.0000
  H   H204      1.0  0.14668  0.56386  0.09916  1.0000
  H   H205      1.0  0.16534  0.53508  0.12431  1.0000
  H   H206      1.0  0.24185  0.53954  0.22639  1.0000
  H   H207      1.0  0.24259  0.59465  0.06676  1.0000
  H   H208      1.0  0.31834  0.63379  0.19199  1.0000
  H   H209      1.0  0.17096  0.43623  0.03024  1.0000
  N   N10       1.0  0.29213  0.59361  0.21347  1.0000
  C   C123      1.0  0.13161  0.34575  0.25609  1.0000
  C   C124      1.0  0.14784  0.37509  0.25699  1.0000
  C   C125      1.0  0.15282  0.39120  0.23041  1.0000
  C   C126      1.0  0.14191  0.37823  0.20221  1.0000
  C   C127      1.0  0.12530  0.34889  0.20135  1.0000
  C   C128      1.0  0.12024  0.33276  0.22799  1.0000
  H   H210      1.0  0.15660  0.38549  0.27854  1.0000
  H   H211      1.0  0.16523  0.41368  0.23176  1.0000
  H   H212      1.0  0.11665  0.33850  0.17978  1.0000
  N   N11       1.0  0.23708  0.40232  0.18738  1.0000
  C   C129      1.0  0.25568  0.42700  0.16759  1.0000
  C   C130      1.0  0.22330  0.41236  0.21101  1.0000
  C   C131      1.0  0.21350  0.38054  0.16753  1.0000
  C   C132      1.0  0.25611  0.39149  0.20096  1.0000
  C   C133      1.0  0.25957  0.59540  0.11153  1.0000
  C   C134      1.0  0.24463  0.43708  0.23103  1.0000
  C   C135      1.0  0.19225  0.35308  0.18300  1.0000
  C   C136      1.0  0.24553  0.37479  0.23088  1.0000
  H   H213      1.0  0.24316  0.43744  0.15995  1.0000
  H   H214      1.0  0.27448  0.44309  0.18075  1.0000
  H   H215      1.0  0.20901  0.39563  0.22665  1.0000
  H   H216      1.0  0.20859  0.41900  0.19979  1.0000
  H   H217      1.0  0.20039  0.38927  0.15678  1.0000
  H   H218      1.0  0.29437  0.62317  0.06135  1.0000
  H   H219      1.0  0.25977  0.37824  0.18405  1.0000
  H   H220      1.0  0.27806  0.40920  0.20629  1.0000
  H   H221      1.0  0.35643  0.63049  0.21876  1.0000
  C   C137      1.0  0.20492  0.62243  0.05425  1.0000
  H   H222      1.0  0.27351  0.63058  0.23978  1.0000
  H   H223      1.0  0.18187  0.35621  0.20345  1.0000
  H   H224      1.0  0.26244  0.43393  0.24030  1.0000
  H   H225      1.0  0.25397  0.45691  0.21820  1.0000
  H   H226      1.0  0.24618  0.62370  0.21201  1.0000
  H   H227      1.0  0.45546  0.60171  0.16953  1.0000
  H   H228      1.0  0.06524  0.36644  0.22615  1.0000
  C   C138      1.0  0.26774  0.62500  0.21556  1.0000
  H   H229      1.0  0.22182  0.36412  0.23464  1.0000
  H   H230      1.0  0.25673  0.38829  0.25087  1.0000
  C   C139      1.0  0.18068  0.44817  0.00994  1.0000
  H   H231      1.0  0.09557  0.60563  0.18877  1.0000
  H   H232      1.0  0.22286  0.37407  0.14844  1.0000
  H   H233      1.0  0.04993  0.34035  0.30471  1.0000
  H   H234      1.0  0.24587  0.58042  0.21780  1.0000
  C   C140      1.0  0.23888  0.64369  0.11268  1.0000
  S   S53       1.0  0.12642  0.32677  0.29073  1.0000
  H   H235      1.0  0.30537  0.56198  0.20627  1.0000
  H   H236      1.0  0.10774  0.63385  0.16172  1.0000
  H   H237      1.0  0.27638  0.61263  0.12514  1.0000
  H   H238      1.0  0.26019  0.59316  0.18199  1.0000
  H   H239      1.0  0.34765  0.59738  0.20123  1.0000
  H   H240      1.0  0.26033  0.52058  0.21680  1.0000
  H   H241      1.0  0.17436  0.34039  0.16678  1.0000
  H   H242      1.0  0.23827  0.61803  0.15104  1.0000
  H   H243      1.0  0.46482  0.62690  0.22988  1.0000
  H   H244      1.0  0.27206  0.54231  0.24954  1.0000
  C   C141      1.0  0.26355  0.54079  0.22615  1.0000
  C   C142      1.0  0.46274  0.64160  0.21401  1.0000
  H   H245      1.0  0.19414  0.63089  0.06945  1.0000
  H   H246      1.0  0.25224  0.41092  0.12075  1.0000
  C   C143      1.0  0.26562  0.59670  0.20670  1.0000
  H   H247      1.0  0.19562  0.59974  0.05799  1.0000
  H   H248      1.0  0.28537  0.57875  0.28814  1.0000
  H   H249      1.0  0.27976  0.40856  0.14389  1.0000
  H   H250      1.0  0.25207  0.35828  0.23088  1.0000
  H   H251      1.0  0.16952  0.54783  0.01403  1.0000
  C   C144      1.0  0.19737  0.47718  0.01202  1.0000
  H   H252      1.0  0.19901  0.62506  0.03069  1.0000
  H   H253      1.0  0.28064  0.60862  0.28440  1.0000
  H   H254      1.0  0.31916  0.59455  0.25101  1.0000
  H   H255      1.0  0.44400  0.62832  0.19891  1.0000
  H   H256      1.0  0.27696  0.55875  0.18197  1.0000
  C   C145      1.0  0.24186  0.60350  0.08948  1.0000
  C   C146      1.0  0.17022  0.53424  0.99550  1.0000
  H   H257      1.0  0.23259  0.43956  0.25056  1.0000
  N   N12       1.0  0.25085  0.63406  0.08682  1.0000
  H   H258      1.0  0.28554  0.44131  0.12944  1.0000
  C   C147      1.0  0.06775  0.60583  0.24809  1.0000
  C   C148      1.0  0.28545  0.56419  0.20574  1.0000
  H   H259      1.0  0.04891  0.63001  0.23190  1.0000
  C   C149      1.0  0.26886  0.42110  0.13890  1.0000
  H   H260      1.0  0.21481  0.63213  0.11281  1.0000
  H   H261      1.0  0.08844  0.60513  0.24809  1.0000
  C   C150      1.0  0.30295  0.60158  0.24575  1.0000
  H   H262      1.0  0.06360  0.61135  0.27127  1.0000
  H   H263      1.0  0.28327  0.64230  0.20118  1.0000
  C   C151      1.0  0.27999  0.59079  0.27151  1.0000
  H   H264      1.0  0.25734  0.57727  0.26402  1.0000
  H   H265      1.0  0.05089  0.58414  0.24259  1.0000
  C   C152      1.0  0.06651  0.62566  0.22415  1.0000
  H   H266      1.0  0.05766  0.61375  0.20253  1.0000
  H   H267      1.0  0.31006  0.60498  0.16790  1.0000
  C   C153      1.0  0.24781  0.64027  0.14500  1.0000
  H   H268      1.0  0.24450  0.57967  0.12788  1.0000
  H   H269      1.0  0.27020  0.58516  0.09878  1.0000
  C   C154      1.0  0.34669  0.61696  0.19843  1.0000
  H   H270      1.0  0.20304  0.34056  0.18871  1.0000
  C   C155      1.0  0.29939  0.64525  0.06052  1.0000
  H   H271      1.0  0.31511  0.62475  0.24815  1.0000
  H   H272      1.0  0.16448  0.51389  0.00603  1.0000
  H   H273      1.0  0.36091  0.62806  0.17893  1.0000
  H   H274      1.0  0.42973  0.65187  0.23042  1.0000
  C   C156      1.0  0.11297  0.62690  0.18329  1.0000
  H   H275      1.0  0.02884  0.34311  0.26434  1.0000
  C   C157      1.0  0.23840  0.63847  0.05764  1.0000
  H   H276      1.0  0.24688  0.63221  0.03757  1.0000
  H   H277      1.0  0.13291  0.62525  0.17898  1.0000
  H   H278      1.0  0.12674  0.63961  0.22886  1.0000
  H   H279      1.0  0.29483  0.65023  0.03743  1.0000
  H   H280      1.0  0.47519  0.62500  0.13884  1.0000
  H   H281      1.0  0.07331  0.32791  0.31689  1.0000
  H   H282      1.0  0.07813  0.34920  0.25097  1.0000
  H   H283      1.0  0.23893  0.64975  0.16143  1.0000
  C   C158      1.0  0.06134  0.34558  0.23359  1.0000
  H   H284      1.0  0.06437  0.33520  0.21323  1.0000
  Fe  Fe29      1.0  0.40761  0.65289  0.13730  1.0000
  H   H285      1.0  0.27159  0.65095  0.14848  1.0000
  C   C159      1.0  0.03040  0.32934  0.24671  1.0000
  H   H286      1.0  0.01483  0.32791  0.22862  1.0000
  C   C160      1.0  0.47732  0.61491  0.15975  1.0000
  C   C161      1.0  0.28339  0.65267  0.08535  1.0000
  H   H287      1.0  0.11199  0.64610  0.27935  1.0000
  C   C162      1.0  0.11910  0.64761  0.20985  1.0000
  N   N13       1.0  0.09415  0.65249  0.21894  1.0000
  C   C163      1.0  0.05056  0.32092  0.30948  1.0000
  Fe  Fe30      1.0  0.23625  0.49199  0.82740  1.0000
  S   S54       1.0  0.20332  0.49207  0.79443  1.0000
  S   S55       1.0  0.28514  0.51386  0.82238  1.0000
  Fe  Fe31      1.0  0.19111  0.45619  0.87403  1.0000
  S   S56       1.0  0.15493  0.45359  0.84472  1.0000
  S   S57       1.0  0.17932  0.43252  0.91882  1.0000
  Fe  Fe32      1.0  0.17728  0.44593  0.80472  1.0000
  S   S58       1.0  0.14530  0.41151  0.77199  1.0000
  Fe  Fe33      1.0  0.18356  0.49932  0.83673  1.0000
  S   S59       1.0  0.16417  0.52765  0.84634  1.0000
  S   S60       1.0  0.21185  0.44554  0.83485  1.0000
  S   S61       1.0  0.21817  0.50232  0.86885  1.0000
  H   H288      1.0  0.08009  0.35884  0.59998  1.0000
  C   C164      1.0  0.13719  0.48478  0.95247  1.0000
  H   H289      1.0  0.18210  0.34641  0.60435  1.0000
  C   C165      1.0  0.30234  0.54921  0.81193  1.0000
  C   C166      1.0  0.33282  0.56469  0.81259  1.0000
  C   C167      1.0  0.34704  0.59339  0.80644  1.0000
  C   C168      1.0  0.33087  0.60656  0.79867  1.0000
  C   C169      1.0  0.30044  0.59093  0.79716  1.0000
  C   C170      1.0  0.28617  0.56242  0.80425  1.0000
  H   H290      1.0  0.34545  0.55448  0.81812  1.0000
  H   H291      1.0  0.37053  0.60520  0.80703  1.0000
  H   H292      1.0  0.28779  0.60085  0.79066  1.0000
  H   H293      1.0  0.26268  0.55067  0.80356  1.0000
  C   C171      1.0  0.17966  0.56194  0.83210  1.0000
  C   C172      1.0  0.20088  0.57135  0.80938  1.0000
  C   C173      1.0  0.21147  0.59831  0.79748  1.0000
  C   C174      1.0  0.20139  0.61623  0.80868  1.0000
  C   C175      1.0  0.18086  0.60709  0.83206  1.0000
  C   C176      1.0  0.16981  0.57995  0.84345  1.0000
  H   H294      1.0  0.20855  0.55761  0.80040  1.0000
  H   H295      1.0  0.22724  0.60514  0.77931  1.0000
  H   H296      1.0  0.17289  0.62068  0.84077  1.0000
  H   H297      1.0  0.15327  0.57279  0.86087  1.0000
  C   C177      1.0  0.18754  0.44998  0.95462  1.0000
  H   H298      1.0  0.35551  0.61955  0.97258  1.0000
  C   C178      1.0  0.20495  0.47887  0.95687  1.0000
  H   H299      1.0  0.09195  0.51483  0.94804  1.0000
  H   H300      1.0  0.21458  0.49082  0.93660  1.0000
  C   C179      1.0  0.20966  0.49239  0.98536  1.0000
  H   H301      1.0  0.30382  0.61984  0.87009  1.0000
  C   C180      1.0  0.11755  0.36501  0.73487  1.0000
  C   C181      1.0  0.14408  0.38400  0.74876  1.0000
  C   C182      1.0  0.16823  0.37999  0.74447  1.0000
  C   C183      1.0  0.16587  0.35753  0.72634  1.0000
  H   H302      1.0  0.09986  0.32878  0.92063  1.0000
  H   H303      1.0  0.09863  0.36773  0.73814  1.0000
  H   H304      1.0  0.18878  0.39426  0.75501  1.0000
  H   H305      1.0  0.28026  0.63537  0.81915  1.0000
  H   H306      1.0  0.10725  0.35268  0.56122  1.0000
  H   H307      1.0  0.41166  0.61239  0.89448  1.0000
  C   C184      1.0  0.09753  0.36344  0.83564  1.0000
  H   H308      1.0  0.18482  0.35486  0.72305  1.0000
  H   H309      1.0  0.22276  0.51480  0.98678  1.0000
  H   H310      1.0  0.13273  0.32322  0.62277  1.0000
  H   H311      1.0  0.33936  0.62616  0.86077  1.0000
  H   H312      1.0  0.19835  0.57020  0.94217  1.0000
  H   H313      1.0  0.19176  0.52135  0.94324  1.0000
  H   H314      1.0  0.12538  0.44293  0.93661  1.0000
  H   H315      1.0  0.15392  0.39570  0.83580  1.0000
  C   C185      1.0  0.32304  0.61889  0.87930  1.0000
  H   H316      1.0  0.15995  0.32319  0.57498  1.0000
  H   H317      1.0  0.07668  0.34519  0.82855  1.0000
  H   H318      1.0  0.37273  0.62322  0.89124  1.0000
  S   S62       1.0  0.34801  0.64232  0.79005  1.0000
  H   H319      1.0  0.38841  0.57678  0.90340  1.0000
  H   H320      1.0  0.11895  0.38787  0.55166  1.0000
  H   H321      1.0  0.32784  0.62202  0.95048  1.0000
  C   C186      1.0  0.08111  0.34312  0.61494  1.0000
  C   C187      1.0  0.12539  0.34074  0.81914  1.0000
  C   C188      1.0  0.11514  0.34243  0.71692  1.0000
  H   H322      1.0  0.17577  0.51468  0.90677  1.0000
  H   H323      1.0  0.10995  0.37413  0.64549  1.0000
  H   H324      1.0  0.14498  0.39078  0.87465  1.0000
  C   C189      1.0  0.14165  0.38517  0.59202  1.0000
  C   C190      1.0  0.11257  0.34588  0.90447  1.0000
  N   N14       1.0  0.13722  0.36416  0.61634  1.0000
  N   N15       1.0  0.14743  0.51441  0.94275  1.0000
  C   C191      1.0  0.16464  0.34256  0.58768  1.0000
  H   H325      1.0  0.16235  0.41228  0.97988  1.0000
  H   H326      1.0  0.16525  0.39787  0.58683  1.0000
  N   N16       1.0  0.33608  0.58300  0.90392  1.0000
  H   H327      1.0  0.29362  0.58074  0.90152  1.0000
  C   C192      1.0  0.36597  0.60068  0.89066  1.0000
  C   C193      1.0  0.31389  0.58853  0.88786  1.0000
  C   C194      1.0  0.33539  0.58710  0.93783  1.0000
  H   H328      1.0  0.13574  0.35477  0.91120  1.0000
  C   C195      1.0  0.39095  0.59798  0.90591  1.0000
  C   C196      1.0  0.16477  0.40220  0.65764  1.0000
  C   C197      1.0  0.34602  0.61709  0.94940  1.0000
  H   H329      1.0  0.34220  0.54691  0.91143  1.0000
  C   C198      1.0  0.17573  0.43467  0.98134  1.0000
  C   C199      1.0  0.13937  0.33859  0.71237  1.0000
  H   H330      1.0  0.36598  0.59578  0.86604  1.0000
  H   H331      1.0  0.13405  0.53783  0.91330  1.0000
  H   H332      1.0  0.12784  0.50565  0.89773  1.0000
  H   H333      1.0  0.31285  0.57481  0.94656  1.0000
  H   H334      1.0  0.34760  0.57838  0.95037  1.0000
  H   H335      1.0  0.09451  0.32801  0.70666  1.0000
  H   H336      1.0  0.36375  0.63292  0.93567  1.0000
  C   C200      1.0  0.13116  0.46349  0.92652  1.0000
  C   C201      1.0  0.17335  0.37488  0.86030  1.0000
  H   H337      1.0  0.39362  0.60436  0.93023  1.0000
  H   H338      1.0  0.19294  0.54398  0.98731  1.0000
  C   C202      1.0  0.17712  0.52559  0.92863  1.0000
  H   H339      1.0  0.11849  0.32652  0.58802  1.0000
  H   H340      1.0  0.18087  0.56282  0.90515  1.0000
  C   C203      1.0  0.29645  0.53099  0.90576  1.0000
  C   C204      1.0  0.09494  0.50312  0.92893  1.0000
  C   C205      1.0  0.12711  0.51587  0.91946  1.0000
  C   C206      1.0  0.12650  0.37361  0.56087  1.0000
  H   H341      1.0  0.07604  0.38754  0.84710  1.0000
  H   H342      1.0  0.30709  0.57675  0.86597  1.0000
  C   C207      1.0  0.16225  0.37723  0.63873  1.0000
  H   H343      1.0  0.10691  0.34080  0.65186  1.0000
  C   C208      1.0  0.14733  0.38002  0.85428  1.0000
  C   C209      1.0  0.08894  0.37928  0.85899  1.0000
  H   H344      1.0  0.13738  0.35630  0.80120  1.0000
  H   H345      1.0  0.11719  0.47692  0.96655  1.0000
  H   H346      1.0  0.15056  0.46927  0.91219  1.0000
  C   C210      1.0  0.14834  0.53136  0.97034  1.0000
  H   H347      1.0  0.11266  0.46051  0.91191  1.0000
  H   H348      1.0  0.33148  0.54946  0.87380  1.0000
  H   H349      1.0  0.10574  0.37678  0.81513  1.0000
  H   H350      1.0  0.15352  0.48354  0.96754  1.0000
  H   H351      1.0  0.29146  0.53087  0.93029  1.0000
  H   H352      1.0  0.28034  0.53363  0.89186  1.0000
  H   H353      1.0  0.29338  0.50994  0.90000  1.0000
  H   H354      1.0  0.13467  0.40025  0.60050  1.0000
  H   H355      1.0  0.16334  0.41810  0.64339  1.0000
  H   H356      1.0  0.14224  0.37370  0.54391  1.0000
  H   H357      1.0  0.10780  0.39752  0.86934  1.0000
  H   H358      1.0  0.10595  0.36202  0.90805  1.0000
  H   H359      1.0  0.07461  0.36509  0.87681  1.0000
  H   H360      1.0  0.18623  0.41246  0.66937  1.0000
  H   H361      1.0  0.14825  0.39532  0.67597  1.0000
  H   H362      1.0  0.33139  0.63351  0.89880  1.0000
  C   C211      1.0  0.19312  0.55702  0.92142  1.0000
  H   H363      1.0  0.18338  0.37356  0.83850  1.0000
  N   N17       1.0  0.11920  0.35450  0.84597  1.0000
  H   H364      1.0  0.08524  0.48077  0.93470  1.0000
  C   C212      1.0  0.13673  0.33816  0.60397  1.0000
  H   H365      1.0  0.15287  0.55266  0.96371  1.0000
  H   H366      1.0  0.16138  0.36152  0.65518  1.0000
  C   C213      1.0  0.10948  0.35590  0.63369  1.0000
  C   C214      1.0  0.32804  0.55287  0.89815  1.0000
  H   H367      1.0  0.18343  0.38488  0.62685  1.0000
  H   H368      1.0  0.13998  0.33220  0.82584  1.0000
  H   H369      1.0  0.21407  0.56218  0.91019  1.0000
  H   H370      1.0  0.19032  0.39275  0.87345  1.0000
  H   H371      1.0  0.16722  0.35575  0.87357  1.0000
  H   H372      1.0  0.08229  0.50453  0.90937  1.0000
  H   H373      1.0  0.17261  0.35974  0.57106  1.0000
  H   H374      1.0  0.06244  0.33599  0.63083  1.0000
  C   C215      1.0  0.10704  0.33385  0.87168  1.0000
  H   H375      1.0  0.12675  0.52198  0.98164  1.0000
  H   H376      1.0  0.08661  0.32420  0.78962  1.0000
  S   S63       1.0  0.21404  0.64951  0.79245  1.0000
  H   H377      1.0  0.07761  0.32461  0.60143  1.0000
  H   H378      1.0  0.14588  0.65086  0.97699  1.0000
  H   H379      1.0  0.30101  0.65289  0.77136  1.0000
  H   H380      1.0  0.08311  0.32050  0.86893  1.0000
  Fe  Fe34      1.0  0.09406  0.85055  0.33702  1.0000
  S   S64       1.0  0.10976  0.81888  0.34267  1.0000
  S   S65       1.0  0.12889  0.89612  0.34413  1.0000
  Fe  Fe35      1.0  0.03017  0.80437  0.32941  1.0000
  S   S66       1.0  0.04174  0.77021  0.33428  1.0000
  H   H381      1.0  0.21271  0.68697  0.01701  1.0000
  Fe  Fe36      1.0  0.07062  0.79633  0.37307  1.0000
  S   S67       1.0  0.06506  0.77480  0.41887  1.0000
  Fe  Fe37      1.0  0.07986  0.79560  0.30341  1.0000
  S   S68       1.0  0.08884  0.77854  0.25871  1.0000
  S   S69       1.0  0.05697  0.82911  0.36969  1.0000
  S   S70       1.0  0.06632  0.82869  0.29613  1.0000
  Fe  Fe38      1.0  0.17578  0.71331  0.15863  1.0000
  S   S71       1.0  0.20564  0.74184  0.12250  1.0000
  S   S72       1.0  0.16807  0.72813  0.20538  1.0000
  H   H382      1.0  0.30262  0.77400  0.00383  1.0000
  S   S73       1.0  0.19507  0.68564  0.08504  1.0000
  Fe  Fe39      1.0  0.22543  0.71353  0.12099  1.0000
  S   S74       1.0  0.27171  0.72768  0.10661  1.0000
  Fe  Fe40      1.0  0.17337  0.71185  0.08859  1.0000
  S   S75       1.0  0.16566  0.72981  0.04532  1.0000
  S   S76       1.0  0.19864  0.68700  0.15969  1.0000
  S   S77       1.0  0.14172  0.68511  0.12464  1.0000
  Fe  Fe41      1.0  0.38601  0.69262  0.15651  1.0000
  C   C216      1.0  0.13976  0.85404  0.24319  1.0000
  H   H383      1.0  0.21206  0.92177  0.28730  1.0000
  Fe  Fe42      1.0  0.45134  0.71461  0.14679  1.0000
  H   H384      1.0  0.12192  0.84104  0.25923  1.0000
  Fe  Fe43      1.0  0.40809  0.69505  0.09211  1.0000
  S   S78       1.0  0.39437  0.70186  0.04503  1.0000
  S   S79       1.0  0.41942  0.72781  0.12883  1.0000
  H   H385      1.0  0.12094  0.88113  0.28071  1.0000
  H   H386      1.0  0.14323  0.81990  0.22161  1.0000
  H   H387      1.0  0.04889  0.75679  0.48044  1.0000
  H   H388      1.0  0.10967  0.68604  0.18618  1.0000
  C   C217      1.0  0.15577  0.68546  0.00741  1.0000
  H   H389      1.0  0.19867  0.90508  0.32293  1.0000
  C   C218      1.0  0.29382  0.71928  0.12946  1.0000
  C   C219      1.0  0.31926  0.72119  0.11693  1.0000
  C   C220      1.0  0.33649  0.71295  0.13374  1.0000
  C   C221      1.0  0.32888  0.70361  0.16359  1.0000
  C   C222      1.0  0.30389  0.70247  0.17651  1.0000
  C   C223      1.0  0.28616  0.70999  0.15933  1.0000
  H   H390      1.0  0.32543  0.72860  0.09392  1.0000
  H   H391      1.0  0.35576  0.71399  0.12362  1.0000
  H   H392      1.0  0.10515  0.95834  0.28292  1.0000
  H   H393      1.0  0.26673  0.70879  0.16926  1.0000
  H   H394      1.0  0.29685  0.71626  0.00285  1.0000
  H   H395      1.0  0.15069  0.67302  0.02778  1.0000
  C   C224      1.0  0.99160  0.81382  0.42440  1.0000
  C   C225      1.0  0.11169  0.76518  0.24441  1.0000
  C   C226      1.0  0.10962  0.75761  0.21338  1.0000
  C   C227      1.0  0.12728  0.74715  0.20075  1.0000
  C   C228      1.0  0.14731  0.74400  0.21905  1.0000
  C   C229      1.0  0.14948  0.75169  0.25005  1.0000
  C   C230      1.0  0.13191  0.76226  0.26265  1.0000
  H   H396      1.0  0.09419  0.75987  0.19895  1.0000
  H   H397      1.0  0.12515  0.74128  0.17694  1.0000
  H   H398      1.0  0.16473  0.74922  0.26455  1.0000
  H   H399      1.0  0.13392  0.76804  0.28649  1.0000
  C   C231      1.0  0.17976  0.90082  0.23203  1.0000
  H   H400      1.0  0.00923  0.77491  0.40859  1.0000
  C   C232      1.0  0.13298  0.92870  0.33150  1.0000
  C   C233      1.0  0.11407  0.93070  0.31043  1.0000
  H   H401      1.0  0.17053  0.89412  0.20870  1.0000
  H   H402      1.0  0.09532  0.91198  0.30229  1.0000
  H   H403      1.0  0.17191  0.95214  0.35817  1.0000
  H   H404      1.0  0.32325  0.65821  0.06416  1.0000
  C   C234      1.0  0.07842  0.79235  0.45426  1.0000
  C   C235      1.0  0.10156  0.81957  0.45596  1.0000
  C   C236      1.0  0.12081  0.66779  0.27155  1.0000
  H   H405      1.0  0.11123  0.83076  0.43523  1.0000
  H   H406      1.0  0.46433  0.65758  0.15718  1.0000
  H   H407      1.0  0.01182  0.81559  0.41466  1.0000
  C   C237      1.0  0.42507  0.68345  0.00874  1.0000
  H   H408      1.0  0.14728  0.91529  0.27237  1.0000
  H   H409      1.0  0.99029  0.83245  0.41665  1.0000
  C   C238      1.0  0.40345  0.69136  0.01038  1.0000
  H   H410      1.0  0.19092  0.94144  0.25598  1.0000
  C   C239      1.0  0.11754  0.89426  0.23570  1.0000
  H   H411      1.0  0.12879  0.85383  0.22144  1.0000
  H   H412      1.0  0.10738  0.90731  0.24198  1.0000
  H   H413      1.0  0.13036  0.90301  0.21476  1.0000
  H   H414      1.0  0.09946  0.87299  0.23086  1.0000
  C   C240      1.0  0.16373  0.71372  0.00968  1.0000
  C   C241      1.0  0.08897  0.66743  0.19284  1.0000
  H   H415      1.0  0.11433  0.69339  0.24027  1.0000
  H   H416      1.0  0.25988  0.78713  0.03962  1.0000
  H   H417      1.0  0.18520  0.87156  0.28083  1.0000
  H   H418      1.0  0.21439  0.94345  0.22596  1.0000
  H   H419      1.0  0.99294  0.81504  0.44960  1.0000
  C   C242      1.0  0.15678  0.83816  0.23640  1.0000
  H   H420      1.0  0.28851  0.67464  0.08143  1.0000
  C   C243      1.0  0.29818  0.73403  0.01642  1.0000
  H   H421      1.0  0.45742  0.76187  0.02592  1.0000
  C   C244      1.0  0.11308  0.83189  0.48454  1.0000
  H   H422      1.0  0.16103  0.82976  0.25759  1.0000
  C   C245      1.0  0.24561  0.74273  0.02953  1.0000
  N   N18       1.0  0.15737  0.88340  0.25544  1.0000
  S   S80       1.0  0.41847  0.68197  0.17735  1.0000
  S   S81       1.0  0.44256  0.68454  0.10744  1.0000
  H   H423      1.0  0.06582  0.68920  0.17815  1.0000
  H   H424      1.0  0.17968  0.93899  0.21664  1.0000
  H   H425      1.0  0.17297  0.92413  0.48352  1.0000
  C   C246      1.0  0.16248  0.97968  0.33133  1.0000
  Fe  Fe44      1.0  0.16668  0.66107  0.12355  1.0000
  C   C247      1.0  0.19194  0.90957  0.30060  1.0000
  H   H426      1.0  0.18126  0.92230  0.30566  1.0000
  H   H427      1.0  0.32111  0.74725  0.02384  1.0000
  H   H428      1.0  0.15470  0.86851  0.30146  1.0000
  H   H429      1.0  0.24748  0.68838  0.01040  1.0000
  H   H430      1.0  0.28536  0.77536  0.05180  1.0000
  H   H431      1.0  0.29807  0.69551  0.19970  1.0000
  C   C248      1.0  0.11971  0.95704  0.29946  1.0000
  H   H432      1.0  0.00817  0.73365  0.39156  1.0000
  H   H433      1.0  0.98645  0.76427  0.37669  1.0000
  C   C249      1.0  0.06636  0.77803  0.48146  1.0000
  C   C250      1.0  0.10193  0.67118  0.24682  1.0000
  H   H434      1.0  0.43580  0.68240  0.02933  1.0000
  C   C251      1.0  0.13629  0.89399  0.26260  1.0000
  C   C252      1.0  0.46560  0.77544  0.00557  1.0000
  C   C253      1.0  0.14392  0.98173  0.30985  1.0000
  C   C254      1.0  0.15713  0.95337  0.34187  1.0000
  C   C255      1.0  0.19131  0.93273  0.23333  1.0000
  H   H435      1.0  0.17736  0.85083  0.22409  1.0000
  H   H436      1.0  0.19891  0.89727  0.23332  1.0000
  S   S82       1.0  0.34988  0.69244  0.18448  1.0000
  C   C256      1.0  0.17158  0.88175  0.28464  1.0000
  H   H437      1.0  0.25248  0.76558  0.07200  1.0000
  H   H438      1.0  0.01252  0.78598  0.45612  1.0000
  H   H439      1.0  0.07281  0.69260  0.21796  1.0000
  H   H440      1.0  0.22241  0.73768  0.02875  1.0000
  H   H441      1.0  0.99396  0.77383  0.49111  1.0000
  H   H442      1.0  0.00196  0.75123  0.46919  1.0000
  S   S83       1.0  0.37258  0.66083  0.11907  1.0000
  H   H443      1.0  0.47941  0.68818  0.17934  1.0000
  H   H444      1.0  0.12198  0.68073  0.29168  1.0000
  H   H445      1.0  0.13170  0.85251  0.48551  1.0000
  C   C257      1.0  0.98728  0.73077  0.40102  1.0000
  N   N19       1.0  0.25685  0.74381  0.99767  1.0000
  C   C258      1.0  0.99515  0.76744  0.46730  1.0000
  H   H446      1.0  0.24489  0.66602  0.10986  1.0000
  H   H447      1.0  0.24526  0.66101  0.05474  1.0000
  H   H448      1.0  0.08202  0.66912  0.25818  1.0000
  H   H449      1.0  0.24552  0.72575  0.04310  1.0000
  C   C259      1.0  0.26212  0.76949  0.04885  1.0000
  C   C260      1.0  0.28863  0.75174  0.99725  1.0000
  H   H450      1.0  0.28606  0.72628  0.03788  1.0000
  C   C261      1.0  0.06662  0.67771  0.19856  1.0000
  H   H451      1.0  0.46421  0.68206  0.22668  1.0000
  C   C262      1.0  0.98737  0.75897  0.40094  1.0000
  H   H452      1.0  0.13845  0.66768  0.20369  1.0000
  H   H453      1.0  0.48086  0.73073  0.22350  1.0000
  H   H454      1.0  0.14353  0.67586  0.26351  1.0000
  H   H455      1.0  0.46545  0.79506  0.01144  1.0000
  H   H456      1.0  0.04436  0.66025  0.20190  1.0000
  C   C263      1.0  0.45351  0.65990  0.23310  1.0000
  H   H457      1.0  0.98516  0.72231  0.42425  1.0000
  C   C264      1.0  0.22912  0.68948  0.99960  1.0000
  S   S84       1.0  0.98390  0.79817  0.32643  1.0000
  H   H458      1.0  0.45717  0.65834  0.25774  1.0000
  H   H459      1.0  0.29444  0.65378  0.10714  1.0000
  H   H460      1.0  0.08131  0.65398  0.17213  1.0000
  Fe  Fe45      1.0  0.03884  0.80042  0.63024  1.0000
  S   S85       1.0  0.06382  0.77954  0.61216  1.0000
  H   H461      1.0  0.37275  0.69846  0.98459  1.0000
  Fe  Fe46      1.0  0.09525  0.85224  0.65147  1.0000
  S   S86       1.0  0.12292  0.83383  0.63478  1.0000
  S   S87       1.0  0.12300  0.89543  0.67320  1.0000
  Fe  Fe47      1.0  0.09470  0.82123  0.59289  1.0000
  S   S88       1.0  0.11781  0.83280  0.54701  1.0000
  Fe  Fe48      1.0  0.09002  0.79368  0.65590  1.0000
  S   S89       1.0  0.10088  0.76118  0.67693  1.0000
  S   S90       1.0  0.06888  0.84176  0.60842  1.0000
  S   S91       1.0  0.06320  0.81235  0.67527  1.0000
  Fe  Fe49      1.0  0.18857  0.72718  0.81601  1.0000
  S   S92       1.0  0.20250  0.73906  0.86515  1.0000
  S   S93       1.0  0.17411  0.75607  0.79220  1.0000
  Fe  Fe50      1.0  0.20589  0.68088  0.81851  1.0000
  S   S94       1.0  0.22077  0.68947  0.86707  1.0000
  Fe  Fe51      1.0  0.18066  0.69341  0.87476  1.0000
  H   H462      1.0  0.17728  0.82740  0.61915  1.0000
  Fe  Fe52      1.0  0.24158  0.73418  0.85379  1.0000
  S   S95       1.0  0.28532  0.76595  0.87242  1.0000
  S   S96       1.0  0.16360  0.68114  0.82671  1.0000
  S   S97       1.0  0.22977  0.72591  0.80429  1.0000
  Fe  Fe53      1.0  0.45525  0.71379  0.81118  1.0000
  S   S98       1.0  0.45334  0.73177  0.85697  1.0000
  S   S99       1.0  0.38333  0.68792  0.85957  1.0000
  Fe  Fe54      1.0  0.41206  0.73019  0.84075  1.0000
  S   S100      1.0  0.40546  0.76740  0.84928  1.0000
  Fe  Fe55      1.0  0.42466  0.68804  0.87243  1.0000
  H   H463      1.0  0.10832  0.69286  0.93430  1.0000
  S   S101      1.0  0.41580  0.71569  0.79389  1.0000
  N   N20       1.0  0.15493  0.92174  0.56092  1.0000
  C   C265      1.0  0.42029  0.67973  0.95325  1.0000
  C   C266      1.0  0.39814  0.68695  0.95498  1.0000
  H   H464      1.0  0.25020  0.71475  0.96063  1.0000
  H   H465      1.0  0.38751  0.68814  0.93439  1.0000
  C   C267      1.0  0.07702  0.79080  0.51004  1.0000
  C   C268      1.0  0.37108  0.76503  0.85545  1.0000
  C   C269      1.0  0.34566  0.73969  0.86033  1.0000
  C   C270      1.0  0.31883  0.73939  0.86500  1.0000
  C   C271      1.0  0.31758  0.76443  0.86504  1.0000
  C   C272      1.0  0.34317  0.78957  0.86098  1.0000
  C   C273      1.0  0.36964  0.78985  0.85601  1.0000
  H   H466      1.0  0.34671  0.72047  0.86085  1.0000
  H   H467      1.0  0.29928  0.71995  0.86912  1.0000
  H   H468      1.0  0.34249  0.80901  0.86146  1.0000
  H   H469      1.0  0.38914  0.80951  0.85257  1.0000
  C   C274      1.0  0.15938  0.68877  0.95194  1.0000
  C   C275      1.0  0.14809  0.78386  0.60934  1.0000
  H   H470      1.0  0.05534  0.71241  0.90390  1.0000
  H   H471      1.0  0.15692  0.95371  0.59188  1.0000
  C   C276      1.0  0.16832  0.71727  0.95425  1.0000
  C   C277      1.0  0.12177  0.76927  0.56051  1.0000
  H   H472      1.0  0.17313  0.72963  0.93388  1.0000
  C   C278      1.0  0.12125  0.76027  0.70929  1.0000
  C   C279      1.0  0.12285  0.73575  0.71516  1.0000
  C   C280      1.0  0.13893  0.73402  0.74016  1.0000
  C   C281      1.0  0.15367  0.75685  0.75986  1.0000
  C   C282      1.0  0.15190  0.78129  0.75410  1.0000
  C   C283      1.0  0.13593  0.78306  0.72904  1.0000
  H   H473      1.0  0.11153  0.71788  0.70025  1.0000
  H   H474      1.0  0.13996  0.71506  0.74412  1.0000
  H   H475      1.0  0.16314  0.79913  0.76908  1.0000
  H   H476      1.0  0.13502  0.80209  0.72501  1.0000
  C   C284      1.0  0.10091  0.81758  0.51172  1.0000
  H   H477      1.0  0.27932  0.68718  0.73391  1.0000
  H   H478      1.0  0.06750  0.77948  0.53073  1.0000
  C   C285      1.0  0.44528  0.76040  0.97857  1.0000
  C   C286      1.0  0.25333  0.76598  0.98082  1.0000
  C   C287      1.0  0.13271  0.92967  0.66051  1.0000
  C   C288      1.0  0.11426  0.93513  0.64218  1.0000
  C   C289      1.0  0.15944  0.95220  0.66990  1.0000
  H   H479      1.0  0.09333  0.91820  0.63541  1.0000
  H   H480      1.0  0.17373  0.94833  0.68443  1.0000
  H   H481      1.0  0.13010  0.78645  0.61948  1.0000
  H   H482      1.0  0.06457  0.71193  0.83463  1.0000
  H   H483      1.0  0.31049  0.66865  0.82769  1.0000
  H   H484      1.0  0.09550  0.73947  0.60994  1.0000
  H   H485      1.0  0.11907  0.73670  0.52809  1.0000
  H   H486      1.0  0.20844  0.96768  0.58994  1.0000
  H   H487      1.0  0.21816  0.71506  0.97277  1.0000
  H   H488      1.0  0.16433  0.82180  0.58105  1.0000
  S   S102      1.0  0.42909  0.66943  0.82800  1.0000
  H   H489      1.0  0.13204  0.73664  0.64564  1.0000
  H   H490      1.0  0.10703  0.93202  0.56643  1.0000
  H   H491      1.0  0.19210  0.81278  0.59308  1.0000
  H   H492      1.0  0.10152  0.71824  0.58328  1.0000
  H   H493      1.0  0.23094  0.76303  0.98387  1.0000
  H   H494      1.0  0.11816  0.88140  0.57065  1.0000
  H   H495      1.0  0.12668  0.90618  0.60022  1.0000
  H   H496      1.0  0.43100  0.73483  0.92425  1.0000
  C   C290      1.0  0.09559  0.69889  0.91885  1.0000
  H   H497      1.0  0.02837  0.70339  0.87500  1.0000
  H   H498      1.0  0.47951  0.72233  0.72900  1.0000
  H   H499      1.0  0.26954  0.70018  0.78327  1.0000
  C   C291      1.0  0.16795  0.97971  0.66058  1.0000
  C   C292      1.0  0.12283  0.72260  0.62569  1.0000
  C   C293      1.0  0.43332  0.67752  0.98028  1.0000
  H   H500      1.0  0.21826  0.67131  0.98387  1.0000
  H   H501      1.0  0.09313  0.90156  0.54148  1.0000
  H   H502      1.0  0.31259  0.71788  0.73113  1.0000
  C   C294      1.0  0.11274  0.73536  0.60020  1.0000
  H   H503      1.0  0.09399  0.67653  0.87859  1.0000
  C   C295      1.0  0.16991  0.72953  0.98299  1.0000
  H   H504      1.0  0.38735  0.73605  0.90954  1.0000
  H   H505      1.0  0.32871  0.75265  0.79518  1.0000
  H   H506      1.0  0.10520  0.77416  0.57045  1.0000
  C   C296      1.0  0.29296  0.70969  0.78968  1.0000
  H   H507      1.0  0.10815  0.96655  0.61893  1.0000
  H   H508      1.0  0.44330  0.73933  0.97707  1.0000
  H   H509      1.0  0.15791  0.77819  0.62855  1.0000
  C   C297      1.0  0.10081  0.90963  0.56483  1.0000
  N   N21       1.0  0.10037  0.71655  0.86319  1.0000
  C   C298      1.0  0.11394  0.71499  0.83342  1.0000
  C   C299      1.0  0.11469  0.74683  0.87271  1.0000
  H   H510      1.0  0.39917  0.76976  0.92548  1.0000
  C   C300      1.0  0.10546  0.69877  0.88585  1.0000
  Fe  Fe56      1.0  0.38963  0.67281  0.81391  1.0000
  C   C301      1.0  0.14774  0.76090  0.87848  1.0000
  H   H511      1.0  0.05849  0.73776  0.87595  1.0000
  S   S103      1.0  0.99106  0.78014  0.61495  1.0000
  C   C302      1.0  0.17851  0.93215  0.50728  1.0000
  H   H512      1.0  0.13688  0.71987  0.83699  1.0000
  H   H513      1.0  0.10509  0.75011  0.89377  1.0000
  H   H514      1.0  0.11093  0.75927  0.85503  1.0000
  H   H515      1.0  0.37625  0.74830  0.78411  1.0000
  H   H516      1.0  0.28160  0.77248  0.94080  1.0000
  H   H517      1.0  0.37477  0.72920  0.75078  1.0000
  H   H518      1.0  0.12864  0.70361  0.88637  1.0000
  H   H519      1.0  0.44708  0.80611  0.92537  1.0000
  C   C303      1.0  0.09909  0.68670  0.81635  1.0000
  H   H520      1.0  0.14955  0.73338  0.56453  1.0000
  H   H521      1.0  0.15536  0.78248  0.88695  1.0000
  H   H522      1.0  0.15350  0.75000  0.89609  1.0000
  H   H523      1.0  0.15996  0.76279  0.85724  1.0000
  H   H524      1.0  0.29335  0.70713  0.81461  1.0000
  H   H525      1.0  0.08184  0.89832  0.58005  1.0000
  C   C304      1.0  0.16497  0.95191  0.56901  1.0000
  H   H526      1.0  0.09882  0.66963  0.82994  1.0000
  H   H527      1.0  0.10006  0.71967  0.92717  1.0000
  H   H528      1.0  0.24345  0.74845  0.93382  1.0000
  C   C305      1.0  0.12265  0.96263  0.63305  1.0000
  H   H529      1.0  0.10361  0.70364  0.63426  1.0000
  C   C306      1.0  0.05208  0.71551  0.87970  1.0000
  H   H530      1.0  0.45026  0.67166  0.97918  1.0000
  H   H531      1.0  0.30660  0.74710  0.76103  1.0000
  H   H532      1.0  0.43957  0.76426  0.90135  1.0000
  C   C307      1.0  0.17173  0.81289  0.59939  1.0000
  H   H533      1.0  0.25608  0.78487  0.93664  1.0000
  C   C308      1.0  0.43237  0.75567  0.92458  1.0000
  H   H534      1.0  0.35219  0.74545  0.75424  1.0000
  C   C309      1.0  0.17519  0.91159  0.57254  1.0000
  H   H535      1.0  0.34105  0.71056  0.80734  1.0000
  H   H536      1.0  0.18049  0.79454  0.54565  1.0000
  H   H537      1.0  0.42350  0.75706  0.98556  1.0000
  H   H538      1.0  0.20149  0.77740  0.55071  1.0000
  C   C310      1.0  0.28896  0.65813  0.81630  1.0000
  H   H539      1.0  0.17423  0.75623  0.59241  1.0000
  C   C311      1.0  0.17765  0.91095  0.60754  1.0000
  H   H540      1.0  0.18554  0.95473  0.50622  1.0000
  H   H541      1.0  0.17173  0.76277  0.52509  1.0000
  C   C312      1.0  0.06826  0.70566  0.85764  1.0000
  H   H542      1.0  0.29351  0.74905  0.79779  1.0000
  H   H543      1.0  0.19756  0.92436  0.56381  1.0000
  H   H544      1.0  0.34587  0.69113  0.77797  1.0000
  H   H545      1.0  0.16822  0.89004  0.56400  1.0000
  C   C313      1.0  0.40081  0.75044  0.92804  1.0000
  C   C314      1.0  0.36108  0.73378  0.76662  1.0000
  N   N22       1.0  0.45397  0.77457  0.94814  1.0000
  C   C315      1.0  0.12554  0.90385  0.57508  1.0000
  S   S104      1.0  0.15356  0.67181  0.91619  1.0000
  C   C316      1.0  0.15113  0.91681  0.52697  1.0000
  N   N23       1.0  0.13620  0.76124  0.58528  1.0000
  C   C317      1.0  0.10655  0.74724  0.53515  1.0000
  C   C318      1.0  0.15961  0.75518  0.57344  1.0000
  N   N24       1.0  0.30704  0.69502  0.77326  1.0000
  C   C319      1.0  0.30660  0.74136  0.78513  1.0000
  H   H546      1.0  0.05644  0.68243  0.85757  1.0000
  H   H547      1.0  0.13711  0.78879  0.54906  1.0000
  C   C320      1.0  0.17894  0.77377  0.54736  1.0000
  H   H548      1.0  0.07676  0.68097  0.80871  1.0000
  C   C321      1.0  0.15309  0.67295  0.97862  1.0000
  H   H549      1.0  0.15871  0.89240  0.61709  1.0000
  H   H550      1.0  0.31469  0.68658  0.69516  1.0000
  S   S105      1.0  0.43194  0.67283  0.91796  1.0000
  H   H551      1.0  0.19730  0.90934  0.61374  1.0000
  H   H552      1.0  0.17921  0.92977  0.61884  1.0000
  C   C322      1.0  0.25903  0.76766  0.94617  1.0000
  C   C323      1.0  0.38967  0.69259  0.98344  1.0000
  H   H553      1.0  0.26822  0.78710  0.99012  1.0000
  H   H554      1.0  0.13554  0.92322  0.51777  1.0000
  C   C324      1.0  0.30292  0.69625  0.73944  1.0000
  H   H555      1.0  0.17595  0.75138  0.98458  1.0000
  H   H556      1.0  0.11466  0.73089  0.81719  1.0000
  C   C325      1.0  0.33852  0.70675  0.78241  1.0000
  H   H557      1.0  0.11179  0.68848  0.79544  1.0000
  C   C326      1.0  0.29085  0.66460  0.78194  1.0000
  H   H558      1.0  0.27337  0.66325  0.82804  1.0000
  H   H559      1.0  0.15540  0.96104  0.55307  1.0000
  H   H560      1.0  0.47341  0.73717  0.92135  1.0000
  H   H561      1.0  0.10379  0.75749  0.51465  1.0000
  H   H562      1.0  0.33774  0.68665  0.72522  1.0000
  H   H563      1.0  0.39073  0.74017  0.94970  1.0000
  H   H564      1.0  0.07222  0.68362  0.92168  1.0000
  H   H565      1.0  0.13859  0.71607  0.61738  1.0000
  H   H566      1.0  0.14154  0.89409  0.52172  1.0000
  C   C327      1.0  0.31501  0.68095  0.71934  1.0000
  H   H567      1.0  0.08444  0.73142  0.54234  1.0000
  H   H568      1.0  0.19660  0.92853  0.51451  1.0000
  H   H569      1.0  0.30123  0.65800  0.72075  1.0000
  H   H570      1.0  0.43534  0.80031  0.96376  1.0000
  C   C328      1.0  0.14957  0.98511  0.64207  1.0000
  C   C329      1.0  0.45289  0.80171  0.94838  1.0000
  C   C330      1.0  0.19808  0.97189  0.57014  1.0000
  H   H571      1.0  0.20951  0.97154  0.54919  1.0000
  H   H572      1.0  0.29569  0.75075  0.97359  1.0000
  H   H573      1.0  0.47601  0.84593  0.95990  1.0000
  C   C331      1.0  0.23874  0.71637  0.98128  1.0000
  C   C332      1.0  0.48108  0.82856  0.95689  1.0000
  H   H574      1.0  0.26818  0.65452  0.77298  1.0000
  Fe  Fe57      1.0  0.69380  0.20139  0.14035  1.0000
  S   S106      1.0  0.67033  0.19043  0.09492  1.0000
  S   S107      1.0  0.71185  0.17209  0.15414  1.0000
  Fe  Fe58      1.0  0.68938  0.25518  0.14471  1.0000
  S   S108      1.0  0.66654  0.24847  0.09996  1.0000
  S   S109      1.0  0.69721  0.29230  0.17410  1.0000
  Fe  Fe59      1.0  0.64021  0.20439  0.11538  1.0000
  S   S110      1.0  0.59301  0.18396  0.10093  1.0000
  Fe  Fe60      1.0  0.69815  0.23514  0.08283  1.0000
  S   S111      1.0  0.72058  0.25019  0.03741  1.0000
  S   S112      1.0  0.66073  0.21150  0.16186  1.0000
  S   S113      1.0  0.72384  0.24576  0.12654  1.0000
  C   C333      1.0  0.88250  0.14562  0.43843  1.0000
  H   H575      1.0  0.70821  0.31080  0.11104  1.0000
  Fe  Fe61      1.0  0.82649  0.10689  0.30777  1.0000
  S   S114      1.0  0.81756  0.14015  0.32653  1.0000
  S   S115      1.0  0.87224  0.11497  0.29526  1.0000
  Fe  Fe62      1.0  0.76357  0.06046  0.31810  1.0000
  S   S116      1.0  0.75144  0.09143  0.33848  1.0000
  S   S117      1.0  0.72411  0.01639  0.31726  1.0000
  Fe  Fe63      1.0  0.77571  0.11950  0.29940  1.0000
  S   S118      1.0  0.75445  0.14450  0.28007  1.0000
  Fe  Fe64      1.0  0.79380  0.10929  0.36353  1.0000
  S   S119      1.0  0.80521  0.12655  0.41174  1.0000
  S   S120      1.0  0.78611  0.08782  0.27766  1.0000
  S   S121      1.0  0.80455  0.07678  0.34617  1.0000
  C   C334      1.0  0.95904  0.19588  0.31088  1.0000
  C   C335      1.0  0.93243  0.19612  0.31330  1.0000
  C   C336      1.0  0.90574  0.17166  0.30843  1.0000
  C   C337      1.0  0.90533  0.14662  0.30076  1.0000
  C   C338      1.0  0.93199  0.14648  0.29793  1.0000
  C   C339      1.0  0.95870  0.17091  0.30312  1.0000
  H   H576      1.0  0.93240  0.21532  0.31920  1.0000
  H   H577      1.0  0.88547  0.17217  0.31054  1.0000
  H   H578      1.0  0.93196  0.12727  0.29192  1.0000
  H   H579      1.0  0.54751  0.28096  0.19389  1.0000
  H   H580      1.0  0.72158  0.06687  0.23868  1.0000
  C   C340      1.0  0.79004  0.10776  0.44553  1.0000
  C   C341      1.0  0.76586  0.08111  0.44511  1.0000
  H   H581      1.0  0.60980  0.21624  0.03388  1.0000
  H   H582      1.0  0.75607  0.07137  0.42360  1.0000
  C   C342      1.0  0.56934  0.19105  0.12305  1.0000
  C   C343      1.0  0.57023  0.19081  0.15485  1.0000
  C   C344      1.0  0.54870  0.19293  0.17198  1.0000
  C   C345      1.0  0.52662  0.19595  0.15743  1.0000
  C   C346      1.0  0.52627  0.19696  0.12563  1.0000
  C   C347      1.0  0.54736  0.19422  0.10851  1.0000
  H   H583      1.0  0.58692  0.18800  0.16623  1.0000
  H   H584      1.0  0.54903  0.19195  0.19656  1.0000
  H   H585      1.0  0.50906  0.19862  0.11408  1.0000
  H   H586      1.0  0.54633  0.19403  0.08390  1.0000
  C   C348      1.0  0.74500  0.15359  0.24439  1.0000
  C   C349      1.0  0.74829  0.14281  0.21653  1.0000
  C   C350      1.0  0.73831  0.14897  0.18924  1.0000
  C   C351      1.0  0.72538  0.16634  0.18921  1.0000
  C   C352      1.0  0.72267  0.17759  0.21697  1.0000
  C   C353      1.0  0.73226  0.17111  0.24431  1.0000
  H   H587      1.0  0.75804  0.12935  0.21609  1.0000
  H   H588      1.0  0.74057  0.14012  0.16798  1.0000
  H   H589      1.0  0.71277  0.19094  0.21747  1.0000
  H   H590      1.0  0.72958  0.17962  0.26563  1.0000
  C   C354      1.0  0.60590  0.31579  0.20177  1.0000
  H   H591      1.0  0.50431  0.29716  0.17823  1.0000
  C   C355      1.0  0.80242  0.12030  0.47364  1.0000
  H   H592      1.0  0.53355  0.25682  0.16312  1.0000
  H   H593      1.0  0.66807  0.19776  0.02529  1.0000
  H   H594      1.0  0.52877  0.13594  0.08928  1.0000
  H   H595      1.0  0.76615  0.99643  0.30471  1.0000
  C   C356      1.0  0.92815  0.15704  0.41257  1.0000
  H   H596      1.0  0.80499  0.16946  0.04903  1.0000
  C   C357      1.0  0.49888  0.11991  0.12830  1.0000
  N   N25       1.0  0.66885  0.06225  0.26546  1.0000
  C   C358      1.0  0.68149  0.07695  0.29532  1.0000
  C   C359      1.0  0.67985  0.08376  0.24063  1.0000
  C   C360      1.0  0.67803  0.04065  0.25844  1.0000
  C   C361      1.0  0.63620  0.04781  0.26761  1.0000
  C   C362      1.0  0.67584  0.05808  0.32323  1.0000
  C   C363      1.0  0.66702  0.10384  0.24009  1.0000
  S   S122      1.0  0.49868  0.19641  0.17934  1.0000
  C   C364      1.0  0.61934  0.03289  0.23833  1.0000
  H   H597      1.0  0.70542  0.09055  0.29365  1.0000
  H   H598      1.0  0.67299  0.09147  0.30122  1.0000
  H   H599      1.0  0.67672  0.07403  0.21765  1.0000
  H   H600      1.0  0.70377  0.09705  0.24264  1.0000
  H   H601      1.0  0.66876  0.02335  0.27515  1.0000
  H   H602      1.0  0.66920  0.03054  0.23598  1.0000
  H   H603      1.0  0.62854  0.03132  0.28521  1.0000
  H   H604      1.0  0.62820  0.06214  0.27603  1.0000
  H   H605      1.0  0.68604  0.07151  0.34355  1.0000
  H   H606      1.0  0.65242  0.04540  0.32838  1.0000
  H   H607      1.0  0.68596  0.04447  0.32079  1.0000
  H   H608      1.0  0.67203  0.11644  0.26131  1.0000
  H   H609      1.0  0.67713  0.11872  0.22112  1.0000
  H   H610      1.0  0.64329  0.09289  0.23568  1.0000
  H   H611      1.0  0.62342  0.27903  0.14867  1.0000
  H   H612      1.0  0.49628  0.10565  0.14741  1.0000
  H   H613      1.0  0.72584  0.99379  0.48613  1.0000
  H   H614      1.0  0.61505  0.01094  0.23762  1.0000
  H   H615      1.0  0.63060  0.04318  0.21713  1.0000
  H   H616      1.0  0.59828  0.03309  0.23779  1.0000
  N   N26       1.0  0.74993  0.18889  0.04882  1.0000
  C   C365      1.0  0.71799  0.17070  0.04180  1.0000
  C   C366      1.0  0.76278  0.21049  0.02417  1.0000
  C   C367      1.0  0.75179  0.20338  0.07877  1.0000
  C   C368      1.0  0.76421  0.17070  0.05093  1.0000
  C   C369      1.0  0.70056  0.14737  0.06487  1.0000
  H   H617      1.0  0.80080  0.18853  0.01857  1.0000
  C   C370      1.0  0.55329  0.26908  0.17728  1.0000
  H   H618      1.0  0.70698  0.18365  0.03968  1.0000
  H   H619      1.0  0.96158  0.29260  0.30155  1.0000
  H   H620      1.0  0.75418  0.22541  0.02576  1.0000
  H   H621      1.0  0.73878  0.21452  0.07769  1.0000
  H   H622      1.0  0.74229  0.18812  0.09747  1.0000
  H   H623      1.0  0.76142  0.16177  0.07419  1.0000
  H   H624      1.0  0.75339  0.15231  0.03536  1.0000
  H   H625      1.0  0.64194  0.31312  0.11496  1.0000
  H   H626      1.0  0.71011  0.13343  0.06839  1.0000
  H   H627      1.0  0.79491  0.24097  0.07348  1.0000
  C   C371      1.0  0.70480  0.23140  0.00352  1.0000
  H   H628      1.0  0.89453  0.18635  0.46037  1.0000
  H   H629      1.0  0.55787  0.25402  0.18941  1.0000
  N   N27       1.0  0.60814  0.30510  0.17066  1.0000
  H   H630      1.0  0.51044  0.14121  0.13835  1.0000
  H   H631      1.0  0.64729  0.30155  0.17608  1.0000
  H   H632      1.0  0.85952  0.17131  0.37923  1.0000
  H   H633      1.0  0.48750  0.14997  0.08651  1.0000
  C   C372      1.0  0.61299  0.23952  0.99268  1.0000
  H   H634      1.0  0.88194  0.12617  0.44647  1.0000
  H   H635      1.0  0.81035  0.20368  0.05616  1.0000
  C   C373      1.0  0.88102  0.13358  0.38444  1.0000
  H   H636      1.0  0.57100  0.30288  0.14639  1.0000
  C   C374      1.0  0.53702  0.31830  0.02605  1.0000
  C   C375      1.0  0.90246  0.18276  0.39916  1.0000
  H   H637      1.0  0.60793  0.31260  0.10536  1.0000
  H   H638      1.0  0.60411  0.26704  0.21532  1.0000
  H   H639      1.0  0.63090  0.25998  0.20032  1.0000
  C   C376      1.0  0.89486  0.16667  0.46511  1.0000
  H   H640      1.0  0.77984  0.23537  0.11063  1.0000
  C   C377      1.0  0.87445  0.18522  0.39713  1.0000
  N   N28       1.0  0.89854  0.15477  0.40865  1.0000
  H   H641      1.0  0.85932  0.14004  0.43560  1.0000
  C   C378      1.0  0.71109  0.05157  0.25714  1.0000
  H   H642      1.0  0.92639  0.13764  0.42245  1.0000
  C   C379      1.0  0.49745  0.27157  0.03973  1.0000
  H   H643      1.0  0.88023  0.20682  0.39064  1.0000
  H   H644      1.0  0.73463  0.04718  0.47226  1.0000
  H   H645      1.0  0.72174  0.06086  0.27913  1.0000
  H   H646      1.0  0.71478  0.15978  0.01953  1.0000
  H   H647      1.0  0.78658  0.22372  0.02700  1.0000
  C   C380      1.0  0.79691  0.18425  0.04325  1.0000
  C   C381      1.0  0.87870  0.10456  0.38763  1.0000
  H   H648      1.0  0.86494  0.09099  0.36875  1.0000
  H   H649      1.0  0.59564  0.24434  0.18253  1.0000
  H   H650      1.0  0.95333  0.18505  0.37525  1.0000
  H   H651      1.0  0.67815  0.13431  0.05592  1.0000
  H   H652      1.0  0.57890  0.27556  0.13708  1.0000
  H   H653      1.0  0.88980  0.14136  0.36147  1.0000
  H   H654      1.0  0.91712  0.17120  0.47158  1.0000
  H   H655      1.0  0.51213  0.09852  0.09347  1.0000
  H   H656      1.0  0.61940  0.25949  0.00512  1.0000
  H   H657      1.0  0.54025  0.12145  0.11872  1.0000
  H   H658      1.0  0.86272  0.18101  0.41907  1.0000
  H   H659      1.0  0.71526  0.03384  0.25247  1.0000
  C   C382      1.0  0.62379  0.28817  0.17148  1.0000
  H   H660      1.0  0.90008  0.10529  0.38542  1.0000
  C   C383      1.0  0.61251  0.26354  0.19365  1.0000
  C   C384      1.0  0.78231  0.22454  0.09023  1.0000
  H   H661      1.0  0.61922  0.20287  0.00107  1.0000
  H   H662      1.0  0.79451  0.21394  0.09806  1.0000
  H   H663      1.0  0.97515  0.27933  0.25286  1.0000
  C   C385      1.0  0.75378  0.06747  0.47270  1.0000
  H   H664      1.0  0.74243  0.98774  0.39558  1.0000
  H   H665      1.0  0.59179  0.29877  0.21726  1.0000
  H   H666      1.0  0.53800  0.27491  0.05803  1.0000
  H   H667      1.0  0.88090  0.15743  0.48540  1.0000
  C   C386      1.0  0.48825  0.31127  0.03604  1.0000
  H   H668      1.0  0.53077  0.26210  0.01931  1.0000
  C   C387      1.0  0.52068  0.26192  0.04142  1.0000
  C   C388      1.0  0.57833  0.28861  0.15638  1.0000
  H   H669      1.0  0.94140  0.17382  0.42922  1.0000
  N   N29       1.0  0.50505  0.29796  0.02236  1.0000
  H   H670      1.0  0.82099  0.14098  0.47418  1.0000
  H   H671      1.0  0.91798  0.19963  0.41454  1.0000
  H   H672      1.0  0.91248  0.18829  0.37619  1.0000
  H   H673      1.0  0.75974  0.99276  0.48488  1.0000
  H   H674      1.0  0.69819  0.15566  0.08714  1.0000
  H   H675      1.0  0.85830  0.13006  0.38379  1.0000
  H   H676      1.0  0.86824  0.09443  0.40926  1.0000
  H   H677      1.0  0.51029  0.24014  0.04980  1.0000
  C   C389      1.0  0.52077  0.11858  0.10580  1.0000
  C   C390      1.0  0.67883  0.20619  0.00391  1.0000
  H   H678      1.0  0.48374  0.11970  0.06841  1.0000
  H   H679      1.0  0.64583  0.23482  0.01972  1.0000
  H   H680      1.0  0.96731  0.16339  0.38895  1.0000
  H   H681      1.0  0.93597  0.14841  0.36500  1.0000
  C   C391      1.0  0.62275  0.22235  0.01255  1.0000
  C   C392      1.0  0.52043  0.31530  0.16642  1.0000
  H   H682      1.0  0.55072  0.31003  0.01594  1.0000
  C   C393      1.0  0.94684  0.16379  0.38356  1.0000
  H   H683      1.0  0.97896  0.17037  0.30109  1.0000
  H   H684      1.0  0.49267  0.27384  0.06399  1.0000
  H   H685      1.0  0.58880  0.22790  0.99290  1.0000
  S   S123      1.0  0.48155  0.29873  0.11843  1.0000
  H   H686      1.0  0.49699  0.32004  0.05901  1.0000
  C   C394      1.0  0.75733  0.19914  0.99118  1.0000
  Fe  Fe65      1.0  0.70446  0.19543  0.80797  1.0000
  S   S124      1.0  0.65961  0.17200  0.82829  1.0000
  S   S125      1.0  0.72532  0.16929  0.79098  1.0000
  Fe  Fe66      1.0  0.70806  0.25168  0.82471  1.0000
  S   S126      1.0  0.66396  0.23215  0.84618  1.0000
  H   H687      1.0  0.58460  0.30212  0.75105  1.0000
  Fe  Fe67      1.0  0.67720  0.20271  0.86724  1.0000
  S   S127      1.0  0.66164  0.18577  0.91463  1.0000
  Fe  Fe68      1.0  0.65039  0.20351  0.80586  1.0000
  S   S128      1.0  0.61011  0.19479  0.77910  1.0000
  S   S129      1.0  0.72273  0.22429  0.84881  1.0000
  S   S130      1.0  0.69373  0.22481  0.78254  1.0000
  S   S131      1.0  0.73387  0.29829  0.81798  1.0000
  C   C395      1.0  0.57018  0.28000  0.75638  1.0000
  Fe  Fe69      1.0  0.82913  0.11151  0.61606  1.0000
  S   S132      1.0  0.79618  0.12291  0.59803  1.0000
  S   S133      1.0  0.87582  0.14110  0.60155  1.0000
  Fe  Fe70      1.0  0.78085  0.05548  0.63979  1.0000
  S   S134      1.0  0.74502  0.06379  0.62395  1.0000
  S   S135      1.0  0.77561  0.01491  0.65974  1.0000
  Fe  Fe71      1.0  0.77139  0.07899  0.58098  1.0000
  S   S136      1.0  0.74961  0.06276  0.53497  1.0000
  Fe  Fe72      1.0  0.77286  0.10738  0.64272  1.0000
  S   S137      1.0  0.75677  0.13706  0.66097  1.0000
  S   S138      1.0  0.80561  0.06834  0.59583  1.0000
  S   S139      1.0  0.80738  0.09816  0.66175  1.0000
  C   C396      1.0  0.79249  0.98857  0.58174  1.0000
  H   H688      1.0  0.56023  0.28271  0.80330  1.0000
  H   H689      1.0  0.93838  0.12153  0.63212  1.0000
  H   H690      1.0  0.80018  0.11649  0.52267  1.0000
  C   C397      1.0  0.59691  0.26454  0.83180  1.0000
  C   C398      1.0  0.90919  0.15888  0.62173  1.0000
  C   C399      1.0  0.91128  0.15612  0.65313  1.0000
  C   C400      1.0  0.93847  0.17070  0.66794  1.0000
  C   C401      1.0  0.96380  0.18797  0.65152  1.0000
  C   C402      1.0  0.96165  0.19079  0.62017  1.0000
  C   C403      1.0  0.93447  0.17640  0.60543  1.0000
  H   H691      1.0  0.89207  0.14254  0.66589  1.0000
  H   H692      1.0  0.93995  0.16832  0.69220  1.0000
  H   H693      1.0  0.61360  0.20148  0.89830  1.0000
  H   H694      1.0  0.93306  0.17874  0.58115  1.0000
  C   C404      1.0  0.67962  0.20310  0.94845  1.0000
  C   C405      1.0  0.70593  0.22803  0.94806  1.0000
  C   C406      1.0  0.61034  0.21849  0.90829  1.0000
  H   H695      1.0  0.71635  0.23667  0.92657  1.0000
  C   C407      1.0  0.65011  0.28332  0.79225  1.0000
  C   C408      1.0  0.73402  0.16079  0.75455  1.0000
  C   C409      1.0  0.74176  0.13953  0.75233  1.0000
  C   C410      1.0  0.74867  0.13185  0.72399  1.0000
  C   C411      1.0  0.74783  0.14533  0.69741  1.0000
  C   C412      1.0  0.74022  0.16669  0.69964  1.0000
  C   C413      1.0  0.73351  0.17448  0.72800  1.0000
  H   H696      1.0  0.74243  0.12890  0.77273  1.0000
  H   H697      1.0  0.75461  0.11550  0.72276  1.0000
  H   H698      1.0  0.73981  0.17749  0.67929  1.0000
  H   H699      1.0  0.72836  0.19134  0.72942  1.0000
  C   C414      1.0  0.58037  0.19066  0.80137  1.0000
  C   C415      1.0  0.57856  0.18349  0.83206  1.0000
  C   C416      1.0  0.55461  0.18005  0.84947  1.0000
  C   C417      1.0  0.53290  0.18478  0.83672  1.0000
  C   C418      1.0  0.53486  0.19230  0.80609  1.0000
  C   C419      1.0  0.55833  0.19479  0.78833  1.0000
  H   H700      1.0  0.59526  0.17994  0.84220  1.0000
  H   H701      1.0  0.55280  0.17356  0.87292  1.0000
  H   H702      1.0  0.51802  0.19564  0.79597  1.0000
  H   H703      1.0  0.55954  0.20022  0.76455  1.0000
  H   H704      1.0  0.77264  0.21560  0.97565  1.0000
  N   N30       1.0  0.60110  0.28175  0.80362  1.0000
  H   H705      1.0  0.96001  0.13818  0.59993  1.0000
  C   C420      1.0  0.61898  0.27497  0.78167  1.0000
  C   C421      1.0  0.57146  0.27322  0.79015  1.0000
  C   C422      1.0  0.67360  0.26793  0.93177  1.0000
  H   H706      1.0  0.66868  0.28224  0.91852  1.0000
  C   C423      1.0  0.61509  0.26473  0.94655  1.0000
  C   C424      1.0  0.65704  0.25919  0.96209  1.0000
  H   H707      1.0  0.62122  0.28485  0.75924  1.0000
  H   H708      1.0  0.60781  0.25218  0.77648  1.0000
  C   C425      1.0  0.71850  0.24209  0.97556  1.0000
  H   H709      1.0  0.64609  0.17270  0.97693  1.0000
  H   H710      1.0  0.55216  0.25346  0.84571  1.0000
  H   H711      1.0  0.95249  0.10367  0.60976  1.0000
  H   H712      1.0  0.58016  0.28500  0.86365  1.0000
  H   H713      1.0  0.61773  0.27193  0.84448  1.0000
  S   S140      1.0  0.50362  0.18074  0.85975  1.0000
  H   H714      1.0  0.58817  0.21377  0.90112  1.0000
  C   C426      1.0  0.74125  0.99881  0.56951  1.0000
  H   H715      1.0  0.69186  0.28915  0.86512  1.0000
  H   H716      1.0  0.78761  0.00409  0.53876  1.0000
  H   H717      1.0  0.66864  0.31697  0.88226  1.0000
  C   C427      1.0  0.58203  0.25445  0.94633  1.0000
  S   S141      1.0  0.50663  0.28602  0.78945  1.0000
  C   C428      1.0  0.49625  0.29167  0.98933  1.0000
  C   C429      1.0  0.61230  0.21757  0.94339  1.0000
  H   H718      1.0  0.57413  0.25590  0.96936  1.0000
  H   H719      1.0  0.58990  0.24249  0.82556  1.0000
  H   H720      1.0  0.50060  0.31319  0.84438  1.0000
  H   H721      1.0  0.66144  0.27818  0.77397  1.0000
  H   H722      1.0  0.57504  0.26647  0.74120  1.0000
  H   H723      1.0  0.66996  0.24951  0.91790  1.0000
  H   H724      1.0  0.66549  0.27815  0.97690  1.0000
  H   H725      1.0  0.71117  0.01392  0.58165  1.0000
  H   H726      1.0  0.69731  0.27938  0.93673  1.0000
  H   H727      1.0  0.58973  0.20324  0.95110  1.0000
  H   H728      1.0  0.62514  0.20685  0.94882  1.0000
  H   H729      1.0  0.62257  0.27006  0.92276  1.0000
  S   S142      1.0  0.49092  0.24326  0.86331  1.0000
  C   C430      1.0  0.74360  0.99411  0.50018  1.0000
  N   N31       1.0  0.62429  0.24503  0.96037  1.0000
  H   H730      1.0  0.75442  0.01483  0.51132  1.0000
  C   C431      1.0  0.66640  0.19204  0.97649  1.0000
  C   C432      1.0  0.52868  0.31903  0.80627  1.0000
  H   H731      1.0  0.62566  0.28514  0.95888  1.0000
  H   H732      1.0  0.57735  0.26803  0.93128  1.0000
  H   H733      1.0  0.63424  0.31682  0.82926  1.0000
  H   H734      1.0  0.66439  0.24541  0.97284  1.0000
  H   H735      1.0  0.54765  0.27545  0.75082  1.0000
  N   N32       1.0  0.84590  0.20059  0.66245  1.0000
  C   C433      1.0  0.82806  0.20431  0.68729  1.0000
  C   C434      1.0  0.84354  0.17230  0.66687  1.0000
  C   C435      1.0  0.83223  0.20085  0.63231  1.0000
  C   C436      1.0  0.87680  0.22409  0.66469  1.0000
  C   C437      1.0  0.82404  0.23036  0.68522  1.0000
  C   C438      1.0  0.85383  0.16759  0.69812  1.0000
  C   C439      1.0  0.84700  0.19754  0.60348  1.0000
  C   C440      1.0  0.90088  0.21875  0.65089  1.0000
  H   H736      1.0  0.80591  0.18594  0.68817  1.0000
  H   H737      1.0  0.83784  0.20549  0.71010  1.0000
  H   H738      1.0  0.85551  0.16732  0.64935  1.0000
  H   H739      1.0  0.82052  0.15581  0.66392  1.0000
  H   H740      1.0  0.80903  0.18416  0.63166  1.0000
  H   H741      1.0  0.83194  0.22080  0.62909  1.0000
  H   H742      1.0  0.87861  0.24324  0.65401  1.0000
  H   H743      1.0  0.88298  0.22962  0.68905  1.0000
  H   H744      1.0  0.81468  0.23288  0.70698  1.0000
  H   H745      1.0  0.84486  0.24969  0.68164  1.0000
  H   H746      1.0  0.80815  0.22787  0.66716  1.0000
  H   H747      1.0  0.83762  0.16425  0.71609  1.0000
  H   H748      1.0  0.85579  0.14830  0.69706  1.0000
  H   H749      1.0  0.87533  0.18490  0.70486  1.0000
  H   H750      1.0  0.84919  0.17845  0.60348  1.0000
  H   H751      1.0  0.86845  0.21615  0.59976  1.0000
  H   H752      1.0  0.83331  0.19575  0.58340  1.0000
  H   H753      1.0  0.91815  0.23848  0.64120  1.0000
  H   H754      1.0  0.89387  0.20314  0.63232  1.0000
  H   H755      1.0  0.91187  0.21303  0.66889  1.0000
  N   N33       1.0  0.63774  0.13174  0.73147  1.0000
  C   C441      1.0  0.65709  0.16227  0.73835  1.0000
  C   C442      1.0  0.62438  0.11724  0.76099  1.0000
  C   C443      1.0  0.61373  0.12743  0.70971  1.0000
  C   C444      1.0  0.65590  0.12031  0.71702  1.0000
  C   C445      1.0  0.66949  0.18150  0.71049  1.0000
  C   C446      1.0  0.64458  0.11206  0.78231  1.0000
  C   C447      1.0  0.59447  0.14018  0.71987  1.0000
  C   C448      1.0  0.63978  0.08889  0.70905  1.0000
  H   H756      1.0  0.64555  0.17078  0.75250  1.0000
  H   H757      1.0  0.67601  0.16534  0.75247  1.0000
  H   H758      1.0  0.60465  0.09679  0.75692  1.0000
  H   H759      1.0  0.61633  0.12945  0.77451  1.0000
  H   H760      1.0  0.62254  0.13565  0.68676  1.0000
  H   H761      1.0  0.59882  0.10479  0.70592  1.0000
  H   H762      1.0  0.66538  0.13099  0.69522  1.0000
  H   H763      1.0  0.67543  0.12496  0.73104  1.0000
  H   H764      1.0  0.68334  0.17603  0.69610  1.0000
  H   H765      1.0  0.65224  0.18200  0.69642  1.0000
  H   H766      1.0  0.68359  0.20317  0.71867  1.0000
  H   H767      1.0  0.64950  0.09589  0.77307  1.0000
  H   H768      1.0  0.66518  0.13134  0.78681  1.0000
  H   H769      1.0  0.63369  0.10449  0.80459  1.0000
  H   H770      1.0  0.60684  0.16323  0.72146  1.0000
  H   H771      1.0  0.58365  0.13177  0.74195  1.0000
  H   H772      1.0  0.57702  0.13495  0.70270  1.0000
  H   H773      1.0  0.63158  0.08546  0.68523  1.0000
  H   H774      1.0  0.62129  0.07651  0.72429  1.0000
  H   H775      1.0  0.65500  0.08029  0.71156  1.0000
  H   H776      1.0  0.55721  0.25026  0.79186  1.0000
  H   H777      1.0  0.65029  0.27157  0.81254  1.0000
  H   H778      1.0  0.62652  0.23792  0.89749  1.0000
  H   H779      1.0  0.66302  0.30602  0.79674  1.0000
  C   C449      1.0  0.69739  0.30869  0.85434  1.0000
  H   H780      1.0  0.70523  0.99948  0.54430  1.0000
  H   H781      1.0  0.75724  0.01948  0.56059  1.0000
  C   C450      1.0  0.51047  0.27757  0.97080  1.0000
  H   H782      1.0  0.60104  0.31670  0.82708  1.0000
  H   H783      1.0  0.53448  0.29010  0.97045  1.0000
  H   H784      1.0  0.56933  0.23280  0.93760  1.0000
  H   H785      1.0  0.71493  0.99641  0.64333  1.0000
  H   H786      1.0  0.81567  0.99526  0.57686  1.0000
  H   H787      1.0  0.73869  0.26154  0.97510  1.0000
  H   H788      1.0  0.76042  0.18060  0.98848  1.0000
  C   C451      1.0  0.61597  0.31201  0.81329  1.0000
  H   H789      1.0  0.50354  0.25622  0.97906  1.0000
  H   H790      1.0  0.94473  0.07994  0.65436  1.0000
  C   C452      1.0  0.95778  0.12428  0.61920  1.0000
  C   C453      1.0  0.79063  0.10649  0.50117  1.0000
  H   H791      1.0  0.97742  0.13996  0.66334  1.0000
  H   H792      1.0  0.74701  0.00028  0.59402  1.0000
  C   C454      1.0  0.57459  0.26391  0.85512  1.0000
  H   H793      1.0  0.50280  0.27519  0.94680  1.0000
  H   H794      1.0  0.57430  0.25134  0.87496  1.0000
  H   H795      1.0  0.95752  0.05834  0.67059  1.0000
  C   C455      1.0  0.96285  0.07498  0.65353  1.0000
  C   C456      1.0  0.76602  0.08016  0.50082  1.0000
  H   H796      1.0  0.50028  0.31091  0.97717  1.0000
  C   C457      1.0  0.71091  0.99671  0.56788  1.0000
  H   H797      1.0  0.98093  0.20402  0.60726  1.0000
  H   H798      1.0  0.96359  0.06580  0.63123  1.0000
  H   H799      1.0  0.73506  0.19386  0.98351  1.0000
  H   H800      1.0  0.79214  0.00532  0.59579  1.0000
  C   C458      1.0  0.71788  0.31835  0.83095  1.0000
  Fe  Fe73      1.0  0.65276  0.44379  0.09706  1.0000
  S   S143      1.0  0.70012  0.46599  0.10931  1.0000
  S   S144      1.0  0.63159  0.43961  0.05065  1.0000
  Fe  Fe74      1.0  0.63591  0.41463  0.15855  1.0000
  S   S145      1.0  0.68228  0.43435  0.17554  1.0000
  S   S146      1.0  0.59941  0.38128  0.18596  1.0000
  Fe  Fe75      1.0  0.68634  0.47406  0.15574  1.0000
  S   S147      1.0  0.71247  0.51879  0.17533  1.0000
  Fe  Fe76      1.0  0.69222  0.42497  0.12841  1.0000
  S   S148      1.0  0.71835  0.40467  0.11152  1.0000
  S   S149      1.0  0.63897  0.45463  0.14163  1.0000
  S   S150      1.0  0.64586  0.40244  0.11341  1.0000
  H   H801      1.0  0.64137  0.59693  0.23721  1.0000
  Fe  Fe77      1.0  0.75898  0.62003  0.32497  1.0000
  S   S151      1.0  0.73430  0.57434  0.30870  1.0000
  H   H802      1.0  0.66283  0.37624  0.01355  1.0000
  H   H803      1.0  0.75007  0.44325  0.05713  1.0000
  H   H804      1.0  0.78086  0.62505  0.44533  1.0000
  C   C459      1.0  0.56718  0.35806  0.16649  1.0000
  C   C460      1.0  0.56208  0.36293  0.13647  1.0000
  C   C461      1.0  0.53582  0.34451  0.12184  1.0000
  S   S152      1.0  0.73536  0.64037  0.34764  1.0000
  H   H805      1.0  0.69879  0.42230  0.06040  1.0000
  H   H806      1.0  0.50054  0.62362  0.20191  1.0000
  H   H807      1.0  0.57796  0.38135  0.12487  1.0000
  H   H808      1.0  0.72348  0.47086  0.04495  1.0000
  H   H809      1.0  0.66808  0.57038  0.29309  1.0000
  H   H810      1.0  0.70929  0.37704  0.01727  1.0000
  C   C462      1.0  0.88240  0.62242  0.29463  1.0000
  C   C463      1.0  0.74636  0.44698  0.03297  1.0000
  C   C464      1.0  0.70730  0.36963  0.16030  1.0000
  C   C465      1.0  0.71189  0.37330  0.12894  1.0000
  C   C466      1.0  0.71240  0.35206  0.11128  1.0000
  H   H811      1.0  0.66174  0.61648  0.20548  1.0000
  C   C467      1.0  0.85755  0.59645  0.27912  1.0000
  H   H812      1.0  0.80922  0.54408  0.28094  1.0000
  H   H813      1.0  0.71627  0.35485  0.08707  1.0000
  H   H814      1.0  0.82843  0.62616  0.30630  1.0000
  C   C468      1.0  0.71895  0.53336  0.21291  1.0000
  C   C469      1.0  0.73791  0.56213  0.21682  1.0000
  C   C470      1.0  0.74325  0.57490  0.24593  1.0000
  C   C471      1.0  0.72945  0.55910  0.27161  1.0000
  C   C472      1.0  0.71078  0.53030  0.26779  1.0000
  C   C473      1.0  0.70553  0.51750  0.23869  1.0000
  H   H815      1.0  0.74850  0.57463  0.19710  1.0000
  H   H816      1.0  0.75772  0.59700  0.24840  1.0000
  H   H817      1.0  0.70000  0.51777  0.28744  1.0000
  H   H818      1.0  0.69090  0.49538  0.23618  1.0000
  H   H819      1.0  0.68014  0.60062  0.31648  1.0000
  C   C474      1.0  0.65209  0.45163  0.01694  1.0000
  C   C475      1.0  0.63486  0.33321  0.21895  1.0000
  H   H820      1.0  0.68394  0.49110  0.03557  1.0000
  H   H821      1.0  0.73045  0.39504  0.04913  1.0000
  H   H822      1.0  0.63003  0.33778  0.24228  1.0000
  H   H823      1.0  0.53161  0.34902  0.09908  1.0000
  H   H824      1.0  0.52051  0.64682  0.17260  1.0000
  H   H825      1.0  0.77516  0.41682  0.01715  1.0000
  H   H826      1.0  0.67349  0.37278  0.05191  1.0000
  H   H827      1.0  0.82509  0.56565  0.22895  1.0000
  N   N34       1.0  0.68597  0.60510  0.23700  1.0000
  H   H828      1.0  0.68634  0.57076  0.18379  1.0000
  H   H829      1.0  0.65303  0.63497  0.26743  1.0000
  H   H830      1.0  0.80024  0.56834  0.36473  1.0000
  C   C476      1.0  0.71198  0.62001  0.21649  1.0000
  C   C477      1.0  0.67660  0.47797  0.01543  1.0000
  C   C478      1.0  0.70785  0.32708  0.12482  1.0000
  H   H831      1.0  0.87821  0.64040  0.29506  1.0000
  C   C479      1.0  0.77794  0.63380  0.46635  1.0000
  N   N35       1.0  0.82737  0.58821  0.29051  1.0000
  C   C480      1.0  0.82698  0.58177  0.32399  1.0000
  C   C481      1.0  0.49857  0.63616  0.18317  1.0000
  H   H832      1.0  0.71421  0.60542  0.27300  1.0000
  H   H833      1.0  0.70046  0.34245  0.19829  1.0000
  H   H834      1.0  0.79526  0.60229  0.28921  1.0000
  C   C482      1.0  0.66673  0.64042  0.24667  1.0000
  S   S153      1.0  0.79335  0.63529  0.36193  1.0000
  H   H835      1.0  0.88651  0.61793  0.31816  1.0000
  H   H836      1.0  0.54282  0.32155  0.05077  1.0000
  H   H837      1.0  0.78229  0.54770  0.33204  1.0000
  C   C483      1.0  0.81918  0.61097  0.28711  1.0000
  C   C484      1.0  0.72768  0.39735  0.02434  1.0000
  H   H838      1.0  0.61562  0.34431  0.15123  1.0000
  H   H839      1.0  0.90284  0.62892  0.28173  1.0000
  H   H840      1.0  0.65328  0.54191  0.19565  1.0000
  C   C485      1.0  0.67293  0.57418  0.23052  1.0000
  H   H841      1.0  0.49072  0.32919  0.02217  1.0000
  C   C486      1.0  0.80452  0.56224  0.23961  1.0000
  H   H842      1.0  0.83571  0.61976  0.23865  1.0000
  C   C487      1.0  0.66614  0.56503  0.19685  1.0000
  C   C488      1.0  0.74317  0.47360  0.03279  1.0000
  C   C489      1.0  0.70355  0.34499  0.17394  1.0000
  H   H843      1.0  0.78665  0.58241  0.33667  1.0000
  C   C490      1.0  0.70357  0.32353  0.15625  1.0000
  H   H844      1.0  0.65215  0.56212  0.24303  1.0000
  H   H845      1.0  0.79806  0.57747  0.23130  1.0000
  C   C491      1.0  0.54621  0.33425  0.18142  1.0000
  H   H846      1.0  0.78737  0.54153  0.23139  1.0000
  H   H847      1.0  0.78301  0.55589  0.28206  1.0000
  H   H848      1.0  0.70486  0.63189  0.27705  1.0000
  H   H849      1.0  0.85976  0.60043  0.25438  1.0000
  H   H850      1.0  0.57174  0.35980  0.01557  1.0000
  H   H851      1.0  0.64839  0.35371  0.20814  1.0000
  H   H852      1.0  0.84652  0.64990  0.26278  1.0000
  H   H853      1.0  0.76700  0.45256  0.02082  1.0000
  H   H854      1.0  0.83561  0.56699  0.32776  1.0000
  C   C492      1.0  0.82882  0.62848  0.25762  1.0000
  H   H855      1.0  0.53842  0.35929  0.02399  1.0000
  C   C493      1.0  0.66324  0.61378  0.23040  1.0000
  H   H856      1.0  0.84142  0.60096  0.33725  1.0000
  C   C494      1.0  0.80552  0.56180  0.27462  1.0000
  H   H857      1.0  0.86241  0.57890  0.28202  1.0000
  C   C495      1.0  0.79715  0.56932  0.33983  1.0000
  H   H858      1.0  0.70725  0.38604  0.17414  1.0000
  H   H859      1.0  0.68740  0.56614  0.23896  1.0000
  H   H860      1.0  0.65319  0.57356  0.18577  1.0000
  H   H861      1.0  0.76208  0.49055  0.04489  1.0000
  H   H862      1.0  0.70521  0.61753  0.19217  1.0000
  H   H863      1.0  0.48577  0.60068  0.15254  1.0000
  H   H864      1.0  0.75584  0.38008  0.01195  1.0000
  H   H865      1.0  0.72654  0.61059  0.21848  1.0000
  H   H866      1.0  0.65171  0.59285  0.28939  1.0000
  H   H867      1.0  0.81050  0.63115  0.24883  1.0000
  H   H868      1.0  0.64906  0.38629  0.04562  1.0000
  H   H869      1.0  0.64786  0.34297  0.15993  1.0000
  C   C496      1.0  0.69582  0.60985  0.26982  1.0000
  H   H870      1.0  0.64158  0.34439  0.10542  1.0000
  C   C497      1.0  0.67227  0.59229  0.29324  1.0000
  H   H871      1.0  0.68544  0.42930  0.02675  1.0000
  H   H872      1.0  0.64748  0.32192  0.22142  1.0000
  C   C498      1.0  0.66860  0.38594  0.03640  1.0000
  C   C499      1.0  0.54781  0.34746  0.01224  1.0000
  C   C500      1.0  0.62908  0.32422  0.11731  1.0000
  C   C501      1.0  0.69405  0.41600  0.03602  1.0000
  N   N36       1.0  0.72135  0.42114  0.01931  1.0000
  C   C502      1.0  0.75468  0.39954  0.00795  1.0000
  C   C503      1.0  0.62547  0.33025  0.15098  1.0000
  H   H873      1.0  0.59508  0.32884  0.20001  1.0000
  H   H874      1.0  0.54974  0.33058  0.20481  1.0000
  C   C504      1.0  0.51493  0.32063  0.13675  1.0000
  H   H875      1.0  0.74324  0.48104  0.00937  1.0000
  H   H876      1.0  0.61918  0.48747  0.99613  1.0000
  H   H877      1.0  0.52808  0.65125  0.23997  1.0000
  C   C505      1.0  0.73112  0.65156  0.22157  1.0000
  H   H878      1.0  0.65830  0.65108  0.23154  1.0000
  H   H879      1.0  0.66434  0.65266  0.45371  1.0000
  H   H880      1.0  0.98104  0.32165  0.27729  1.0000
  H   H881      1.0  0.62404  0.41429  0.99175  1.0000
  Fe  Fe78      1.0  0.69184  0.46300  0.81155  1.0000
  S   S154      1.0  0.66390  0.47333  0.84231  1.0000
  S   S155      1.0  0.71872  0.48938  0.77075  1.0000
  Fe  Fe79      1.0  0.67834  0.40957  0.84737  1.0000
  S   S156      1.0  0.64998  0.41708  0.87995  1.0000
  S   S157      1.0  0.67423  0.36868  0.86401  1.0000
  Fe  Fe80      1.0  0.63187  0.42740  0.83928  1.0000
  S   S158      1.0  0.58303  0.40838  0.84245  1.0000
  Fe  Fe81      1.0  0.68396  0.46148  0.88099  1.0000
  S   S159      1.0  0.69870  0.48528  0.92597  1.0000
  S   S160      1.0  0.65792  0.41729  0.80599  1.0000
  S   S161      1.0  0.71427  0.45407  0.85088  1.0000
  H   H882      1.0  0.78847  0.60801  0.49510  1.0000
  C   C506      1.0  0.68451  0.32461  0.86420  1.0000
  S   S162      1.0  0.73676  0.60167  0.70603  1.0000
  H   H883      1.0  0.69197  0.52550  0.78038  1.0000
  H   H884      1.0  0.63337  0.51297  0.91667  1.0000
  H   H885      1.0  0.57483  0.45331  0.97168  1.0000
  C   C507      1.0  0.69198  0.35035  0.85083  1.0000
  H   H886      1.0  0.71284  0.44304  0.98332  1.0000
  C   C508      1.0  0.61600  0.46719  0.90608  1.0000
  C   C509      1.0  0.56733  0.42861  0.91734  1.0000
  H   H887      1.0  0.79842  0.60300  0.80149  1.0000
  C   C510      1.0  0.71258  0.36023  0.82752  1.0000
  C   C511      1.0  0.63543  0.49875  0.90018  1.0000
  C   C512      1.0  0.80661  0.61312  0.75249  1.0000
  H   H888      1.0  0.85585  0.62117  0.78117  1.0000
  H   H889      1.0  0.71847  0.38007  0.81712  1.0000
  C   C513      1.0  0.56316  0.37355  0.82941  1.0000
  C   C514      1.0  0.57185  0.36473  0.80335  1.0000
  H   H890      1.0  0.67511  0.40007  0.96793  1.0000
  H   H891      1.0  0.69581  0.38170  0.97225  1.0000
  H   H892      1.0  0.86958  0.63599  0.72916  1.0000
  C   C515      1.0  0.53745  0.35482  0.84424  1.0000
  H   H893      1.0  0.59135  0.37912  0.79150  1.0000
  H   H894      1.0  0.77724  0.57503  0.77600  1.0000
  H   H895      1.0  0.70409  0.40535  0.94233  1.0000
  H   H896      1.0  0.53045  0.36155  0.86424  1.0000
  C   C516      1.0  0.68116  0.47133  0.96096  1.0000
  H   H897      1.0  0.74164  0.35196  0.79977  1.0000
  C   C517      1.0  0.65741  0.44452  0.96285  1.0000
  C   C518      1.0  0.61757  0.48918  0.97106  1.0000
  H   H898      1.0  0.64996  0.43138  0.94283  1.0000
  C   C519      1.0  0.72285  0.52031  0.75275  1.0000
  C   C520      1.0  0.74270  0.53171  0.72853  1.0000
  C   C521      1.0  0.74713  0.55634  0.71383  1.0000
  C   C522      1.0  0.73153  0.56990  0.72292  1.0000
  C   C523      1.0  0.71159  0.55842  0.74700  1.0000
  C   C524      1.0  0.70731  0.53390  0.76186  1.0000
  H   H899      1.0  0.75500  0.52153  0.72138  1.0000
  H   H900      1.0  0.76303  0.56507  0.69592  1.0000
  H   H901      1.0  0.69941  0.56865  0.75442  1.0000
  N   N37       1.0  0.82373  0.64443  0.75520  1.0000
  H   H902      1.0  0.78886  0.64803  0.77803  1.0000
  H   H903      1.0  0.55864  0.49127  0.88027  1.0000
  C   C525      1.0  0.78219  0.62413  0.49463  1.0000
  S   S163      1.0  0.80334  0.63654  0.64502  1.0000
  H   H904      1.0  0.61141  0.34072  0.78188  1.0000
  N   N38       1.0  0.58881  0.45866  0.92465  1.0000
  H   H905      1.0  0.56048  0.33156  0.77054  1.0000
  C   C526      1.0  0.56394  0.47422  0.88432  1.0000
  N   N39       1.0  0.73448  0.54177  0.61282  1.0000
  C   C527      1.0  0.76505  0.55171  0.60132  1.0000
  C   C528      1.0  0.71427  0.52871  0.58604  1.0000
  C   C529      1.0  0.72838  0.51984  0.63653  1.0000
  C   C530      1.0  0.73262  0.56634  0.62619  1.0000
  C   C531      1.0  0.78936  0.56254  0.62566  1.0000
  C   C532      1.0  0.71950  0.54816  0.55871  1.0000
  C   C533      1.0  0.69844  0.50689  0.65198  1.0000
  C   C534      1.0  0.70202  0.56399  0.62809  1.0000
  H   H906      1.0  0.76650  0.53483  0.58836  1.0000
  H   H907      1.0  0.77140  0.56910  0.58496  1.0000
  H   H908      1.0  0.69115  0.52005  0.59243  1.0000
  H   H909      1.0  0.71591  0.51034  0.57731  1.0000
  H   H910      1.0  0.73113  0.50246  0.62658  1.0000
  H   H911      1.0  0.74415  0.52841  0.65568  1.0000
  H   H912      1.0  0.74219  0.57127  0.64947  1.0000
  H   H913      1.0  0.74603  0.58528  0.61247  1.0000
  H   H914      1.0  0.78969  0.54508  0.63801  1.0000
  H   H915      1.0  0.81078  0.57417  0.61424  1.0000
  H   H916      1.0  0.78756  0.57700  0.64214  1.0000
  H   H917      1.0  0.72142  0.56850  0.56555  1.0000
  H   H918      1.0  0.73928  0.55195  0.54587  1.0000
  H   H919      1.0  0.70093  0.53808  0.54257  1.0000
  H   H920      1.0  0.69622  0.52236  0.66665  1.0000
  H   H921      1.0  0.69659  0.49020  0.66754  1.0000
  H   H922      1.0  0.68015  0.49698  0.63561  1.0000
  H   H923      1.0  0.70064  0.57434  0.64942  1.0000
  H   H924      1.0  0.68352  0.54266  0.62853  1.0000
  H   H925      1.0  0.69881  0.57574  0.60935  1.0000
  H   H926      1.0  0.82883  0.64970  0.80448  1.0000
  C   C535      1.0  0.78656  0.59787  0.77951  1.0000
  H   H927      1.0  0.82076  0.60348  0.74926  1.0000
  S   S164      1.0  0.74307  0.63702  0.62477  1.0000
  H   H928      1.0  0.54638  0.42207  0.92944  1.0000
  H   H929      1.0  0.78613  0.64641  0.73771  1.0000
  H   H930      1.0  0.62994  0.45943  0.91668  1.0000
  C   C536      1.0  0.85651  0.64053  0.71276  1.0000
  H   H931      1.0  0.57696  0.40304  0.94933  1.0000
  C   C537      1.0  0.77845  0.63524  0.52224  1.0000
  H   H932      1.0  0.55429  0.46889  0.93225  1.0000
  C   C538      1.0  0.62770  0.33419  0.78808  1.0000
  H   H933      1.0  0.79294  0.60725  0.73155  1.0000
  H   H934      1.0  0.59886  0.41262  0.91500  1.0000
  C   C539      1.0  0.57391  0.47564  0.91768  1.0000
  C   C540      1.0  0.55436  0.33776  0.79153  1.0000
  H   H935      1.0  0.74071  0.43556  0.97456  1.0000
  H   H936      1.0  0.54382  0.45435  0.87951  1.0000
  Fe  Fe82      1.0  0.76336  0.63252  0.66828  1.0000
  C   C541      1.0  0.64281  0.43481  0.99066  1.0000
  H   H937      1.0  0.61014  0.45707  0.88318  1.0000
  C   C542      1.0  0.69706  0.40183  0.96653  1.0000
  C   C543      1.0  0.59522  0.46051  0.95831  1.0000
  H   H938      1.0  0.56169  0.38665  0.91376  1.0000
  H   H939      1.0  0.63199  0.50404  0.87672  1.0000
  H   H940      1.0  0.56176  0.42588  0.89269  1.0000
  H   H941      1.0  0.58083  0.47658  0.86769  1.0000
  H   H942      1.0  0.58765  0.49793  0.92354  1.0000
  H   H943      1.0  0.63964  0.49565  0.96204  1.0000
  H   H944      1.0  0.60400  0.44648  0.96453  1.0000
  H   H945      1.0  0.75350  0.40156  0.98297  1.0000
  S   S165      1.0  0.78344  0.62218  0.55745  1.0000
  C   C544      1.0  0.57719  0.40686  0.92455  1.0000
  H   H946      1.0  0.76777  0.60186  0.78086  1.0000
  H   H947      1.0  0.86850  0.64321  0.81312  1.0000
  C   C545      1.0  0.72566  0.34430  0.81776  1.0000
  H   H948      1.0  0.65859  0.50373  0.90101  1.0000
  Fe  Fe83      1.0  0.78434  0.64403  0.60203  1.0000
  H   H949      1.0  0.54371  0.34652  0.98741  1.0000
  H   H950      1.0  0.61123  0.50548  0.96722  1.0000
  H   H951      1.0  0.70943  0.50854  0.98630  1.0000
  C   C546      1.0  0.52052  0.32743  0.83304  1.0000
  C   C547      1.0  0.69095  0.48783  0.98748  1.0000
  H   H952      1.0  0.64742  0.35287  0.79674  1.0000
  C   C548      1.0  0.71917  0.42650  0.98601  1.0000
  C   C549      1.0  0.86409  0.64307  0.78836  1.0000
  H   H953      1.0  0.63497  0.32790  0.76734  1.0000
  H   H954      1.0  0.84013  0.62091  0.70165  1.0000
  H   H955      1.0  0.87149  0.65352  0.69449  1.0000
  H   H956      1.0  0.53977  0.68494  0.25636  1.0000
  H   H957      1.0  0.61798  0.90320  0.36977  1.0000
  S   S166      1.0  0.79877  0.69766  0.35408  1.0000
  N   N40       1.0  0.68269  0.92232  0.41053  1.0000
  Fe  Fe84      1.0  0.76302  0.67754  0.31908  1.0000
  S   S167      1.0  0.73873  0.69518  0.29182  1.0000
  Fe  Fe85      1.0  0.81811  0.67292  0.33222  1.0000
  S   S168      1.0  0.86513  0.68270  0.32396  1.0000
  C   C550      1.0  0.69179  0.90485  0.39129  1.0000
  Fe  Fe86      1.0  0.61554  0.79614  0.30711  1.0000
  S   S169      1.0  0.66144  0.81055  0.29005  1.0000
  S   S170      1.0  0.57050  0.76792  0.28530  1.0000
  Fe  Fe87      1.0  0.63755  0.82165  0.37072  1.0000
  S   S171      1.0  0.68390  0.83749  0.35784  1.0000
  S   S172      1.0  0.62661  0.83301  0.41696  1.0000
  Fe  Fe88      1.0  0.67287  0.85137  0.31436  1.0000
  S   S173      1.0  0.70930  0.89405  0.29949  1.0000
  Fe  Fe89      1.0  0.66946  0.79591  0.33521  1.0000
  S   S174      1.0  0.69983  0.77901  0.35007  1.0000
  S   S175      1.0  0.62684  0.83798  0.32841  1.0000
  S   S176      1.0  0.62328  0.77910  0.35110  1.0000
  H   H958      1.0  0.71868  0.67966  0.38778  1.0000
  C   C551      1.0  0.51844  0.75183  0.19504  1.0000
  C   C552      1.0  0.54903  0.76764  0.19507  1.0000
  C   C553      1.0  0.56532  0.77338  0.22238  1.0000
  C   C554      1.0  0.55124  0.76315  0.25017  1.0000
  C   C555      1.0  0.52063  0.74746  0.25013  1.0000
  C   C556      1.0  0.50434  0.74215  0.22290  1.0000
  H   H959      1.0  0.56025  0.77552  0.17376  1.0000
  H   H960      1.0  0.58877  0.78546  0.22187  1.0000
  H   H961      1.0  0.50941  0.73961  0.27144  1.0000
  H   H962      1.0  0.64997  0.88808  0.43662  1.0000
  C   C557      1.0  0.71296  0.92787  0.30480  1.0000
  C   C558      1.0  0.74073  0.95136  0.30261  1.0000
  H   H963      1.0  0.67586  0.88235  0.39368  1.0000
  C   C559      1.0  0.62943  0.83085  0.47928  1.0000
  C   C560      1.0  0.69294  0.95921  0.31378  1.0000
  C   C561      1.0  0.68906  0.93197  0.31049  1.0000
  H   H964      1.0  0.75936  0.94850  0.29797  1.0000
  H   H965      1.0  0.70259  0.66247  0.42311  1.0000
  H   H966      1.0  0.67425  0.96211  0.31786  1.0000
  H   H967      1.0  0.66753  0.91416  0.31182  1.0000
  C   C562      1.0  0.72762  0.71818  0.30823  1.0000
  C   C563      1.0  0.73987  0.73243  0.33540  1.0000
  C   C564      1.0  0.73122  0.75114  0.34755  1.0000
  C   C565      1.0  0.70984  0.75542  0.33307  1.0000
  C   C566      1.0  0.69766  0.74131  0.30574  1.0000
  C   C567      1.0  0.70668  0.72289  0.29329  1.0000
  H   H968      1.0  0.75645  0.72942  0.34670  1.0000
  H   H969      1.0  0.74142  0.76259  0.36815  1.0000
  H   H970      1.0  0.68132  0.74456  0.29425  1.0000
  H   H971      1.0  0.69727  0.71212  0.27209  1.0000
  C   C568      1.0  0.95098  0.74050  0.32058  1.0000
  C   C569      1.0  0.92445  0.71531  0.32026  1.0000
  C   C570      1.0  0.89776  0.71516  0.32434  1.0000
  C   C571      1.0  0.89788  0.74054  0.32870  1.0000
  C   C572      1.0  0.92440  0.76575  0.32877  1.0000
  H   H972      1.0  0.92463  0.69582  0.31683  1.0000
  H   H973      1.0  0.87755  0.74078  0.33181  1.0000
  H   H974      1.0  0.92426  0.78529  0.33202  1.0000
  C   C573      1.0  0.67649  0.74107  0.42721  1.0000
  C   C574      1.0  0.63618  0.82269  0.45131  1.0000
  C   C575      1.0  0.65041  0.80671  0.45129  1.0000
  H   H975      1.0  0.72672  0.95784  0.37101  1.0000
  H   H976      1.0  0.65572  0.80033  0.42990  1.0000
  H   H977      1.0  0.69311  0.88493  0.45009  1.0000
  C   C576      1.0  0.95110  0.76590  0.32480  1.0000
  C   C577      1.0  0.72248  0.90831  0.39706  1.0000
  C   C578      1.0  0.48426  0.67195  0.17014  1.0000
  C   C579      1.0  0.65942  0.92557  0.39363  1.0000
  H   H978      1.0  0.68920  0.65606  0.25266  1.0000
  H   H979      1.0  0.79167  0.89323  0.33682  1.0000
  H   H980      1.0  0.65307  0.93940  0.40655  1.0000
  H   H981      1.0  0.66772  0.93587  0.37139  1.0000
  H   H982      1.0  0.73763  0.92082  0.37870  1.0000
  H   H983      1.0  0.61830  0.84310  0.47947  1.0000
  C   C580      1.0  0.90692  0.73664  0.41825  1.0000
  N   N41       1.0  0.70221  0.71178  0.43881  1.0000
  H   H984      1.0  0.93435  0.73880  0.38102  1.0000
  N   N42       1.0  0.76400  0.84732  0.29170  1.0000
  C   C581      1.0  0.76181  0.84891  0.32589  1.0000
  C   C582      1.0  0.75461  0.81736  0.28336  1.0000
  C   C583      1.0  0.74361  0.85640  0.27760  1.0000
  C   C584      1.0  0.79506  0.86663  0.28286  1.0000
  C   C585      1.0  0.76840  0.87760  0.33917  1.0000
  C   C586      1.0  0.77329  0.80506  0.29632  1.0000
  C   C587      1.0  0.72966  0.84353  0.24650  1.0000
  C   C588      1.0  0.80275  0.86604  0.24918  1.0000
  H   H985      1.0  0.73959  0.83366  0.33360  1.0000
  H   H986      1.0  0.77691  0.84324  0.33771  1.0000
  H   H987      1.0  0.75431  0.81429  0.25835  1.0000
  H   H988      1.0  0.73177  0.80373  0.29083  1.0000
  H   H989      1.0  0.72467  0.85105  0.29278  1.0000
  H   H990      1.0  0.75444  0.87949  0.27527  1.0000
  H   H991      1.0  0.80102  0.88867  0.28801  1.0000
  H   H992      1.0  0.81020  0.86230  0.29667  1.0000
  C   C589      1.0  0.52135  0.66725  0.24442  1.0000
  H   H993      1.0  0.68200  0.76284  0.42169  1.0000
  S   S177      1.0  0.76262  0.66674  0.43065  1.0000
  H   H994      1.0  0.77206  0.80349  0.32145  1.0000
  H   H995      1.0  0.76462  0.78340  0.28751  1.0000
  H   H996      1.0  0.79626  0.81675  0.28897  1.0000
  H   H997      1.0  0.90642  0.73738  0.44346  1.0000
  H   H998      1.0  0.74555  0.84544  0.22894  1.0000
  H   H999      1.0  0.71785  0.85437  0.23796  1.0000
  H   H1000     1.0  0.79827  0.84504  0.24141  1.0000
  H   H1001     1.0  0.82644  0.88008  0.24617  1.0000
  H   H1002     1.0  0.79150  0.87412  0.23436  1.0000
  H   H1003     1.0  0.71325  0.82122  0.24886  1.0000
  H   H1004     1.0  0.67758  0.89234  0.48236  1.0000
  H   H1005     1.0  0.75468  0.88571  0.32902  1.0000
  C   C590      1.0  0.70718  0.95130  0.41702  1.0000
  H   H1006     1.0  0.66553  0.72826  0.40678  1.0000
  H   H1007     1.0  0.69526  0.66757  0.47987  1.0000
  H   H1008     1.0  0.66275  0.92115  0.45408  1.0000
  H   H1009     1.0  0.94595  0.78848  0.42520  1.0000
  H   H1010     1.0  0.71367  0.75300  0.45654  1.0000
  H   H1011     1.0  0.71006  0.91982  0.46692  1.0000
  H   H1012     1.0  0.53555  0.68759  0.20161  1.0000
  C   C591      1.0  0.66985  0.90831  0.44036  1.0000
  H   H1013     1.0  0.73173  0.69621  0.45242  1.0000
  C   C592      1.0  0.75692  0.73295  0.42657  1.0000
  H   H1014     1.0  0.66804  0.78591  0.47884  1.0000
  H   H1015     1.0  0.96984  0.71531  0.38605  1.0000
  C   C593      1.0  0.73168  0.71611  0.44862  1.0000
  H   H1016     1.0  0.61744  0.88936  0.40639  1.0000
  H   H1017     1.0  0.90387  0.75367  0.40843  1.0000
  C   C594      1.0  0.65736  0.79857  0.47904  1.0000
  C   C595      1.0  0.51492  0.67816  0.21474  1.0000
  H   H1018     1.0  0.72031  0.75216  0.41701  1.0000
  H   H1019     1.0  0.63546  0.88257  0.37485  1.0000
  N   N43       1.0  0.96334  0.75997  0.41887  1.0000
  C   C596      1.0  0.69935  0.67235  0.40275  1.0000
  C   C597      1.0  0.72073  0.98270  0.31185  1.0000
  H   H1020     1.0  0.70154  0.71075  0.38966  1.0000
  C   C598      1.0  0.70475  0.74033  0.43534  1.0000
  H   H1021     1.0  0.77598  0.73044  0.43314  1.0000
  H   H1022     1.0  0.76392  0.75555  0.42792  1.0000
  H   H1023     1.0  0.88783  0.71685  0.41069  1.0000
  H   H1024     1.0  0.66797  0.68720  0.40644  1.0000
  C   C599      1.0  0.72165  0.96926  0.38880  1.0000
  H   H1025     1.0  0.97131  0.74027  0.31745  1.0000
  H   H1026     1.0  0.72471  0.95112  0.43077  1.0000
  H   H1027     1.0  0.48809  0.77934  0.00164  1.0000
  H   H1028     1.0  0.75142  0.72560  0.40273  1.0000
  C   C600      1.0  0.63119  0.89843  0.38600  1.0000
  H   H1029     1.0  0.69117  0.90940  0.36673  1.0000
  H   H1030     1.0  0.76357  0.87532  0.36394  1.0000
  C   C601      1.0  0.74466  0.97861  0.30633  1.0000
  H   H1031     1.0  0.93234  0.71631  0.41072  1.0000
  S   S178      1.0  0.49909  0.74456  0.15966  1.0000
  H   H1032     1.0  0.51152  0.69606  0.22092  1.0000
  C   C602      1.0  0.68056  0.69716  0.46382  1.0000
  H   H1033     1.0  0.68720  0.71012  0.48504  1.0000
  C   C603      1.0  0.50919  0.68680  0.14711  1.0000
  H   H1034     1.0  0.73784  0.72692  0.47118  1.0000
  H   H1035     1.0  0.52859  0.70425  0.15789  1.0000
  H   H1036     1.0  0.73215  0.91694  0.41951  1.0000
  H   H1037     1.0  0.72127  0.88754  0.39550  1.0000
  H   H1038     1.0  0.65876  0.69432  0.45761  1.0000
  H   H1039     1.0  0.96139  0.79010  0.38875  1.0000
  C   C604      1.0  0.68927  0.90132  0.46075  1.0000
  Fe  Fe90      1.0  0.77208  0.65897  0.38170  1.0000
  H   H1040     1.0  0.69928  0.96316  0.43137  1.0000
  H   H1041     1.0  0.66120  0.73488  0.44666  1.0000
  N   N44       1.0  0.49013  0.65700  0.19558  1.0000
  H   H1042     1.0  0.50194  0.69625  0.12913  1.0000
  C   C605      1.0  0.69194  0.69610  0.40895  1.0000
  H   H1043     1.0  0.50277  0.65908  0.26036  1.0000
  C   C606      1.0  0.93487  0.73732  0.40616  1.0000
  H   H1044     1.0  0.51523  0.67237  0.13538  1.0000
  C   C607      1.0  0.96420  0.78752  0.41347  1.0000
  H   H1045     1.0  0.95415  0.73215  0.45686  1.0000
  S   S179      1.0  0.78466  0.65613  0.29437  1.0000
  H   H1046     1.0  0.70786  0.97745  0.37883  1.0000
  H   H1047     1.0  0.95180  0.76272  0.46567  1.0000
  C   C608      1.0  0.96461  0.75496  0.45247  1.0000
  H   H1048     1.0  0.73987  0.65693  0.24504  1.0000
  C   C609      1.0  0.67525  0.66788  0.47244  1.0000
  H   H1049     1.0  0.68128  0.65551  0.38958  1.0000
  H   H1050     1.0  0.75032  0.65910  0.20639  1.0000
  C   C610      1.0  0.76953  0.65446  0.46542  1.0000
  H   H1051     1.0  0.71963  0.66323  0.21512  1.0000
  H   H1052     1.0  0.63160  0.86553  0.68954  1.0000
  S   S180      1.0  0.80698  0.69045  0.60808  1.0000
  C   C611      1.0  0.59960  0.68516  0.71572  1.0000
  S   S181      1.0  0.78363  0.67862  0.67877  1.0000
  Fe  Fe91      1.0  0.76664  0.68327  0.63349  1.0000
  S   S182      1.0  0.74629  0.70951  0.61739  1.0000
  Fe  Fe92      1.0  0.82261  0.68285  0.65272  1.0000
  S   S183      1.0  0.86610  0.71017  0.67631  1.0000
  H   H1053     1.0  0.60624  0.85104  0.75408  1.0000
  Fe  Fe93      1.0  0.66199  0.85069  0.63728  1.0000
  S   S184      1.0  0.62315  0.82163  0.60876  1.0000
  S   S185      1.0  0.66630  0.89429  0.63940  1.0000
  Fe  Fe94      1.0  0.67602  0.80375  0.65211  1.0000
  S   S186      1.0  0.63831  0.77235  0.62478  1.0000
  S   S187      1.0  0.70326  0.78911  0.67897  1.0000
  Fe  Fe95      1.0  0.65235  0.80602  0.58957  1.0000
  S   S188      1.0  0.65891  0.79490  0.54118  1.0000
  Fe  Fe96      1.0  0.61262  0.79078  0.64682  1.0000
  S   S189      1.0  0.56543  0.76313  0.66217  1.0000
  S   S190      1.0  0.69187  0.83671  0.61584  1.0000
  S   S191      1.0  0.64953  0.82054  0.67644  1.0000
  H   H1054     1.0  0.83418  0.74449  0.69187  1.0000
  C   C612      1.0  0.54814  0.75600  0.69853  1.0000
  C   C613      1.0  0.56393  0.76469  0.72577  1.0000
  C   C614      1.0  0.54937  0.75797  0.75402  1.0000
  C   C615      1.0  0.51880  0.74262  0.75557  1.0000
  H   H1055     1.0  0.49721  0.83461  0.93819  1.0000
  C   C616      1.0  0.51759  0.74076  0.70002  1.0000
  H   H1056     1.0  0.58737  0.77626  0.72511  1.0000
  H   H1057     1.0  0.56187  0.76456  0.77492  1.0000
  H   H1058     1.0  0.50507  0.73383  0.67915  1.0000
  C   C617      1.0  0.65032  0.80642  0.50703  1.0000
  H   H1059     1.0  0.55184  0.86650  0.70403  1.0000
  H   H1060     1.0  0.59197  0.82826  0.66386  1.0000
  H   H1061     1.0  0.63089  0.82887  0.52845  1.0000
  H   H1062     1.0  0.79658  0.69198  0.75622  1.0000
  C   C618      1.0  0.95690  0.75948  0.63282  1.0000
  C   C619      1.0  0.54826  0.82110  0.65740  1.0000
  C   C620      1.0  0.61601  0.84735  0.73336  1.0000
  C   C621      1.0  0.90087  0.72817  0.65889  1.0000
  C   C622      1.0  0.92574  0.74234  0.67740  1.0000
  C   C623      1.0  0.95364  0.75775  0.66448  1.0000
  C   C624      1.0  0.93197  0.74527  0.61437  1.0000
  C   C625      1.0  0.90417  0.72949  0.62727  1.0000
  H   H1063     1.0  0.92348  0.74155  0.70189  1.0000
  H   H1064     1.0  0.88530  0.71870  0.61270  1.0000
  C   C626      1.0  0.73389  0.73084  0.63567  1.0000
  C   C627      1.0  0.73716  0.73653  0.66698  1.0000
  C   C628      1.0  0.72786  0.75455  0.67998  1.0000
  C   C629      1.0  0.71486  0.76668  0.66192  1.0000
  C   C630      1.0  0.71117  0.76058  0.63076  1.0000
  C   C631      1.0  0.72082  0.74292  0.61774  1.0000
  H   H1065     1.0  0.74691  0.72716  0.68110  1.0000
  H   H1066     1.0  0.73065  0.75905  0.70415  1.0000
  H   H1067     1.0  0.70119  0.76972  0.61658  1.0000
  H   H1068     1.0  0.71814  0.73863  0.59352  1.0000
  C   C632      1.0  0.69682  0.92740  0.64655  1.0000
  C   C633      1.0  0.69377  0.95132  0.64249  1.0000
  N   N45       1.0  0.74414  0.97554  0.55410  1.0000
  H   H1069     1.0  0.58790  0.72565  0.72454  1.0000
  C   C634      1.0  0.74758  0.95753  0.66016  1.0000
  C   C635      1.0  0.72383  0.93061  0.65556  1.0000
  H   H1070     1.0  0.67296  0.94909  0.63563  1.0000
  H   H1071     1.0  0.55429  0.70748  0.68656  1.0000
  H   H1072     1.0  0.59990  0.91440  0.69681  1.0000
  H   H1073     1.0  0.72647  0.91240  0.65891  1.0000
  C   C636      1.0  0.61909  0.68800  0.74326  1.0000
  C   C637      1.0  0.63652  0.82281  0.50706  1.0000
  H   H1074     1.0  0.48555  0.74388  0.96059  1.0000
  H   H1075     1.0  0.48895  0.78871  0.91543  1.0000
  C   C638      1.0  0.58979  0.70094  0.66748  1.0000
  N   N46       1.0  0.58739  0.85832  0.69243  1.0000
  H   H1076     1.0  0.62733  0.76721  0.74371  1.0000
  H   H1077     1.0  0.71940  0.90714  0.57978  1.0000
  C   C639      1.0  0.50298  0.73420  0.72830  1.0000
  H   H1078     1.0  0.53575  0.83915  0.75153  1.0000
  H   H1079     1.0  0.76842  0.95984  0.66705  1.0000
  C   C640      1.0  0.60784  0.73359  0.71031  1.0000
  H   H1080     1.0  0.57222  0.87525  0.65648  1.0000
  H   H1081     1.0  0.53242  0.82682  0.66730  1.0000
  H   H1082     1.0  0.77921  0.96877  0.53746  1.0000
  H   H1083     1.0  0.65266  0.76718  0.71689  1.0000
  C   C641      1.0  0.64025  0.71951  0.68319  1.0000
  H   H1084     1.0  0.61577  0.66702  0.74940  1.0000
  H   H1085     1.0  0.60573  0.74736  0.69306  1.0000
  H   H1086     1.0  0.70685  0.96072  0.52366  1.0000
  H   H1087     1.0  0.62683  0.88725  0.71655  1.0000
  H   H1088     1.0  0.50100  0.79436  0.95380  1.0000
  C   C642      1.0  0.57516  0.82980  0.67800  1.0000
  H   H1089     1.0  0.59507  0.66582  0.70295  1.0000
  S   S192      1.0  0.50193  0.73424  0.79213  1.0000
  C   C643      1.0  0.64560  0.69715  0.66733  1.0000
  H   H1090     1.0  0.85568  0.67708  0.78384  1.0000
  H   H1091     1.0  0.57806  0.68003  0.72557  1.0000
  C   C644      1.0  0.74469  0.98147  0.65538  1.0000
  H   H1092     1.0  0.63419  0.69051  0.64511  1.0000
  C   C645      1.0  0.48363  0.77926  0.93854  1.0000
  H   H1093     1.0  0.93424  0.74650  0.58987  1.0000
  N   N47       1.0  0.84390  0.78013  0.63941  1.0000
  C   C646      1.0  0.81645  0.75873  0.65450  1.0000
  C   C647      1.0  0.83619  0.78538  0.60792  1.0000
  C   C648      1.0  0.85751  0.80717  0.65714  1.0000
  C   C649      1.0  0.86530  0.76916  0.63830  1.0000
  C   C650      1.0  0.81923  0.75322  0.68843  1.0000
  C   C651      1.0  0.82637  0.76102  0.58497  1.0000
  C   C652      1.0  0.83755  0.82012  0.66331  1.0000
  C   C653      1.0  0.89324  0.78644  0.61952  1.0000
  H   H1094     1.0  0.79872  0.76427  0.65238  1.0000
  H   H1095     1.0  0.80786  0.73824  0.64271  1.0000
  H   H1096     1.0  0.85451  0.80397  0.59747  1.0000
  H   H1097     1.0  0.81801  0.79039  0.60896  1.0000
  H   H1098     1.0  0.86619  0.80479  0.67939  1.0000
  H   H1099     1.0  0.87687  0.82334  0.64511  1.0000
  H   H1100     1.0  0.87252  0.76755  0.66168  1.0000
  H   H1101     1.0  0.85469  0.74740  0.62931  1.0000
  H   H1102     1.0  0.75408  0.92827  0.56317  1.0000
  H   H1103     1.0  0.82603  0.77200  0.70291  1.0000
  H   H1104     1.0  0.79756  0.73745  0.69680  1.0000
  H   H1105     1.0  0.80587  0.74273  0.59214  1.0000
  H   H1106     1.0  0.82175  0.76760  0.56272  1.0000
  H   H1107     1.0  0.84329  0.75482  0.58085  1.0000
  H   H1108     1.0  0.81807  0.80628  0.67676  1.0000
  H   H1109     1.0  0.83072  0.82599  0.64195  1.0000
  H   H1110     1.0  0.84982  0.83958  0.67688  1.0000
  H   H1111     1.0  0.91266  0.79073  0.63350  1.0000
  H   H1112     1.0  0.89632  0.80675  0.61151  1.0000
  H   H1113     1.0  0.89376  0.77416  0.59951  1.0000
  H   H1114     1.0  0.60559  0.87578  0.64840  1.0000
  H   H1115     1.0  0.53695  0.79813  0.65396  1.0000
  H   H1116     1.0  0.72100  0.91581  0.54063  1.0000
  H   H1117     1.0  0.73572  0.95424  0.59712  1.0000
  C   C654      1.0  0.56691  0.86036  0.71528  1.0000
  C   C655      1.0  0.55746  0.69153  0.67405  1.0000
  H   H1118     1.0  0.85965  0.67821  0.73160  1.0000
  H   H1119     1.0  0.49124  0.82691  0.97824  1.0000
  N   N48       1.0  0.60983  0.70980  0.69484  1.0000
  H   H1120     1.0  0.63281  0.91734  0.67971  1.0000
  H   H1121     1.0  0.82763  0.69651  0.73540  1.0000
  H   H1122     1.0  0.57927  0.87732  0.73214  1.0000
  H   H1123     1.0  0.64637  0.73683  0.66684  1.0000
  H   H1124     1.0  0.73375  0.95269  0.51156  1.0000
  C   C656      1.0  0.72837  0.94973  0.57312  1.0000
  C   C657      1.0  0.63352  0.75337  0.73080  1.0000
  H   H1125     1.0  0.63988  0.74241  0.74761  1.0000
  H   H1126     1.0  0.58995  0.68320  0.65520  1.0000
  H   H1127     1.0  0.75919  0.68142  0.49267  1.0000
  H   H1128     1.0  0.60522  0.82498  0.72730  1.0000
  H   H1129     1.0  0.66914  0.70625  0.66226  1.0000
  H   H1130     1.0  0.55910  0.82451  0.74503  1.0000
  H   H1131     1.0  0.59727  0.71816  0.65069  1.0000
  H   H1132     1.0  0.56917  0.81340  0.69531  1.0000
  H   H1133     1.0  0.65689  0.72875  0.70142  1.0000
  H   H1134     1.0  0.51050  0.75964  0.93022  1.0000
  C   C658      1.0  0.59299  0.87881  0.66712  1.0000
  C   C659      1.0  0.54714  0.83380  0.73352  1.0000
  C   C660      1.0  0.81481  0.68708  0.75625  1.0000
  H   H1135     1.0  0.54685  0.67156  0.68653  1.0000
  C   C661      1.0  0.61631  0.86575  0.70696  1.0000
  H   H1136     1.0  0.60765  0.92247  0.65728  1.0000
  H   H1137     1.0  0.63884  0.85327  0.73939  1.0000
  H   H1138     1.0  0.52998  0.81754  0.71898  1.0000
  C   C662      1.0  0.60924  0.90994  0.67624  1.0000
  H   H1139     1.0  0.55487  0.83057  0.63452  1.0000
  H   H1140     1.0  0.82818  0.69733  0.77671  1.0000
  C   C663      1.0  0.73123  0.92410  0.56311  1.0000
  H   H1141     1.0  0.70467  0.94275  0.57388  1.0000
  H   H1142     1.0  0.61338  0.69690  0.76327  1.0000
  C   C664      1.0  0.73089  0.96948  0.52270  1.0000
  H   H1143     1.0  0.63980  0.67885  0.68197  1.0000
  H   H1144     1.0  0.97256  0.76869  0.67896  1.0000
  H   H1145     1.0  0.64262  0.70037  0.73873  1.0000
  H   H1146     1.0  0.78405  0.96925  0.59529  1.0000
  C   C665      1.0  0.76572  0.66548  0.49304  1.0000
  C   C666      1.0  0.71756  0.97820  0.64676  1.0000
  C   C667      1.0  0.77031  0.65608  0.52126  1.0000
  H   H1147     1.0  0.69371  0.97697  0.57740  1.0000
  H   H1148     1.0  0.54569  0.68798  0.65204  1.0000
  H   H1149     1.0  0.66014  0.66045  0.49211  1.0000
  C   C668      1.0  0.77596  0.98412  0.55136  1.0000
  H   H1150     1.0  0.76723  0.66477  0.54226  1.0000
  C   C669      1.0  0.48798  0.75328  0.93779  1.0000
  H   H1151     1.0  0.82861  0.65826  0.70840  1.0000
  C   C670      1.0  0.84227  0.65399  0.78355  1.0000
  C   C671      1.0  0.80202  0.65508  0.75689  1.0000
  C   C672      1.0  0.84201  0.65655  0.72708  1.0000
  H   H1152     1.0  0.88496  0.65653  0.77667  1.0000
