data_image0
_chemical_formula_structural       FeSCFeS2FeSFeS3FeS2FeS2FeSFeS3FeSCFeS2FeSFeS3FeS2FeS2FeSFeS3C3H2C2H2C3H2C7H9C8H5C2H2C3H2C6H4C6H5CNHC4H2CHSH5CH3CHSH2CH5CH2CH4CHNCH2C2H5CH3CHCNH5NC8H20NC7H17CH3NCHCH4C2H9C2HNH3CHC2H5CH5CHCHCH3CH4C3HCH4C3HC3HCH2CH3C2H6C2H2FeS2FeS2FeHFeS3FeS2FeHSFeHFeS3C2H3C6H4CHCH7C2HC2H2CHCH3CHCH4C2H2CH2NHCH5CH5CHSH2NC8H20CHCHCHCHCHNCHCH3CHCHCH2CH3CH2NCH4CHCHCH4C2HCH2FeS2FeS2FeSFeS3FeS2FeS2FeSFeS3C6H2CH2C2H2C2H3C6H4C6H7C3HCHCHSHC2SCH2C2HCH13NHNH4CH7CH6CH2CH2CH9C2H4NC8H2C2H3NCHCH4CH2CHCHC2H4CH3C2H6CH6NHCH2NHC2H6CHC2H2C3H7CH2CHCH4C2H5C3H3CH3FeS2FeS2FeSFeS3FeS2FeS2FeSFeS3C2H3C3H3C6H4C2H3CHC7H4C6H4CH4C2H2CHC2H2C2SH2C2H2CH3C2H9C2HNC8H23NSH4NCH2C2H2CH2NH5CHCH2CHCHC2H3CHNCH3C2H3C2H7CHCH2CHCH6C3H8NH4C2H2FeS2FeS2FeHFeS3FeS2FeS2FeHFeS3HCH2C7H4CHCH8C2HC2HC2HCHC4H6CHCHCH6CNHCH6C2HCH3CH5CH2CH2CH2CHCHCHCH3CH3NC3HCH6NH2FeS2FeS2FeSFeS3FeS2FeS2FeSFeS3FeS2FeSHFeSFeS3FeS2FeS2FeSFeS3H4C2HC3H4CH6C6H4CHCH2C6H10C6H4C6H4C5H2C3HCH2CHCH5NC4HC2HCH4CH10CH4CHNH2C2HC5H2NH6C2H2CHNC6H15NHCHC5HC2HCH8CHCH2CH3C2HCH3CH3C4H7C2H5CHSHCHCH3CH3NCH3C2FeS2FeS2FeSFeS3FeS2FeS2FeSFeS3FeS2FeS2FeHFeS3FeS2FeS2FeSFeS3CHCHCHC2H2C6H4C3H8NC6H4CHCHC7H4C6H4C2H9CNC5H14CH6CH2CHC3H2CH3CH8C4HCN2C8H26CH3C3HC2H2CH2CH9NH4CHCHC2H3CH2C2NC2H6C4H2C2H5C3H2CHCH5CSCHC4H5C2H3CNH3FeS2FeS2HCFeS3FeSHFeS2FeSFeHS2H3CHC6H4C2H2SH2CHC3H2CH3CH3CH3CSH2CH2CHCHC2H5CH2CHNC8H14CHCH3FeH3NCHCH6C2HCH4CH3CH4CHCFeS2FeS2FeSFeS3FeS2FeS2FeSFeS3C2H3C6H4C6H4C6H5C3HC3H2C2HCHNH3CHCH2CHC2HCH2C2HCN2H6CHCH5CH2CH2C2H2C2H2NC8H33C2HC2HSHC2H4CH5CH2CHCH2CH3CH2CHCH2NH2CH4CHCSFeS2FeS2FeSFeS3FeS2FeS2FeSFeS3H3CHC6H4C3NHCH4C6H4C6H4CHCH2NC8H20CH9CHC2H2CH7CHC3HNC2HSC2HNH2CH3C3H2CH7CH3C2HSH3CH6C2H9C2HCH3C3H2CH2CHCNHC2H5CHCHCHCNHCHFeSHFeS2FeSFeS3FeS2FeS2FeSFeHS2C3H2C6H5CH4CH2C2H3CH2CH2NC8H14C2HNH3CH10C2H6CHCH2C2H4CHC2H2C2HCH2CHCHNH3CH5CH2C2H7C2NCHCHC2H4C2HCFeS2FeS2FeCFeS3FeS2FeS2FeSFeS3FeS2FeS2FeSFeS3FeS2FeS2FeSFeS3CH2CH3CH4CHCH2C6H5C3H4C6H4C4H3CH2CH2C6H4C6H4C2H6CHCH7NCHCH2NH6NH3CHCH3C2H4NC8H11CNH7NHC2H2C5H6CHC2HCH8CH9NC6H16CH5NC8H10CH2CHC2H4C6H2C3HCH3CHCH11C
_chemical_formula_sum              "Fe128 S256 C896 H1536 N64"
_cell_length_a       35.6068
_cell_length_b       76.8785
_cell_length_c       45.1411
_cell_angle_alpha    89.3313
_cell_angle_beta     90.1389
_cell_angle_gamma    88.9692

_space_group_name_H-M_alt    "P 1"
_space_group_IT_number       1

loop_
  _space_group_symop_operation_xyz
  'x, y, z'

loop_
  _atom_site_type_symbol
  _atom_site_label
  _atom_site_symmetry_multiplicity
  _atom_site_fract_x
  _atom_site_fract_y
  _atom_site_fract_z
  _atom_site_occupancy
  Fe  Fe1       1.0  0.33634  0.03968  0.41340  1.0000
  S   S1        1.0  0.34634  0.06585  0.43364  1.0000
  C   C1        1.0  0.28633  0.03692  0.04487  1.0000
  Fe  Fe2       1.0  0.34083  0.05453  0.34965  1.0000
  S   S2        1.0  0.35218  0.08165  0.36477  1.0000
  S   S3        1.0  0.34265  0.04707  0.30114  1.0000
  Fe  Fe3       1.0  0.39064  0.06892  0.39843  1.0000
  S   S4        1.0  0.44727  0.07960  0.41066  1.0000
  Fe  Fe4       1.0  0.30715  0.07662  0.39830  1.0000
  S   S5        1.0  0.25884  0.09591  0.40303  1.0000
  S   S6        1.0  0.38342  0.04222  0.38055  1.0000
  S   S7        1.0  0.29308  0.05020  0.38090  1.0000
  Fe  Fe5       1.0  0.24886  0.19620  0.41480  1.0000
  S   S8        1.0  0.26816  0.22144  0.39506  1.0000
  S   S9        1.0  0.29356  0.17535  0.42203  1.0000
  Fe  Fe6       1.0  0.16687  0.20878  0.41858  1.0000
  S   S10       1.0  0.18039  0.23498  0.39943  1.0000
  S   S11       1.0  0.10911  0.19801  0.42917  1.0000
  Fe  Fe7       1.0  0.21638  0.22022  0.36678  1.0000
  S   S12       1.0  0.20861  0.22277  0.31683  1.0000
  Fe  Fe8       1.0  0.23123  0.23385  0.42986  1.0000
  S   S13       1.0  0.25172  0.25783  0.45449  1.0000
  S   S14       1.0  0.19978  0.19406  0.38430  1.0000
  S   S15       1.0  0.21510  0.20851  0.45131  1.0000
  Fe  Fe9       1.0  0.20521  0.03601  0.10499  1.0000
  S   S16       1.0  0.19673  0.06187  0.08253  1.0000
  C   C2        1.0  0.49604  0.22866  0.04424  1.0000
  Fe  Fe10      1.0  0.20109  0.05186  0.16727  1.0000
  S   S17       1.0  0.19129  0.07891  0.14896  1.0000
  S   S18       1.0  0.19883  0.04853  0.21737  1.0000
  Fe  Fe11      1.0  0.15214  0.06638  0.11687  1.0000
  S   S19       1.0  0.09758  0.07856  0.10070  1.0000
  Fe  Fe12      1.0  0.23653  0.07195  0.11659  1.0000
  S   S20       1.0  0.28560  0.08908  0.10545  1.0000
  S   S21       1.0  0.15805  0.03980  0.13746  1.0000
  S   S22       1.0  0.24903  0.04559  0.13680  1.0000
  Fe  Fe13      1.0  0.30287  0.18951  0.12618  1.0000
  S   S23       1.0  0.28468  0.21555  0.14427  1.0000
  S   S24       1.0  0.25630  0.17010  0.12124  1.0000
  Fe  Fe14      1.0  0.38510  0.19973  0.12225  1.0000
  S   S25       1.0  0.37264  0.22618  0.14056  1.0000
  S   S26       1.0  0.44237  0.19097  0.10470  1.0000
  Fe  Fe15      1.0  0.33557  0.21247  0.17346  1.0000
  S   S27       1.0  0.34160  0.21803  0.22278  1.0000
  Fe  Fe16      1.0  0.32288  0.22684  0.10941  1.0000
  S   S28       1.0  0.31099  0.25203  0.08291  1.0000
  S   S29       1.0  0.35174  0.18577  0.15726  1.0000
  S   S30       1.0  0.33724  0.20102  0.08932  1.0000
  C   C3        1.0  0.29631  0.25460  0.04533  1.0000
  C   C4        1.0  0.28805  0.27144  0.03425  1.0000
  C   C5        1.0  0.29335  0.24049  0.02619  1.0000
  H   H1        1.0  0.29034  0.28245  0.04882  1.0000
  H   H2        1.0  0.29955  0.22746  0.03435  1.0000
  C   C6        1.0  0.48529  0.19943  0.11743  1.0000
  C   C7        1.0  0.48770  0.20840  0.14411  1.0000
  H   H3        1.0  0.24106  0.30781  0.48000  1.0000
  H   H4        1.0  0.46266  0.21072  0.15713  1.0000
  C   C8        1.0  0.40673  0.22497  0.04585  1.0000
  C   C9        1.0  0.05553  0.05664  0.13552  1.0000
  C   C10       1.0  0.05549  0.06910  0.11272  1.0000
  H   H5        1.0  0.28552  0.15943  0.49095  1.0000
  H   H6        1.0  0.08139  0.05316  0.14684  1.0000
  C   C11       1.0  0.25840  0.01007  0.36751  1.0000
  C   C12       1.0  0.27747  0.11168  0.10881  1.0000
  C   C13       1.0  0.24109  0.11836  0.11272  1.0000
  C   C14       1.0  0.23512  0.13632  0.11620  1.0000
  C   C15       1.0  0.26541  0.14774  0.11593  1.0000
  C   C16       1.0  0.30189  0.14108  0.11205  1.0000
  C   C17       1.0  0.30786  0.12307  0.10841  1.0000
  H   H7        1.0  0.21744  0.10974  0.11280  1.0000
  H   H8        1.0  0.20685  0.14141  0.11911  1.0000
  H   H9        1.0  0.32539  0.14981  0.11184  1.0000
  H   H10       1.0  0.33609  0.11797  0.10547  1.0000
  H   H11       1.0  0.18074  0.26063  0.03925  1.0000
  H   H12       1.0  0.03001  0.03751  0.04405  1.0000
  H   H13       1.0  0.29280  0.09596  0.02481  1.0000
  H   H14       1.0  0.12574  0.25174  0.30992  1.0000
  H   H15       1.0  0.12487  0.05731  0.04768  1.0000
  C   C18       1.0  0.20088  0.00892  0.04145  1.0000
  C   C19       1.0  0.27682  0.27419  0.00452  1.0000
  C   C20       1.0  0.24584  0.22167  0.29091  1.0000
  C   C21       1.0  0.23789  0.21759  0.26129  1.0000
  C   C22       1.0  0.26683  0.21649  0.24009  1.0000
  C   C23       1.0  0.30397  0.21967  0.24830  1.0000
  C   C24       1.0  0.31182  0.22388  0.27789  1.0000
  C   C25       1.0  0.28293  0.22485  0.29912  1.0000
  H   H16       1.0  0.20923  0.21525  0.25467  1.0000
  H   H17       1.0  0.26041  0.21327  0.21738  1.0000
  H   H18       1.0  0.34041  0.22652  0.28437  1.0000
  H   H19       1.0  0.28928  0.22832  0.32172  1.0000
  H   H20       1.0  0.11110  0.00611  0.03510  1.0000
  C   C26       1.0  0.06552  0.20858  0.42066  1.0000
  C   C27       1.0  0.06347  0.22598  0.41131  1.0000
  H   H21       1.0  0.25628  0.03830  0.05138  1.0000
  H   H22       1.0  0.08882  0.23348  0.40982  1.0000
  C   C28       1.0  0.48540  0.07493  0.38707  1.0000
  C   C29       1.0  0.40190  0.26918  0.03908  1.0000
  C   C30       1.0  0.48121  0.06437  0.36231  1.0000
  H   H23       1.0  0.18842  0.14391  0.44324  1.0000
  H   H24       1.0  0.45390  0.05941  0.35674  1.0000
  C   C31       1.0  0.30223  0.04721  0.27840  1.0000
  C   C32       1.0  0.26646  0.05079  0.28975  1.0000
  C   C33       1.0  0.23493  0.05076  0.27087  1.0000
  C   C34       1.0  0.23896  0.04739  0.24050  1.0000
  C   C35       1.0  0.27470  0.04370  0.22922  1.0000
  C   C36       1.0  0.30618  0.04355  0.24814  1.0000
  H   H25       1.0  0.26308  0.05364  0.31302  1.0000
  H   H26       1.0  0.20733  0.05363  0.27975  1.0000
  H   H27       1.0  0.27809  0.04094  0.20593  1.0000
  H   H28       1.0  0.33378  0.04071  0.23924  1.0000
  C   C37       1.0  0.26993  0.11806  0.40515  1.0000
  C   C38       1.0  0.24159  0.13070  0.40028  1.0000
  C   C39       1.0  0.24882  0.14842  0.40447  1.0000
  C   C40       1.0  0.28434  0.15352  0.41397  1.0000
  C   C41       1.0  0.31298  0.14093  0.41790  1.0000
  C   C42       1.0  0.30588  0.12324  0.41334  1.0000
  H   H29       1.0  0.21379  0.12671  0.39380  1.0000
  H   H30       1.0  0.22669  0.15804  0.40110  1.0000
  H   H31       1.0  0.34059  0.14481  0.42508  1.0000
  H   H32       1.0  0.32788  0.11356  0.41712  1.0000
  H   H33       1.0  0.24489  0.01411  0.30535  1.0000
  C   C43       1.0  0.12141  0.20079  0.27490  1.0000
  N   N1        1.0  0.08627  0.21748  0.31636  1.0000
  H   H34       1.0  0.13490  0.24061  0.34482  1.0000
  C   C44       1.0  0.03215  0.19913  0.42285  1.0000
  C   C45       1.0  0.10904  0.21829  0.28825  1.0000
  C   C46       1.0  0.10775  0.20800  0.34076  1.0000
  C   C47       1.0  0.11315  0.24734  0.33113  1.0000
  H   H35       1.0  0.30807  0.07112  0.05272  1.0000
  H   H36       1.0  0.46241  0.27047  0.03990  1.0000
  C   C48       1.0  0.10470  0.18794  0.34225  1.0000
  H   H37       1.0  0.09818  0.04082  0.08796  1.0000
  S   S31       1.0  0.21274  0.01085  0.07941  1.0000
  H   H38       1.0  0.36504  0.07199  0.02371  1.0000
  H   H39       1.0  0.02723  0.24713  0.39625  1.0000
  H   H40       1.0  0.09346  0.22585  0.27077  1.0000
  H   H41       1.0  0.13562  0.22531  0.29178  1.0000
  H   H42       1.0  0.13808  0.21113  0.33971  1.0000
  C   C49       1.0  0.04878  0.20953  0.30965  1.0000
  H   H43       1.0  0.16245  0.13123  0.46799  1.0000
  H   H44       1.0  0.05719  0.27872  0.00613  1.0000
  H   H45       1.0  0.50658  0.15988  0.19467  1.0000
  C   C50       1.0  0.17676  0.14384  0.46608  1.0000
  H   H46       1.0  0.05168  0.19606  0.30155  1.0000
  S   S32       1.0  0.33584  0.01236  0.43417  1.0000
  H   H47       1.0  0.22872  0.18066  0.29285  1.0000
  H   H48       1.0  0.24568  0.18693  0.32817  1.0000
  C   C51       1.0  0.06573  0.01532  0.00681  1.0000
  H   H49       1.0  0.13639  0.20339  0.25377  1.0000
  H   H50       1.0  0.18414  0.23011  0.04188  1.0000
  H   H51       1.0  0.23038  0.16570  0.45968  1.0000
  H   H52       1.0  0.29542  0.02206  0.33605  1.0000
  H   H53       1.0  0.44479  0.25255  0.02122  1.0000
  C   C52       1.0  0.16501  0.23555  0.02445  1.0000
  H   H54       1.0  0.26393  0.01342  0.39101  1.0000
  H   H55       1.0  0.49233  0.23401  0.08988  1.0000
  C   C53       1.0  0.14572  0.15808  0.46700  1.0000
  H   H56       1.0  0.23908  0.02041  0.35870  1.0000
  H   H57       1.0  0.37689  0.22785  0.04004  1.0000
  H   H58       1.0  0.03380  0.20417  0.35643  1.0000
  H   H59       1.0  0.50921  0.05177  0.32582  1.0000
  C   C54       1.0  0.50201  0.15551  0.17164  1.0000
  H   H60       1.0  0.32449  0.01066  0.29517  1.0000
  N   N2        1.0  0.44729  0.24931  0.06934  1.0000
  C   C55       1.0  0.44471  0.26160  0.09526  1.0000
  H   H61       1.0  0.26839  0.18088  0.49764  1.0000
  H   H62       1.0  0.40831  0.21084  0.05130  1.0000
  C   C56       1.0  0.41823  0.23546  0.07346  1.0000
  C   C57       1.0  0.45737  0.25416  0.12570  1.0000
  H   H63       1.0  0.10435  0.25926  0.34314  1.0000
  H   H64       1.0  0.46174  0.27341  0.09113  1.0000
  H   H65       1.0  0.41528  0.26642  0.09833  1.0000
  H   H66       1.0  0.07649  0.05539  0.03984  1.0000
  H   H67       1.0  0.08449  0.18400  0.35972  1.0000
  C   C58       1.0  0.48651  0.24152  0.06911  1.0000
  H   H68       1.0  0.29701  0.02736  0.08938  1.0000
  H   H69       1.0  0.42768  0.22597  0.09074  1.0000
  H   H70       1.0  0.39171  0.24129  0.08222  1.0000
  C   C59       1.0  0.23856  0.13219  0.48290  1.0000
  H   H71       1.0  0.44753  0.26302  0.14346  1.0000
  C   C60       1.0  0.51255  0.06009  0.34478  1.0000
  N   N3        1.0  0.07253  0.02002  0.06381  1.0000
  H   H72       1.0  0.09821  0.21268  0.36273  1.0000
  H   H73       1.0  0.47554  0.16195  0.16374  1.0000
  H   H74       1.0  0.06260  0.23618  0.34710  1.0000
  H   H75       1.0  0.20459  0.17390  0.49011  1.0000
  H   H76       1.0  0.49233  0.23436  0.02178  1.0000
  N   N4        1.0  0.26277  0.10706  0.21458  1.0000
  C   C61       1.0  0.24408  0.12411  0.20544  1.0000
  C   C62       1.0  0.23194  0.09497  0.22394  1.0000
  C   C63       1.0  0.28286  0.09998  0.18769  1.0000
  C   C64       1.0  0.29012  0.11059  0.23927  1.0000
  C   C65       1.0  0.27037  0.13829  0.19336  1.0000
  C   C66       1.0  0.21042  0.09993  0.25231  1.0000
  C   C67       1.0  0.29293  0.08041  0.18762  1.0000
  C   C68       1.0  0.30788  0.09471  0.25570  1.0000
  H   H77       1.0  0.22237  0.12196  0.18801  1.0000
  H   H78       1.0  0.22889  0.13013  0.22430  1.0000
  H   H79       1.0  0.24256  0.08157  0.22778  1.0000
  H   H80       1.0  0.21093  0.09372  0.20582  1.0000
  H   H81       1.0  0.26537  0.10220  0.16748  1.0000
  H   H82       1.0  0.30950  0.10697  0.18362  1.0000
  H   H83       1.0  0.31416  0.11820  0.23072  1.0000
  H   H84       1.0  0.27724  0.11925  0.25620  1.0000
  H   H85       1.0  0.25307  0.14969  0.18577  1.0000
  H   H86       1.0  0.28974  0.14304  0.21062  1.0000
  H   H87       1.0  0.28662  0.13392  0.17385  1.0000
  H   H88       1.0  0.19351  0.11207  0.24943  1.0000
  H   H89       1.0  0.19028  0.08943  0.25751  1.0000
  H   H90       1.0  0.22932  0.10088  0.27176  1.0000
  H   H91       1.0  0.26742  0.07247  0.18514  1.0000
  H   H92       1.0  0.30903  0.07605  0.20731  1.0000
  H   H93       1.0  0.31072  0.07759  0.16799  1.0000
  H   H94       1.0  0.33538  0.09099  0.24585  1.0000
  H   H95       1.0  0.28996  0.08316  0.25654  1.0000
  H   H96       1.0  0.31269  0.09801  0.27931  1.0000
  N   N5        1.0  0.31911  0.17138  0.32097  1.0000
  C   C69       1.0  0.35546  0.16834  0.30464  1.0000
  C   C70       1.0  0.31042  0.15533  0.33898  1.0000
  C   C71       1.0  0.32192  0.18651  0.34182  1.0000
  C   C72       1.0  0.28851  0.17538  0.29862  1.0000
  C   C73       1.0  0.37005  0.18404  0.28666  1.0000
  C   C74       1.0  0.35608  0.18619  0.36296  1.0000
  C   C75       1.0  0.24826  0.17676  0.31108  1.0000
  H   H97       1.0  0.37812  0.16382  0.32010  1.0000
  H   H98       1.0  0.35257  0.15768  0.28841  1.0000
  H   H99       1.0  0.28570  0.15775  0.35338  1.0000
  H   H100      1.0  0.33387  0.15195  0.35444  1.0000
  H   H101      1.0  0.32226  0.19908  0.32944  1.0000
  H   H102      1.0  0.29668  0.18740  0.35627  1.0000
  H   H103      1.0  0.29361  0.18799  0.28718  1.0000
  H   H104      1.0  0.28857  0.16559  0.28066  1.0000
  H   H105      1.0  0.37382  0.19577  0.30029  1.0000
  H   H106      1.0  0.39799  0.18061  0.27727  1.0000
  H   H107      1.0  0.35706  0.17442  0.37735  1.0000
  H   H108      1.0  0.35364  0.19751  0.37800  1.0000
  H   H109      1.0  0.38303  0.18746  0.35098  1.0000
  H   H110      1.0  0.23842  0.16421  0.32024  1.0000
  H   H111      1.0  0.49750  0.14129  0.17133  1.0000
  H   H112      1.0  0.36648  0.05530  0.05191  1.0000
  H   H113      1.0  0.13428  0.15993  0.48956  1.0000
  C   C76       1.0  0.17809  0.29298  0.01966  1.0000
  H   H114      1.0  0.26005  0.06889  0.04497  1.0000
  H   H115      1.0  0.15454  0.29396  0.03555  1.0000
  H   H116      1.0  0.35147  0.18733  0.26756  1.0000
  N   N6        1.0  0.20794  0.14560  0.48850  1.0000
  C   C77       1.0  0.30469  0.01831  0.48980  1.0000
  H   H117      1.0  0.27880  0.14022  0.30593  1.0000
  C   C78       1.0  0.30286  0.13865  0.32137  1.0000
  H   H118      1.0  0.32815  0.13404  0.30931  1.0000
  H   H119      1.0  0.13048  0.02793  0.06761  1.0000
  H   H120      1.0  0.26051  0.13249  0.50048  1.0000
  H   H121      1.0  0.13215  0.18230  0.34959  1.0000
  C   C79       1.0  0.22469  0.16336  0.48363  1.0000
  C   C80       1.0  0.28803  0.27366  0.50052  1.0000
  H   H122      1.0  0.39907  0.27547  0.01689  1.0000
  H   H123      1.0  0.18510  0.30642  0.01253  1.0000
  H   H124      1.0  0.16857  0.22702  0.00495  1.0000
  H   H125      1.0  0.25219  0.10517  0.47432  1.0000
  H   H126      1.0  0.06728  0.01668  0.11149  1.0000
  H   H127      1.0  0.03456  0.21675  0.29108  1.0000
  H   H128      1.0  0.49872  0.02482  0.37669  1.0000
  H   H129      1.0  0.48008  0.21647  0.04676  1.0000
  H   H130      1.0  0.29553  0.12811  0.33733  1.0000
  C   C81       1.0  0.07466  0.00885  0.09157  1.0000
  C   C82       1.0  0.21104  0.30470  0.48299  1.0000
  H   H131      1.0  0.37866  0.25986  0.04121  1.0000
  N   N7        1.0  0.29578  0.05048  0.02175  1.0000
  H   H132      1.0  0.15602  0.17067  0.45822  1.0000
  H   H133      1.0  0.20785  0.29047  0.48611  1.0000
  H   H134      1.0  0.09746  0.19240  0.26948  1.0000
  C   C83       1.0  0.07846  0.23598  0.32592  1.0000
  H   H135      1.0  0.03337  0.18568  0.43017  1.0000
  C   C84       1.0  0.18754  0.02318  0.02479  1.0000
  C   C85       1.0  0.27014  0.25850  0.49113  1.0000
  H   H136      1.0  0.06018  0.24301  0.30944  1.0000
  H   H137      1.0  0.12208  0.15438  0.45238  1.0000
  H   H138      1.0  0.25337  0.13530  0.46196  1.0000
  H   H139      1.0  0.30940  0.04955  0.08482  1.0000
  H   H140      1.0  0.38970  0.01019  0.30285  1.0000
  C   C86       1.0  0.03401  0.02856  0.06318  1.0000
  H   H141      1.0  0.33869  0.03202  0.06969  1.0000
  H   H142      1.0  0.20337  0.28751  0.03110  1.0000
  H   H143      1.0  0.14191  0.19384  0.28956  1.0000
  H   H144      1.0  0.19671  0.30808  0.46174  1.0000
  H   H145      1.0  0.28965  0.02354  0.03610  1.0000
  C   C87       1.0  0.11263  0.26706  0.01430  1.0000
  H   H146      1.0  0.18412  0.03572  0.03507  1.0000
  C   C88       1.0  0.26151  0.16691  0.50043  1.0000
  H   H147      1.0  0.19207  0.32902  0.50032  1.0000
  C   C89       1.0  0.02186  0.04879  0.14403  1.0000
  H   H148      1.0  0.29893  0.03150  0.48225  1.0000
  H   H149      1.0  0.09787  0.18158  0.32118  1.0000
  H   H150      1.0  0.29174  0.28428  0.48493  1.0000
  C   C90       1.0  0.08032  0.00868  0.03734  1.0000
  H   H151      1.0  0.48848  0.25333  0.12743  1.0000
  H   H152      1.0  0.31884  0.01209  0.36655  1.0000
  H   H153      1.0  0.51380  0.02794  0.42852  1.0000
  H   H154      1.0  0.44561  0.24121  0.13047  1.0000
  C   C91       1.0  0.10181  0.03383  0.06668  1.0000
  C   C92       1.0  0.44089  0.26015  0.04163  1.0000
  C   C93       1.0  0.10307  0.04776  0.04194  1.0000
  H   H155      1.0  0.09585  0.25506  0.01188  1.0000
  C   C94       1.0  0.28829  0.06826  0.03449  1.0000
  H   H156      1.0  0.13443  0.00897  0.10490  1.0000
  H   H157      1.0  0.42396  0.22689  0.02588  1.0000
  H   H158      1.0  0.39815  0.27960  0.05565  1.0000
  H   H159      1.0  0.42291  0.01746  0.48811  1.0000
  C   C95       1.0  0.22705  0.11304  0.48080  1.0000
  C   C96       1.0  0.33564  0.04811  0.01087  1.0000
  C   C97       1.0  0.02154  0.07376  0.09862  1.0000
  H   H160      1.0  0.20588  0.11082  0.46327  1.0000
  C   C98       1.0  0.17645  0.25441  0.01738  1.0000
  C   C99       1.0  0.29596  0.01006  0.35013  1.0000
  C   C100      1.0  0.30961  0.03681  0.07361  1.0000
  H   H161      1.0  0.50769  0.25203  0.06828  1.0000
  C   C101      1.0  0.02850  0.23370  0.40368  1.0000
  H   H162      1.0  0.03039  0.03706  0.08275  1.0000
  H   H163      1.0  0.34373  0.03404  0.01083  1.0000
  C   C102      1.0  0.36672  0.05774  0.02775  1.0000
  H   H164      1.0  0.11777  0.26839  0.03854  1.0000
  H   H165      1.0  0.13600  0.23474  0.03312  1.0000
  H   H166      1.0  0.02205  0.03919  0.16175  1.0000
  C   C103      1.0  0.28988  0.08366  0.01232  1.0000
  C   C104      1.0  0.02074  0.20911  0.33564  1.0000
  H   H167      1.0  0.39458  0.05326  0.01949  1.0000
  H   H168      1.0  0.02136  0.08342  0.08099  1.0000
  H   H169      1.0  0.37091  0.01409  0.33866  1.0000
  H   H170      1.0  0.11171  0.04214  0.02049  1.0000
  H   H171      1.0  0.08926  0.29339  0.02164  1.0000
  H   H172      1.0  0.05927  0.02938  0.00512  1.0000
  C   C105      1.0  0.32280  0.00655  0.47096  1.0000
  C   C106      1.0  0.08698  0.28276  0.00531  1.0000
  H   H173      1.0  0.20470  0.25366  0.00698  1.0000
  H   H174      1.0  0.23940  0.05030  0.00329  1.0000
  Fe  Fe17      1.0  0.32986  0.28797  0.61038  1.0000
  S   S33       1.0  0.34658  0.31179  0.58499  1.0000
  S   S34       1.0  0.31238  0.26300  0.58755  1.0000
  Fe  Fe18      1.0  0.34128  0.30557  0.67091  1.0000
  S   S35       1.0  0.35938  0.33049  0.64906  1.0000
  S   S36       1.0  0.34307  0.30669  0.72138  1.0000
  Fe  Fe19      1.0  0.31137  0.32644  0.61801  1.0000
  H   H175      1.0  0.03618  0.28700  0.86130  1.0000
  Fe  Fe20      1.0  0.39341  0.31349  0.61874  1.0000
  S   S37       1.0  0.45174  0.32115  0.60336  1.0000
  S   S38       1.0  0.29117  0.30242  0.64139  1.0000
  S   S39       1.0  0.37886  0.28870  0.64240  1.0000
  Fe  Fe21      1.0  0.23757  0.28807  0.92593  1.0000
  S   S40       1.0  0.21876  0.31281  0.94774  1.0000
  S   S41       1.0  0.25848  0.26274  0.94801  1.0000
  Fe  Fe22      1.0  0.21629  0.30228  0.86351  1.0000
  H   H176      1.0  0.09140  0.28812  0.98284  1.0000
  S   S42       1.0  0.21187  0.29515  0.81483  1.0000
  Fe  Fe23      1.0  0.24675  0.32660  0.90968  1.0000
  H   H177      1.0  0.25283  0.03093  0.96046  1.0000
  Fe  Fe24      1.0  0.16836  0.31186  0.91726  1.0000
  S   S43       1.0  0.11058  0.31622  0.93783  1.0000
  S   S44       1.0  0.26955  0.30182  0.88996  1.0000
  S   S45       1.0  0.18563  0.28634  0.89762  1.0000
  C   C107      1.0  0.06953  0.29930  0.89486  1.0000
  C   C108      1.0  0.06951  0.30703  0.92274  1.0000
  H   H178      1.0  0.31384  0.08252  0.99681  1.0000
  H   H179      1.0  0.09524  0.29857  0.88217  1.0000
  H   H180      1.0  0.31477  0.28695  0.53673  1.0000
  C   C109      1.0  0.30575  0.30366  0.74667  1.0000
  C   C110      1.0  0.31105  0.30824  0.77644  1.0000
  C   C111      1.0  0.28218  0.30618  0.79737  1.0000
  C   C112      1.0  0.24795  0.29913  0.78884  1.0000
  C   C113      1.0  0.24259  0.29457  0.75907  1.0000
  C   C114      1.0  0.27129  0.29688  0.73801  1.0000
  H   H181      1.0  0.33764  0.31349  0.78332  1.0000
  H   H182      1.0  0.28665  0.30979  0.82020  1.0000
  H   H183      1.0  0.21618  0.28908  0.75231  1.0000
  H   H184      1.0  0.26692  0.29325  0.71519  1.0000
  C   C115      1.0  0.49489  0.31236  0.61722  1.0000
  H   H185      1.0  0.16484  0.31600  0.57028  1.0000
  C   C116      1.0  0.49608  0.29932  0.63909  1.0000
  H   H186      1.0  0.25117  0.33325  0.66978  1.0000
  H   H187      1.0  0.47022  0.29476  0.64869  1.0000
  H   H188      1.0  0.17274  0.25370  0.95848  1.0000
  H   H189      1.0  0.47161  0.24620  0.61023  1.0000
  H   H190      1.0  0.39408  0.26259  0.59523  1.0000
  H   H191      1.0  0.41254  0.24207  0.58420  1.0000
  H   H192      1.0  0.33818  0.05248  0.98734  1.0000
  C   C117      1.0  0.27935  0.24628  0.54074  1.0000
  C   C118      1.0  0.29639  0.26161  0.55029  1.0000
  H   H193      1.0  0.27593  0.23558  0.55623  1.0000
  C   C119      1.0  0.44295  0.28293  0.56501  1.0000
  C   C120      1.0  0.03587  0.30779  0.93896  1.0000
  H   H194      1.0  0.04064  0.00796  0.99999  1.0000
  H   H195      1.0  0.26794  0.30924  0.52475  1.0000
  C   C121      1.0  0.41232  0.00913  0.53344  1.0000
  H   H196      1.0  0.43252  0.24999  0.63387  1.0000
  C   C122      1.0  0.20858  0.29440  0.54736  1.0000
  H   H197      1.0  0.41842  0.28965  0.57541  1.0000
  H   H198      1.0  0.03567  0.31352  0.96073  1.0000
  H   H199      1.0  0.35451  0.01216  0.57589  1.0000
  C   C123      1.0  0.48794  0.01648  0.56285  1.0000
  H   H200      1.0  0.20390  0.33200  0.68213  1.0000
  C   C124      1.0  0.17908  0.02131  0.99454  1.0000
  H   H201      1.0  0.26320  0.31766  0.56089  1.0000
  H   H202      1.0  0.41547  0.02325  0.53784  1.0000
  H   H203      1.0  0.46591  0.28441  0.58125  1.0000
  H   H204      1.0  0.12575  0.27754  0.94031  1.0000
  C   C125      1.0  0.30103  0.27523  0.52990  1.0000
  C   C126      1.0  0.26620  0.24473  0.51136  1.0000
  H   H205      1.0  0.11956  0.25649  0.92559  1.0000
  H   H206      1.0  0.13359  0.24244  0.97325  1.0000
  C   C127      1.0  0.16818  0.28227  0.99211  1.0000
  H   H207      1.0  0.21825  0.14213  0.53557  1.0000
  H   H208      1.0  0.41098  0.26956  0.51567  1.0000
  N   N8        1.0  0.43421  0.26411  0.55948  1.0000
  H   H209      1.0  0.45743  0.26822  0.62052  1.0000
  C   C128      1.0  0.40225  0.26396  0.53738  1.0000
  H   H210      1.0  0.46880  0.25614  0.52264  1.0000
  H   H211      1.0  0.08750  0.01253  0.98977  1.0000
  H   H212      1.0  0.25122  0.33105  0.72270  1.0000
  H   H213      1.0  0.36925  0.24080  0.54901  1.0000
  H   H214      1.0  0.27786  0.02189  0.53223  1.0000
  C   C129      1.0  0.44756  0.25522  0.61424  1.0000
  H   H215      1.0  0.47904  0.02543  0.54462  1.0000
  H   H216      1.0  0.37850  0.27238  0.54510  1.0000
  H   H217      1.0  0.36614  0.24746  0.51131  1.0000
  H   H218      1.0  0.20737  0.29698  0.59640  1.0000
  H   H219      1.0  0.19477  0.28011  0.97960  1.0000
  C   C130      1.0  0.27398  0.26009  0.98536  1.0000
  H   H220      1.0  0.25332  0.29197  0.58128  1.0000
  S   S46       1.0  0.19498  0.32791  0.88103  1.0000
  H   H221      1.0  0.17925  0.28967  0.54556  1.0000
  H   H222      1.0  0.16907  0.03246  0.98176  1.0000
  N   N9        1.0  0.29492  0.24944  0.83976  1.0000
  C   C131      1.0  0.31836  0.26313  0.82465  1.0000
  C   C132      1.0  0.27725  0.23895  0.81551  1.0000
  C   C133      1.0  0.32116  0.23788  0.85780  1.0000
  C   C134      1.0  0.26641  0.25837  0.85941  1.0000
  C   C135      1.0  0.34320  0.27416  0.84495  1.0000
  C   C136      1.0  0.25167  0.24935  0.79375  1.0000
  C   C137      1.0  0.30330  0.22278  0.87511  1.0000
  C   C138      1.0  0.23047  0.24822  0.86721  1.0000
  H   H223      1.0  0.33726  0.25717  0.80773  1.0000
  H   H224      1.0  0.30013  0.27256  0.81224  1.0000
  H   H225      1.0  0.26041  0.22812  0.82429  1.0000
  H   H226      1.0  0.29946  0.23240  0.80203  1.0000
  H   H227      1.0  0.34353  0.23222  0.84338  1.0000
  H   H228      1.0  0.33587  0.24550  0.87498  1.0000
  H   H229      1.0  0.27966  0.26222  0.88068  1.0000
  H   H230      1.0  0.25643  0.27076  0.84881  1.0000
  H   H231      1.0  0.32776  0.27916  0.86441  1.0000
  H   H232      1.0  0.36861  0.26675  0.85240  1.0000
  H   H233      1.0  0.35319  0.28563  0.83219  1.0000
  H   H234      1.0  0.26830  0.25747  0.77829  1.0000
  H   H235      1.0  0.23575  0.24016  0.77990  1.0000
  H   H236      1.0  0.23088  0.25773  0.80527  1.0000
  H   H237      1.0  0.28505  0.22768  0.89322  1.0000
  H   H238      1.0  0.32603  0.21494  0.88604  1.0000
  H   H239      1.0  0.28785  0.21378  0.86072  1.0000
  H   H240      1.0  0.22325  0.25056  0.89077  1.0000
  H   H241      1.0  0.23244  0.23397  0.86489  1.0000
  H   H242      1.0  0.20611  0.25340  0.85420  1.0000
  C   C139      1.0  0.38598  0.24599  0.53028  1.0000
  H   H243      1.0  0.40797  0.23640  0.52381  1.0000
  C   C140      1.0  0.42026  0.25584  0.58776  1.0000
  H   H244      1.0  0.47430  0.28686  0.52310  1.0000
  C   C141      1.0  0.45373  0.29372  0.53736  1.0000
  H   H245      1.0  0.17028  0.12475  0.54926  1.0000
  C   C142      1.0  0.03600  0.29276  0.88306  1.0000
  H   H246      1.0  0.27403  0.05801  0.97833  1.0000
  C   C143      1.0  0.29278  0.01282  0.51815  1.0000
  H   H247      1.0  0.15110  0.29089  0.97743  1.0000
  N   N10       1.0  0.14961  0.26511  0.99823  1.0000
  C   C144      1.0  0.22278  0.28981  0.57893  1.0000
  H   H248      1.0  0.42016  0.01904  0.58947  1.0000
  C   C145      1.0  0.25104  0.31848  0.53820  1.0000
  H   H249      1.0  0.25913  0.16417  0.52450  1.0000
  H   H250      1.0  0.22550  0.28611  0.53229  1.0000
  H   H251      1.0  0.27047  0.28722  0.99645  1.0000
  C   C146      1.0  0.19251  0.31528  0.50810  1.0000
  H   H252      1.0  0.08845  0.26374  0.95382  1.0000
  C   C147      1.0  0.18825  0.32378  0.56094  1.0000
  H   H253      1.0  0.42846  0.29750  0.52417  1.0000
  C   C148      1.0  0.14490  0.25564  0.96940  1.0000
  H   H254      1.0  0.30014  0.02720  0.97257  1.0000
  H   H255      1.0  0.21867  0.27570  0.58319  1.0000
  C   C149      1.0  0.11809  0.26409  0.94635  1.0000
  H   H256      1.0  0.20616  0.32686  0.58034  1.0000
  H   H257      1.0  0.50736  0.26372  0.58179  1.0000
  H   H258      1.0  0.13603  0.13686  0.52885  1.0000
  C   C150      1.0  0.27137  0.03041  0.98034  1.0000
  H   H259      1.0  0.16248  0.31145  0.50912  1.0000
  H   H260      1.0  0.46676  0.30603  0.54449  1.0000
  N   N11       1.0  0.21033  0.31337  0.53838  1.0000
  C   C151      1.0  0.50666  0.25831  0.55924  1.0000
  H   H261      1.0  0.26331  0.08488  0.99947  1.0000
  H   H262      1.0  0.38130  0.00770  0.53214  1.0000
  H   H263      1.0  0.28010  0.23223  0.98186  1.0000
  H   H264      1.0  0.36366  0.00864  0.61436  1.0000
  C   C152      1.0  0.46720  0.25397  0.54706  1.0000
  H   H265      1.0  0.26090  0.01963  0.99436  1.0000
  C   C153      1.0  0.19423  0.14443  0.52008  1.0000
  H   H266      1.0  0.16286  0.11970  0.51149  1.0000
  C   C154      1.0  0.25970  0.33689  0.52675  1.0000
  H   H267      1.0  0.18142  0.15713  0.52676  1.0000
  H   H268      1.0  0.46312  0.23974  0.55026  1.0000
  H   H269      1.0  0.48159  0.02236  0.58462  1.0000
  H   H270      1.0  0.29065  0.33854  0.52692  1.0000
  C   C155      1.0  0.28238  0.24325  0.99638  1.0000
  C   C156      1.0  0.26906  0.04816  0.99608  1.0000
  H   H271      1.0  0.25258  0.23297  0.50448  1.0000
  C   C157      1.0  0.16431  0.13061  0.52708  1.0000
  H   H272      1.0  0.14420  0.33831  0.53629  1.0000
  H   H273      1.0  0.21803  0.10774  0.50250  1.0000
  Fe  Fe25      1.0  0.20348  0.55006  0.41998  1.0000
  S   S47       1.0  0.15292  0.56626  0.43186  1.0000
  S   S48       1.0  0.22159  0.52585  0.44640  1.0000
  Fe  Fe26      1.0  0.21949  0.57229  0.36344  1.0000
  S   S49       1.0  0.16948  0.58973  0.37169  1.0000
  S   S50       1.0  0.25855  0.58142  0.32674  1.0000
  Fe  Fe27      1.0  0.18858  0.58903  0.41906  1.0000
  S   S51       1.0  0.18905  0.61364  0.44582  1.0000
  Fe  Fe28      1.0  0.13919  0.56526  0.38338  1.0000
  S   S52       1.0  0.08374  0.55731  0.36408  1.0000
  S   S53       1.0  0.24040  0.57296  0.41053  1.0000
  S   S54       1.0  0.18791  0.54764  0.37175  1.0000
  Fe  Fe29      1.0  0.38089  0.55101  0.13239  1.0000
  S   S55       1.0  0.33315  0.53258  0.13630  1.0000
  S   S56       1.0  0.43794  0.53781  0.13707  1.0000
  Fe  Fe30      1.0  0.32814  0.58151  0.11941  1.0000
  S   S57       1.0  0.27638  0.56515  0.12145  1.0000
  S   S58       1.0  0.32979  0.61079  0.11238  1.0000
  Fe  Fe31      1.0  0.30355  0.55331  0.16222  1.0000
  S   S59       1.0  0.26790  0.54470  0.20125  1.0000
  Fe  Fe32      1.0  0.31031  0.54563  0.09526  1.0000
  S   S60       1.0  0.28553  0.52666  0.06246  1.0000
  S   S61       1.0  0.35334  0.57082  0.16196  1.0000
  S   S62       1.0  0.36001  0.56296  0.08973  1.0000
  C   C158      1.0  0.28780  0.62319  0.11021  1.0000
  C   C159      1.0  0.25285  0.61525  0.10988  1.0000
  C   C160      1.0  0.21976  0.62546  0.11017  1.0000
  C   C161      1.0  0.22141  0.64365  0.11087  1.0000
  C   C162      1.0  0.25633  0.65165  0.10998  1.0000
  C   C163      1.0  0.28945  0.64142  0.10951  1.0000
  H   H274      1.0  0.25133  0.60124  0.10942  1.0000
  H   H275      1.0  0.19275  0.61923  0.11000  1.0000
  C   C164      1.0  0.06438  0.53484  0.45158  1.0000
  H   H276      1.0  0.31650  0.64761  0.10897  1.0000
  H   H277      1.0  0.30271  0.40143  0.04319  1.0000
  C   C165      1.0  0.47840  0.54960  0.12848  1.0000
  C   C166      1.0  0.47675  0.56756  0.12339  1.0000
  H   H278      1.0  0.25544  0.66887  0.44972  1.0000
  H   H279      1.0  0.44995  0.57443  0.12366  1.0000
  C   C167      1.0  0.04098  0.56345  0.38084  1.0000
  C   C168      1.0  0.03969  0.57492  0.40465  1.0000
  H   H280      1.0  0.22291  0.64857  0.27745  1.0000
  H   H281      1.0  0.06531  0.58054  0.41280  1.0000
  H   H282      1.0  0.27937  0.63580  0.21169  1.0000
  C   C169      1.0  0.26101  0.57099  0.29205  1.0000
  C   C170      1.0  0.28724  0.57666  0.27095  1.0000
  C   C171      1.0  0.29004  0.56862  0.24313  1.0000
  C   C172      1.0  0.26637  0.55493  0.23614  1.0000
  C   C173      1.0  0.23989  0.54941  0.25711  1.0000
  C   C174      1.0  0.23720  0.55739  0.28495  1.0000
  H   H283      1.0  0.30582  0.58714  0.27632  1.0000
  H   H284      1.0  0.31067  0.57290  0.22722  1.0000
  H   H285      1.0  0.22148  0.53882  0.25186  1.0000
  H   H286      1.0  0.21687  0.55292  0.30099  1.0000
  C   C175      1.0  0.22903  0.62664  0.44218  1.0000
  C   C176      1.0  0.22647  0.64440  0.44872  1.0000
  C   C177      1.0  0.25767  0.65514  0.44480  1.0000
  C   C178      1.0  0.29193  0.64800  0.43538  1.0000
  C   C179      1.0  0.29476  0.63015  0.42959  1.0000
  C   C180      1.0  0.26325  0.61957  0.43247  1.0000
  H   H287      1.0  0.20013  0.64995  0.45638  1.0000
  H   H288      1.0  0.48396  0.64264  0.35347  1.0000
  H   H289      1.0  0.32125  0.62456  0.42240  1.0000
  H   H290      1.0  0.26564  0.60594  0.42741  1.0000
  H   H291      1.0  0.27885  0.49646  0.02646  1.0000
  H   H292      1.0  0.12142  0.50636  0.38362  1.0000
  H   H293      1.0  0.42945  0.66342  0.45179  1.0000
  C   C181      1.0  0.32434  0.40690  0.02815  1.0000
  C   C182      1.0  0.35967  0.49565  0.08411  1.0000
  C   C183      1.0  0.40500  0.49966  0.02716  1.0000
  H   H294      1.0  0.13763  0.52411  0.44241  1.0000
  C   C184      1.0  0.45824  0.62597  0.38506  1.0000
  H   H295      1.0  0.31925  0.66566  0.27467  1.0000
  C   C185      1.0  0.14355  0.64056  0.38252  1.0000
  H   H296      1.0  0.12101  0.56985  0.20023  1.0000
  S   S63       1.0  0.17918  0.65578  0.11315  1.0000
  H   H297      1.0  0.22259  0.61052  0.25970  1.0000
  C   C186      1.0  0.31695  0.65455  0.18750  1.0000
  C   C187      1.0  0.47125  0.64426  0.37576  1.0000
  S   S64       1.0  0.33205  0.66083  0.43162  1.0000
  C   C188      1.0  0.30721  0.63663  0.20118  1.0000
  H   H298      1.0  0.13965  0.65745  0.34379  1.0000
  H   H299      1.0  0.20835  0.59780  0.15312  1.0000
  C   C189      1.0  0.20798  0.65858  0.32091  1.0000
  C   C190      1.0  0.10955  0.49948  0.47824  1.0000
  H   H300      1.0  0.27774  0.43714  0.01934  1.0000
  C   C191      1.0  0.16962  0.67185  0.03033  1.0000
  H   H301      1.0  0.12590  0.59952  0.20734  1.0000
  H   H302      1.0  0.50882  0.59073  0.11557  1.0000
  H   H303      1.0  0.21731  0.62072  0.22479  1.0000
  H   H304      1.0  0.15878  0.62522  0.16191  1.0000
  H   H305      1.0  0.32636  0.42084  0.03415  1.0000
  H   H306      1.0  0.11645  0.62671  0.18254  1.0000
  H   H307      1.0  0.32634  0.55663  0.45008  1.0000
  H   H308      1.0  0.05668  0.52620  0.39300  1.0000
  H   H309      1.0  0.21536  0.61501  0.17773  1.0000
  H   H310      1.0  0.13376  0.59645  0.16889  1.0000
  H   H311      1.0  0.25784  0.66566  0.10965  1.0000
  H   H312      1.0  0.27431  0.60034  0.16774  1.0000
  H   H313      1.0  0.49570  0.64771  0.38987  1.0000
  N   N12       1.0  0.44182  0.65859  0.37507  1.0000
  H   H314      1.0  0.17697  0.61913  0.24886  1.0000
  N   N13       1.0  0.19888  0.65192  0.35152  1.0000
  H   H315      1.0  0.42783  0.65025  0.33063  1.0000
  H   H316      1.0  0.14923  0.55065  0.19570  1.0000
  H   H317      1.0  0.21989  0.63310  0.38369  1.0000
  H   H318      1.0  0.43671  0.62606  0.40265  1.0000
  C   C192      1.0  0.08578  0.54030  0.47952  1.0000
  H   H319      1.0  0.44971  0.52758  0.07467  1.0000
  H   H320      1.0  0.27725  0.64946  0.36624  1.0000
  H   H321      1.0  0.15999  0.62920  0.20138  1.0000
  H   H322      1.0  0.36428  0.64173  0.33651  1.0000
  H   H323      1.0  0.15475  0.56288  0.22852  1.0000
  H   H324      1.0  0.31285  0.65370  0.16317  1.0000
  H   H325      1.0  0.17322  0.58136  0.49282  1.0000
  C   C193      1.0  0.44249  0.49183  0.07104  1.0000
  H   H326      1.0  0.25820  0.58001  0.18082  1.0000
  H   H327      1.0  0.26385  0.59782  0.20618  1.0000
  H   H328      1.0  0.20699  0.56700  0.19360  1.0000
  H   H329      1.0  0.38595  0.40507  0.02612  1.0000
  H   H330      1.0  0.45563  0.48586  0.01047  1.0000
  H   H331      1.0  0.21613  0.58502  0.23499  1.0000
  C   C194      1.0  0.45521  0.49523  0.10314  1.0000
  H   H332      1.0  0.47340  0.50674  0.10448  1.0000
  H   H333      1.0  0.38959  0.48729  0.02995  1.0000
  C   C195      1.0  0.22978  0.65858  0.18854  1.0000
  H   H334      1.0  0.11744  0.53336  0.41033  1.0000
  H   H335      1.0  0.30791  0.62679  0.18331  1.0000
  C   C196      1.0  0.43524  0.49615  0.00341  1.0000
  H   H336      1.0  0.47215  0.48389  0.11132  1.0000
  H   H337      1.0  0.16902  0.58972  0.24232  1.0000
  H   H338      1.0  0.48714  0.54638  0.19559  1.0000
  H   H339      1.0  0.46871  0.48946  0.05826  1.0000
  H   H340      1.0  0.37446  0.48533  0.09715  1.0000
  H   H341      1.0  0.47429  0.56740  0.20870  1.0000
  H   H342      1.0  0.23872  0.64649  0.17720  1.0000
  H   H343      1.0  0.43126  0.49682  0.11859  1.0000
  H   H344      1.0  0.50403  0.66792  0.33557  1.0000
  C   C197      1.0  0.30537  0.55540  0.46814  1.0000
  C   C198      1.0  0.26564  0.63816  0.35446  1.0000
  H   H345      1.0  0.23512  0.58649  0.47211  1.0000
  H   H346      1.0  0.18043  0.54377  0.49367  1.0000
  H   H347      1.0  0.29789  0.58311  0.46649  1.0000
  H   H348      1.0  0.28981  0.37433  0.02860  1.0000
  N   N14       1.0  0.18385  0.59325  0.19616  1.0000
  C   C199      1.0  0.18064  0.57426  0.18841  1.0000
  C   C200      1.0  0.21431  0.60065  0.17678  1.0000
  C   C201      1.0  0.14641  0.60203  0.18925  1.0000
  C   C202      1.0  0.19300  0.59428  0.22870  1.0000
  C   C203      1.0  0.14937  0.56413  0.20436  1.0000
  C   C204      1.0  0.25469  0.59419  0.18364  1.0000
  C   C205      1.0  0.14605  0.62190  0.18368  1.0000
  C   C206      1.0  0.20268  0.61231  0.24083  1.0000
  H   H349      1.0  0.17625  0.57269  0.16411  1.0000
  H   H350      1.0  0.16462  0.50872  0.40305  1.0000
  C   C207      1.0  0.30363  0.52183  0.02692  1.0000
  C   C208      1.0  0.37972  0.64425  0.35738  1.0000
  H   H351      1.0  0.07425  0.55307  0.48687  1.0000
  H   H352      1.0  0.21394  0.62434  0.34848  1.0000
  H   H353      1.0  0.12858  0.48915  0.46953  1.0000
  N   N15       1.0  0.29636  0.67034  0.19933  1.0000
  C   C209      1.0  0.30127  0.57295  0.48416  1.0000
  H   H354      1.0  0.47030  0.51859  0.04260  1.0000
  C   C210      1.0  0.11718  0.52145  0.42464  1.0000
  H   H355      1.0  0.25395  0.40729  0.00985  1.0000
  H   H356      1.0  0.38772  0.63150  0.36724  1.0000
  H   H357      1.0  0.36727  0.52059  0.06400  1.0000
  H   H358      1.0  0.28042  0.62632  0.36322  1.0000
  C   C211      1.0  0.42499  0.53710  0.03439  1.0000
  H   H359      1.0  0.33105  0.54627  0.02027  1.0000
  H   H360      1.0  0.20585  0.66116  0.39645  1.0000
  C   C212      1.0  0.22314  0.63631  0.35983  1.0000
  H   H361      1.0  0.32922  0.63228  0.21725  1.0000
  C   C213      1.0  0.44272  0.52198  0.05275  1.0000
  H   H362      1.0  0.35952  0.65103  0.37221  1.0000
  C   C214      1.0  0.07593  0.50290  0.45689  1.0000
  C   C215      1.0  0.21179  0.52041  0.48393  1.0000
  H   H363      1.0  0.48241  0.61858  0.39486  1.0000
  H   H364      1.0  0.39434  0.51728  0.09614  1.0000
  H   H365      1.0  0.15756  0.62826  0.38990  1.0000
  H   H366      1.0  0.27873  0.55141  0.45781  1.0000
  C   C216      1.0  0.32673  0.66884  0.25135  1.0000
  H   H367      1.0  0.24083  0.49562  0.48146  1.0000
  H   H368      1.0  0.34577  0.49003  0.06452  1.0000
  H   H369      1.0  0.33669  0.50077  0.09833  1.0000
  C   C217      1.0  0.38552  0.51078  0.07546  1.0000
  C   C218      1.0  0.15833  0.64668  0.35210  1.0000
  H   H370      1.0  0.34705  0.65881  0.24363  1.0000
  H   H371      1.0  0.27226  0.63904  0.33051  1.0000
  H   H372      1.0  0.13108  0.49364  0.41696  1.0000
  H   H373      1.0  0.27352  0.65840  0.23938  1.0000
  H   H374      1.0  0.29757  0.60845  0.49257  1.0000
  H   H375      1.0  0.22294  0.65608  0.21209  1.0000
  C   C219      1.0  0.05296  0.51573  0.40994  1.0000
  H   H376      1.0  0.34781  0.65589  0.19072  1.0000
  H   H377      1.0  0.27602  0.64733  0.04338  1.0000
  H   H378      1.0  0.36340  0.38429  0.03248  1.0000
  H   H379      1.0  0.14996  0.67220  0.04939  1.0000
  H   H380      1.0  0.22588  0.64381  0.04475  1.0000
  H   H381      1.0  0.07346  0.49082  0.44365  1.0000
  N   N16       1.0  0.41896  0.50606  0.05657  1.0000
  H   H382      1.0  0.11312  0.63782  0.38058  1.0000
  C   C220      1.0  0.23320  0.57617  0.48945  1.0000
  H   H383      1.0  0.32889  0.57573  0.49449  1.0000
  H   H384      1.0  0.42760  0.47923  0.07092  1.0000
  N   N17       1.0  0.07814  0.51854  0.43644  1.0000
  H   H385      1.0  0.20308  0.66285  0.17766  1.0000
  C   C221      1.0  0.42207  0.66055  0.40442  1.0000
  C   C222      1.0  0.13409  0.50653  0.40611  1.0000
  H   H386      1.0  0.40118  0.66849  0.34278  1.0000
  H   H387      1.0  0.51229  0.56533  0.18313  1.0000
  H   H388      1.0  0.12622  0.51095  0.48382  1.0000
  H   H389      1.0  0.36635  0.39987  0.06122  1.0000
  H   H390      1.0  0.21578  0.67166  0.06126  1.0000
  H   H391      1.0  0.44768  0.61876  0.36565  1.0000
  C   C223      1.0  0.44756  0.66234  0.43183  1.0000
  H   H392      1.0  0.39884  0.54220  0.04454  1.0000
  C   C224      1.0  0.51008  0.57676  0.11884  1.0000
  C   C225      1.0  0.49870  0.55905  0.20240  1.0000
  H   H393      1.0  0.44491  0.54806  0.03374  1.0000
  H   H394      1.0  0.41922  0.53353  0.01114  1.0000
  C   C226      1.0  0.32521  0.53371  0.01095  1.0000
  C   C227      1.0  0.51324  0.54081  0.12803  1.0000
  C   C228      1.0  0.20261  0.64565  0.29539  1.0000
  H   H395      1.0  0.06067  0.50340  0.39860  1.0000
  H   H396      1.0  0.14660  0.65045  0.39997  1.0000
  H   H397      1.0  0.11604  0.54214  0.47550  1.0000
  H   H398      1.0  0.22725  0.56408  0.47713  1.0000
  H   H399      1.0  0.40377  0.64942  0.40949  1.0000
  H   H400      1.0  0.38417  0.50900  0.01751  1.0000
  H   H401      1.0  0.15357  0.63575  0.33665  1.0000
  C   C229      1.0  0.36224  0.39843  0.03696  1.0000
  H   H402      1.0  0.04995  0.50367  0.47055  1.0000
  H   H403      1.0  0.19002  0.67011  0.31513  1.0000
  C   C230      1.0  0.29061  0.66957  0.23242  1.0000
  H   H404      1.0  0.20831  0.63196  0.30200  1.0000
  C   C231      1.0  0.29579  0.50565  0.01432  1.0000
  H   H405      1.0  0.06463  0.54604  0.43574  1.0000
  H   H406      1.0  0.03477  0.53359  0.45894  1.0000
  H   H407      1.0  0.51076  0.54907  0.24620  1.0000
  H   H408      1.0  0.31565  0.54487  0.48328  1.0000
  C   C232      1.0  0.41369  0.65582  0.35045  1.0000
  C   C233      1.0  0.24425  0.65966  0.00629  1.0000
  H   H409      1.0  0.23691  0.66376  0.31972  1.0000
  H   H410      1.0  0.17107  0.65811  0.02330  1.0000
  H   H411      1.0  0.46619  0.65079  0.43526  1.0000
  H   H412      1.0  0.17359  0.64673  0.28637  1.0000
  H   H413      1.0  0.25450  0.63252  0.01869  1.0000
  C   C234      1.0  0.20632  0.66621  0.37331  1.0000
  C   C235      1.0  0.25045  0.64520  0.02992  1.0000
  C   C236      1.0  0.22559  0.50452  0.49566  1.0000
  H   H414      1.0  0.08145  0.53099  0.49810  1.0000
  H   H415      1.0  0.09882  0.49423  0.49958  1.0000
  H   H416      1.0  0.23511  0.67133  0.37026  1.0000
  C   C237      1.0  0.28330  0.37478  0.00459  1.0000
  H   H417      1.0  0.24771  0.61073  0.49958  1.0000
  H   H418      1.0  0.51468  0.52691  0.13194  1.0000
  H   H419      1.0  0.40270  0.67211  0.40374  1.0000
  Fe  Fe33      1.0  0.20143  0.48103  0.60643  1.0000
  S   S65       1.0  0.19491  0.45465  0.58601  1.0000
  S   S66       1.0  0.19912  0.50780  0.58349  1.0000
  Fe  Fe34      1.0  0.20091  0.46565  0.67022  1.0000
  S   S67       1.0  0.19294  0.43849  0.65431  1.0000
  S   S68       1.0  0.19933  0.47095  0.71963  1.0000
  Fe  Fe35      1.0  0.23655  0.44516  0.62063  1.0000
  S   S69       1.0  0.28709  0.42713  0.61624  1.0000
  Fe  Fe36      1.0  0.15177  0.45031  0.62169  1.0000
  S   S70       1.0  0.09732  0.43656  0.61234  1.0000
  S   S71       1.0  0.24698  0.47199  0.63834  1.0000
  S   S72       1.0  0.15593  0.47705  0.64042  1.0000
  Fe  Fe37      1.0  0.34352  0.46503  0.85048  1.0000
  S   S73       1.0  0.35198  0.43831  0.87021  1.0000
  S   S74       1.0  0.34603  0.46706  0.80020  1.0000
  Fe  Fe38      1.0  0.34323  0.48220  0.91184  1.0000
  S   S75       1.0  0.35041  0.45660  0.93578  1.0000
  S   S76       1.0  0.34880  0.50834  0.93444  1.0000
  Fe  Fe39      1.0  0.39327  0.45053  0.90079  1.0000
  S   S77       1.0  0.44748  0.43702  0.91470  1.0000
  Fe  Fe40      1.0  0.30846  0.44662  0.90296  1.0000
  S   S78       1.0  0.26091  0.42868  0.91492  1.0000
  S   S79       1.0  0.38884  0.47660  0.87857  1.0000
  S   S80       1.0  0.29720  0.47291  0.88158  1.0000
  C   C238      1.0  0.48987  0.44397  0.89877  1.0000
  C   C239      1.0  0.49002  0.45607  0.87542  1.0000
  H   H420      1.0  0.30332  0.48880  0.97662  1.0000
  H   H421      1.0  0.46388  0.46164  0.86727  1.0000
  H   H422      1.0  0.28092  0.61792  0.52607  1.0000
  C   C240      1.0  0.33075  0.51323  0.96995  1.0000
  C   C241      1.0  0.33840  0.52947  0.98246  1.0000
  C   C242      1.0  0.30338  0.55388  0.54436  1.0000
  H   H423      1.0  0.06487  0.48532  0.73093  1.0000
  H   H424      1.0  0.35462  0.53881  0.97005  1.0000
  H   H425      1.0  0.08668  0.41542  0.70163  1.0000
  C   C243      1.0  0.26798  0.40606  0.91025  1.0000
  C   C244      1.0  0.23831  0.39468  0.91580  1.0000
  C   C245      1.0  0.24435  0.37652  0.91537  1.0000
  C   C246      1.0  0.28024  0.36969  0.90964  1.0000
  C   C247      1.0  0.30960  0.38107  0.90331  1.0000
  C   C248      1.0  0.30348  0.39917  0.90350  1.0000
  H   H426      1.0  0.21077  0.39992  0.92112  1.0000
  H   H427      1.0  0.22160  0.36784  0.92046  1.0000
  H   H428      1.0  0.33747  0.37585  0.89905  1.0000
  H   H429      1.0  0.32665  0.40773  0.89958  1.0000
  C   C249      1.0  0.05233  0.46236  0.63636  1.0000
  C   C250      1.0  0.05389  0.44634  0.62211  1.0000
  H   H430      1.0  0.30632  0.53953  0.54717  1.0000
  H   H431      1.0  0.07766  0.46959  0.63954  1.0000
  H   H432      1.0  0.42113  0.49154  0.98300  1.0000
  C   C251      1.0  0.20205  0.51173  0.54468  1.0000
  H   H433      1.0  0.24516  0.36374  0.77888  1.0000
  C   C252      1.0  0.37716  0.40836  0.78816  1.0000
  C   C253      1.0  0.23989  0.46797  0.74203  1.0000
  C   C254      1.0  0.27517  0.46441  0.72970  1.0000
  C   C255      1.0  0.30742  0.46393  0.74785  1.0000
  C   C256      1.0  0.30460  0.46666  0.77851  1.0000
  C   C257      1.0  0.26917  0.46967  0.79094  1.0000
  C   C258      1.0  0.23701  0.47043  0.77273  1.0000
  H   H434      1.0  0.27776  0.46242  0.70610  1.0000
  H   H435      1.0  0.33470  0.46158  0.73804  1.0000
  H   H436      1.0  0.26665  0.47181  0.81451  1.0000
  H   H437      1.0  0.20986  0.47321  0.78248  1.0000
  C   C259      1.0  0.28018  0.40449  0.61447  1.0000
  C   C260      1.0  0.31121  0.39305  0.61742  1.0000
  C   C261      1.0  0.30672  0.37496  0.61541  1.0000
  C   C262      1.0  0.27117  0.36821  0.61010  1.0000
  C   C263      1.0  0.24008  0.37962  0.60735  1.0000
  C   C264      1.0  0.24449  0.39770  0.60975  1.0000
  H   H438      1.0  0.33889  0.39823  0.62094  1.0000
  H   H439      1.0  0.33088  0.36628  0.61740  1.0000
  H   H440      1.0  0.21248  0.37449  0.60325  1.0000
  H   H441      1.0  0.22045  0.40642  0.60733  1.0000
  C   C265      1.0  0.23761  0.38326  0.69028  1.0000
  H   H442      1.0  0.17302  0.53652  0.54720  1.0000
  H   H443      1.0  0.24808  0.34700  0.54155  1.0000
  H   H444      1.0  0.42685  0.42582  0.84829  1.0000
  H   H445      1.0  0.11165  0.47683  0.73372  1.0000
  C   C266      1.0  0.27338  0.41297  0.99323  1.0000
  C   C267      1.0  0.26794  0.55817  0.52566  1.0000
  H   H446      1.0  0.32276  0.41975  0.95569  1.0000
  H   H447      1.0  0.24407  0.34042  0.77304  1.0000
  C   C268      1.0  0.28914  0.35384  0.74838  1.0000
  H   H448      1.0  0.34860  0.40995  0.77839  1.0000
  C   C269      1.0  0.08167  0.47335  0.73615  1.0000
  C   C270      1.0  0.44068  0.41825  0.83027  1.0000
  H   H449      1.0  0.42702  0.43158  0.74019  1.0000
  H   H450      1.0  0.48726  0.48571  0.93656  1.0000
  C   C271      1.0  0.19187  0.53169  0.50251  1.0000
  C   C272      1.0  0.44861  0.42141  0.74464  1.0000
  S   S81       1.0  0.26439  0.34564  0.60696  1.0000
  H   H451      1.0  0.34937  0.36805  0.71737  1.0000
  H   H452      1.0  0.07564  0.42002  0.75345  1.0000
  C   C273      1.0  0.25320  0.37554  0.71962  1.0000
  C   C274      1.0  0.39326  0.42658  0.79351  1.0000
  H   H453      1.0  0.42750  0.40529  0.83095  1.0000
  H   H454      1.0  0.30124  0.55990  0.56656  1.0000
  C   C275      1.0  0.18758  0.52750  0.53281  1.0000
  H   H455      1.0  0.27429  0.55526  0.73645  1.0000
  H   H456      1.0  0.46632  0.45398  0.76054  1.0000
  H   H457      1.0  0.02991  0.34807  0.95808  1.0000
  C   C276      1.0  0.31061  0.38635  0.98709  1.0000
  C   C277      1.0  0.07450  0.42864  0.69762  1.0000
  H   H458      1.0  0.23940  0.39768  0.69070  1.0000
  H   H459      1.0  0.28632  0.44017  0.98001  1.0000
  H   H460      1.0  0.13813  0.44790  0.70169  1.0000
  H   H461      1.0  0.39102  0.41451  0.95131  1.0000
  H   H462      1.0  0.27956  0.34954  0.79547  1.0000
  H   H463      1.0  0.25404  0.37949  0.67062  1.0000
  H   H464      1.0  0.22106  0.35240  0.66925  1.0000
  H   H465      1.0  0.19164  0.57018  0.52455  1.0000
  H   H466      1.0  0.15890  0.34825  0.56989  1.0000
  C   C278      1.0  0.48194  0.41470  0.83975  1.0000
  C   C279      1.0  0.02048  0.43735  0.61729  1.0000
  H   H467      1.0  0.30214  0.38564  0.96345  1.0000
  N   N18       1.0  0.24085  0.52083  0.70627  1.0000
  C   C280      1.0  0.20234  0.51932  0.69239  1.0000
  C   C281      1.0  0.23651  0.51699  0.73895  1.0000
  C   C282      1.0  0.26595  0.50714  0.69249  1.0000
  C   C283      1.0  0.25526  0.53884  0.69994  1.0000
  C   C284      1.0  0.20059  0.52075  0.65829  1.0000
  C   C285      1.0  0.20917  0.52914  0.75569  1.0000
  C   C286      1.0  0.30603  0.50496  0.70503  1.0000
  C   C287      1.0  0.28627  0.54562  0.72077  1.0000
  H   H468      1.0  0.18942  0.50669  0.69866  1.0000
  H   H469      1.0  0.18279  0.52960  0.70068  1.0000
  H   H470      1.0  0.26352  0.51714  0.75107  1.0000
  H   H471      1.0  0.22641  0.50353  0.74238  1.0000
  H   H472      1.0  0.25260  0.49420  0.69408  1.0000
  H   H473      1.0  0.26976  0.50974  0.66840  1.0000
  H   H474      1.0  0.26603  0.53973  0.67683  1.0000
  H   H475      1.0  0.23171  0.54856  0.70104  1.0000
  H   H476      1.0  0.21420  0.53258  0.64954  1.0000
  H   H477      1.0  0.21298  0.50903  0.64777  1.0000
  H   H478      1.0  0.17071  0.52137  0.65109  1.0000
  H   H479      1.0  0.17951  0.52619  0.75042  1.0000
  H   H480      1.0  0.31442  0.34272  0.69706  1.0000
  H   H481      1.0  0.21441  0.54308  0.75115  1.0000
  H   H482      1.0  0.30663  0.50181  0.72904  1.0000
  H   H483      1.0  0.32334  0.51642  0.69985  1.0000
  H   H484      1.0  0.31988  0.49373  0.69393  1.0000
  H   H485      1.0  0.08632  0.43314  0.67608  1.0000
  H   H486      1.0  0.30223  0.53557  0.73343  1.0000
  H   H487      1.0  0.48883  0.42204  0.78068  1.0000
  H   H488      1.0  0.06059  0.36169  0.93671  1.0000
  H   H489      1.0  0.41630  0.45841  0.76585  1.0000
  H   H490      1.0  0.19949  0.59323  0.51889  1.0000
  N   N19       1.0  0.27066  0.35753  0.71871  1.0000
  S   S82       1.0  0.29082  0.34731  0.91358  1.0000
  H   H491      1.0  0.02143  0.42498  0.60609  1.0000
  H   H492      1.0  0.08975  0.43978  0.76970  1.0000
  H   H493      1.0  0.02508  0.36048  0.89386  1.0000
  H   H494      1.0  0.07601  0.46971  0.75949  1.0000
  N   N20       1.0  0.43469  0.42722  0.80054  1.0000
  C   C288      1.0  0.33227  0.36945  0.69691  1.0000
  H   H495      1.0  0.17935  0.42708  0.73072  1.0000
  H   H496      1.0  0.21523  0.34713  0.72678  1.0000
  C   C289      1.0  0.07192  0.43442  0.75175  1.0000
  C   C290      1.0  0.03077  0.43892  0.76035  1.0000
  H   H497      1.0  0.32103  0.38294  0.69449  1.0000
  H   H498      1.0  0.38543  0.43475  0.77405  1.0000
  C   C291      1.0  0.22050  0.50012  0.52579  1.0000
  H   H499      1.0  0.21273  0.52687  0.77991  1.0000
  H   H500      1.0  0.25014  0.33916  0.50364  1.0000
  N   N21       1.0  0.26967  0.57425  0.50634  1.0000
  H   H501      1.0  0.08175  0.46308  0.69223  1.0000
  H   H502      1.0  0.24455  0.55926  0.54183  1.0000
  H   H503      1.0  0.13900  0.41654  0.74553  1.0000
  H   H504      1.0  0.39416  0.40054  0.77252  1.0000
  H   H505      1.0  0.48234  0.40995  0.86311  1.0000
  C   C292      1.0  0.27602  0.58972  0.52578  1.0000
  H   H506      1.0  0.37357  0.40100  0.80921  1.0000
  C   C293      1.0  0.30092  0.35589  0.69553  1.0000
  H   H507      1.0  0.23187  0.48796  0.53457  1.0000
  H   H508      1.0  0.37666  0.43246  0.81176  1.0000
  C   C294      1.0  0.03070  0.35893  0.94166  1.0000
  H   H509      1.0  0.13729  0.45007  0.74085  1.0000
  C   C295      1.0  0.45894  0.41831  0.77771  1.0000
  H   H510      1.0  0.30377  0.58853  0.53711  1.0000
  C   C296      1.0  0.12761  0.44172  0.72247  1.0000
  C   C297      1.0  0.14929  0.42428  0.72645  1.0000
  H   H511      1.0  0.30716  0.55282  0.70737  1.0000
  H   H512      1.0  0.14868  0.41648  0.70591  1.0000
  H   H513      1.0  0.45863  0.40395  0.78142  1.0000
  C   C298      1.0  0.19785  0.58044  0.50796  1.0000
  H   H514      1.0  0.22924  0.37585  0.73536  1.0000
  N   N22       1.0  0.08524  0.44090  0.72195  1.0000
  C   C299      1.0  0.37274  0.40510  0.96304  1.0000
  H   H515      1.0  0.28954  0.35669  0.67268  1.0000
  H   H516      1.0  0.20778  0.37978  0.68696  1.0000
  H   H517      1.0  0.25511  0.59025  0.54406  1.0000
  C   C300      1.0  0.30958  0.50128  0.98609  1.0000
  C   C301      1.0  0.24112  0.34394  0.71401  1.0000
  H   H518      1.0  0.01717  0.48111  0.65891  1.0000
  H   H519      1.0  0.45041  0.47129  0.78340  1.0000
  H   H520      1.0  0.47439  0.44700  0.81313  1.0000
  C   C302      1.0  0.44539  0.44598  0.80442  1.0000
  C   C303      1.0  0.07087  0.45899  0.71427  1.0000
  H   H521      1.0  0.02989  0.44948  0.77694  1.0000
  H   H522      1.0  0.36402  0.39549  0.94633  1.0000
  H   H523      1.0  0.27295  0.38512  0.72903  1.0000
  H   H524      1.0  0.21990  0.65605  0.99228  1.0000
  H   H525      1.0  0.49528  0.40434  0.82624  1.0000
  H   H526      1.0  0.26882  0.65893  0.99111  1.0000
  H   H527      1.0  0.32971  0.55814  0.53380  1.0000
  C   C304      1.0  0.22883  0.34047  0.68186  1.0000
  H   H528      1.0  0.49964  0.42636  0.83895  1.0000
  C   C305      1.0  0.26244  0.35186  0.77512  1.0000
  H   H529      1.0  0.47411  0.42524  0.73220  1.0000
  H   H530      1.0  0.26113  0.40987  0.97127  1.0000
  C   C306      1.0  0.16911  0.34095  0.55029  1.0000
  H   H531      1.0  0.30890  0.36430  0.75428  1.0000
  C   C307      1.0  0.44427  0.45778  0.77662  1.0000
  H   H532      1.0  0.35172  0.36731  0.67803  1.0000
  H   H533      1.0  0.03997  0.45966  0.71163  1.0000
  H   H534      1.0  0.43913  0.40913  0.73452  1.0000
  H   H535      1.0  0.26067  0.54648  0.51266  1.0000
  H   H536      1.0  0.33850  0.37971  0.98834  1.0000
  H   H537      1.0  0.42687  0.45229  0.82126  1.0000
  C   C308      1.0  0.33832  0.41502  0.97574  1.0000
  C   C309      1.0  0.03229  0.42565  0.69298  1.0000
  C   C310      1.0  0.27542  0.60758  0.50972  1.0000
  H   H538      1.0  0.28610  0.36125  0.99634  1.0000
  H   H539      1.0  0.39013  0.39832  0.97997  1.0000
  H   H540      1.0  0.24007  0.43695  0.99326  1.0000
  H   H541      1.0  0.02867  0.41746  0.67308  1.0000
  H   H542      1.0  0.01815  0.34002  0.90953  1.0000
  H   H543      1.0  0.18798  0.34965  0.53795  1.0000
  H   H544      1.0  0.45044  0.50806  0.99707  1.0000
  H   H545      1.0  0.34876  0.42695  0.98658  1.0000
  N   N23       1.0  0.31246  0.40513  0.99625  1.0000
  H   H546      1.0  0.01608  0.43782  0.68860  1.0000
  H   H547      1.0  0.02003  0.41836  0.71182  1.0000
  H   H548      1.0  0.01948  0.37099  0.95166  1.0000
  H   H549      1.0  0.30660  0.34167  0.74755  1.0000
  C   C311      1.0  0.26991  0.43293  0.99680  1.0000
  C   C312      1.0  0.01800  0.46891  0.64719  1.0000
  H   H550      1.0  0.25357  0.37878  0.00080  1.0000
  H   H551      1.0  0.01831  0.42745  0.77157  1.0000
  Fe  Fe41      1.0  0.29607  0.72603  0.42045  1.0000
  S   S83       1.0  0.35035  0.71220  0.43352  1.0000
  S   S84       1.0  0.25953  0.74612  0.44472  1.0000
  Fe  Fe42      1.0  0.29121  0.70744  0.36001  1.0000
  S   S85       1.0  0.34479  0.69251  0.36865  1.0000
  S   S86       1.0  0.25231  0.69967  0.32215  1.0000
  Fe  Fe43      1.0  0.32330  0.68839  0.41475  1.0000
  H   H552      1.0  0.23550  0.79906  0.46373  1.0000
  Fe  Fe44      1.0  0.36816  0.71726  0.38641  1.0000
  S   S87       1.0  0.42623  0.72517  0.37031  1.0000
  S   S88       1.0  0.26807  0.70159  0.40536  1.0000
  S   S89       1.0  0.31571  0.73283  0.37415  1.0000
  Fe  Fe45      1.0  0.18617  0.72017  0.08590  1.0000
  S   S90       1.0  0.13858  0.70134  0.09030  1.0000
  S   S91       1.0  0.19070  0.73060  0.03827  1.0000
  Fe  Fe46      1.0  0.20605  0.71604  0.15210  1.0000
  S   S92       1.0  0.16007  0.69714  0.16080  1.0000
  S   S93       1.0  0.24986  0.72361  0.18637  1.0000
  Fe  Fe47      1.0  0.17834  0.68505  0.11805  1.0000
  H   H553      1.0  0.24912  0.98302  0.32876  1.0000
  Fe  Fe48      1.0  0.12386  0.71498  0.13224  1.0000
  S   S94       1.0  0.06451  0.72223  0.14690  1.0000
  S   S95       1.0  0.22705  0.70263  0.11084  1.0000
  S   S96       1.0  0.16882  0.73508  0.12651  1.0000
  H   H554      1.0  0.26640  0.84504  0.02092  1.0000
  C   C313      1.0  0.48022  0.67726  0.33813  1.0000
  H   H555      1.0  0.22720  0.83227  0.05808  1.0000
  H   H556      1.0  0.05108  0.70715  0.08857  1.0000
  C   C314      1.0  0.17926  0.68214  0.37196  1.0000
  C   C315      1.0  0.25075  0.70775  0.28519  1.0000
  C   C316      1.0  0.22062  0.70310  0.26685  1.0000
  C   C317      1.0  0.21924  0.70834  0.23682  1.0000
  C   C318      1.0  0.24819  0.71822  0.22474  1.0000
  C   C319      1.0  0.27812  0.72301  0.24317  1.0000
  C   C320      1.0  0.27944  0.71782  0.27324  1.0000
  H   H557      1.0  0.19814  0.69543  0.27591  1.0000
  H   H558      1.0  0.19590  0.70467  0.22301  1.0000
  H   H559      1.0  0.30061  0.73069  0.23408  1.0000
  H   H560      1.0  0.30276  0.72151  0.28709  1.0000
  C   C321      1.0  0.46999  0.71898  0.38652  1.0000
  H   H561      1.0  0.44095  0.68667  0.37057  1.0000
  C   C322      1.0  0.47242  0.71071  0.41425  1.0000
  H   H562      1.0  0.22554  0.99665  0.28496  1.0000
  H   H563      1.0  0.44713  0.70861  0.42696  1.0000
  H   H564      1.0  0.25544  0.83204  0.46951  1.0000
  H   H565      1.0  0.27412  0.68117  0.23974  1.0000
  H   H566      1.0  0.34374  0.98020  0.46678  1.0000
  H   H567      1.0  0.50158  0.72826  0.34905  1.0000
  H   H568      1.0  0.17997  0.68900  0.35026  1.0000
  H   H569      1.0  0.46438  0.67427  0.43096  1.0000
  C   C323      1.0  0.25696  0.75147  0.48290  1.0000
  C   C324      1.0  0.27132  0.98819  0.31424  1.0000
  H   H570      1.0  0.20386  0.76506  0.47749  1.0000
  C   C325      1.0  0.22610  0.76148  0.49288  1.0000
  C   C326      1.0  0.29578  0.97230  0.37476  1.0000
  H   H571      1.0  0.29125  0.98188  0.39267  1.0000
  C   C327      1.0  0.25876  0.67300  0.18428  1.0000
  C   C328      1.0  0.27438  0.83372  0.48869  1.0000
  H   H572      1.0  0.27951  0.97689  0.30024  1.0000
  C   C329      1.0  0.02425  0.70995  0.09878  1.0000
  H   H573      1.0  0.21594  0.98165  0.04023  1.0000
  C   C330      1.0  0.32454  0.69107  0.15970  1.0000
  C   C331      1.0  0.22488  0.74320  0.01964  1.0000
  C   C332      1.0  0.20558  0.99277  0.02754  1.0000
  C   C333      1.0  0.33421  0.99930  0.30879  1.0000
  H   H574      1.0  0.22157  0.78147  0.03535  1.0000
  H   H575      1.0  0.27809  0.67622  0.05530  1.0000
  H   H576      1.0  0.48380  0.67786  0.38524  1.0000
  H   H577      1.0  0.30508  0.70444  0.05291  1.0000
  H   H578      1.0  0.30752  0.69788  0.20377  1.0000
  H   H579      1.0  0.26523  0.74320  0.05519  1.0000
  C   C334      1.0  0.25201  0.80568  0.02440  1.0000
  H   H580      1.0  0.27388  0.79888  0.01101  1.0000
  C   C335      1.0  0.11283  0.99966  0.09796  1.0000
  H   H581      1.0  0.31057  0.96098  0.38535  1.0000
  C   C336      1.0  0.02303  0.71722  0.12705  1.0000
  H   H582      1.0  0.25902  0.78639  0.05967  1.0000
  H   H583      1.0  0.17874  0.83587  0.06251  1.0000
  H   H584      1.0  0.30941  0.73924  0.49570  1.0000
  H   H585      1.0  0.20285  0.69243  0.04734  1.0000
  H   H586      1.0  0.30050  0.67838  0.02083  1.0000
  H   H587      1.0  0.14999  0.67876  0.37754  1.0000
  C   C337      1.0  0.27531  0.68288  0.03333  1.0000
  N   N24       1.0  0.30485  0.99440  0.33142  1.0000
  H   H588      1.0  0.31176  0.76060  0.02710  1.0000
  C   C338      1.0  0.50317  0.72181  0.37047  1.0000
  H   H589      1.0  0.34847  0.68459  0.20191  1.0000
  H   H590      1.0  0.20390  0.84917  0.03624  1.0000
  H   H591      1.0  0.17328  0.81259  0.03089  1.0000
  H   H592      1.0  0.49216  0.69049  0.33615  1.0000
  H   H593      1.0  0.05383  0.99825  0.09077  1.0000
  H   H594      1.0  0.10950  0.99040  0.11681  1.0000
  C   C339      1.0  0.27981  0.70247  0.03897  1.0000
  C   C340      1.0  0.20139  0.83581  0.04561  1.0000
  H   H595      1.0  0.30262  0.83545  0.47858  1.0000
  C   C341      1.0  0.25909  0.74746  0.03274  1.0000
  H   H596      1.0  0.28394  0.70992  0.01806  1.0000
  H   H597      1.0  0.06767  0.99566  0.04081  1.0000
  H   H598      1.0  0.26797  0.81483  0.03814  1.0000
  C   C342      1.0  0.26644  0.79903  0.46227  1.0000
  H   H599      1.0  0.34645  0.70113  0.15772  1.0000
  H   H600      1.0  0.24327  0.99769  0.36809  1.0000
  H   H601      1.0  0.27499  0.78599  0.45398  1.0000
  H   H602      1.0  0.38927  0.99270  0.32913  1.0000
  H   H603      1.0  0.27573  0.80855  0.44527  1.0000
  C   C343      1.0  0.25218  0.00193  0.29366  1.0000
  H   H604      1.0  0.32985  0.96863  0.33581  1.0000
  H   H605      1.0  0.50919  0.69838  0.44667  1.0000
  C   C344      1.0  0.31957  0.68620  0.19272  1.0000
  H   H606      1.0  0.31644  0.80152  0.48779  1.0000
  H   H607      1.0  0.26204  0.67435  0.15995  1.0000
  C   C345      1.0  0.20798  0.67875  0.04048  1.0000
  H   H608      1.0  0.21605  0.79853  0.06241  1.0000
  H   H609      1.0  0.33911  0.98855  0.29282  1.0000
  C   C346      1.0  0.32100  0.97968  0.35013  1.0000
  H   H610      1.0  0.26870  0.96745  0.36643  1.0000
  C   C347      1.0  0.37305  0.00426  0.32103  1.0000
  H   H611      1.0  0.24528  0.68541  0.19156  1.0000
  C   C348      1.0  0.23563  0.79233  0.04647  1.0000
  H   H612      1.0  0.25550  0.70807  0.05092  1.0000
  C   C349      1.0  0.28541  0.75733  0.01674  1.0000
  H   H613      1.0  0.46004  0.67605  0.31957  1.0000
  H   H614      1.0  0.26044  0.86136  0.48518  1.0000
  H   H615      1.0  0.34032  0.68173  0.25178  1.0000
  C   C350      1.0  0.32988  0.98943  0.48118  1.0000
  H   H616      1.0  0.34667  0.98386  0.36203  1.0000
  H   H617      1.0  0.20320  0.82328  0.48573  1.0000
  H   H618      1.0  0.29846  0.69708  0.15035  1.0000
  N   N25       1.0  0.23935  0.67780  0.01812  1.0000
  C   C351      1.0  0.50760  0.70492  0.42535  1.0000
  C   C352      1.0  0.19157  0.82279  0.02119  1.0000
  C   C353      1.0  0.46127  0.67553  0.36875  1.0000
  H   H619      1.0  0.18827  0.69169  0.38872  1.0000
  C   C354      1.0  0.28569  0.80186  0.49242  1.0000
  H   H620      1.0  0.33362  0.67984  0.14614  1.0000
  H   H621      1.0  0.41010  0.99500  0.49148  1.0000
  H   H622      1.0  0.45682  0.00221  0.50079  1.0000
  H   H623      1.0  0.26972  0.00504  0.27408  1.0000
  H   H624      1.0  0.12337  0.99205  0.07890  1.0000
  H   H625      1.0  0.15678  0.68016  0.01266  1.0000
  N   N26       1.0  0.22397  0.81492  0.00429  1.0000
  H   H626      1.0  0.17233  0.83010  0.00587  1.0000
  H   H627      1.0  0.30031  0.83066  0.00317  1.0000
  Fe  Fe49      1.0  0.36788  0.95477  0.62777  1.0000
  S   S97       1.0  0.31765  0.97169  0.63795  1.0000
  S   S98       1.0  0.42342  0.96607  0.64148  1.0000
  Fe  Fe50      1.0  0.31929  0.92697  0.59977  1.0000
  S   S99       1.0  0.26589  0.94237  0.60645  1.0000
  S   S100      1.0  0.32428  0.89918  0.58404  1.0000
  Fe  Fe51      1.0  0.29995  0.96549  0.59126  1.0000
  S   S101      1.0  0.28172  0.98919  0.56342  1.0000
  Fe  Fe52      1.0  0.28886  0.94726  0.65219  1.0000
  S   S102      1.0  0.25740  0.93869  0.69366  1.0000
  S   S103      1.0  0.35144  0.94949  0.58077  1.0000
  S   S104      1.0  0.34093  0.93083  0.64589  1.0000
  Fe  Fe53      1.0  0.18003  0.82645  0.59483  1.0000
  S   S105      1.0  0.23168  0.81467  0.61554  1.0000
  S   S106      1.0  0.18134  0.85185  0.56892  1.0000
  Fe  Fe54      1.0  0.12949  0.79809  0.61928  1.0000
  S   S107      1.0  0.17830  0.78428  0.64240  1.0000
  S   S108      1.0  0.07083  0.78676  0.62358  1.0000
  Fe  Fe55      1.0  0.19637  0.81097  0.65624  1.0000
  S   S109      1.0  0.21832  0.82303  0.69895  1.0000
  Fe  Fe56      1.0  0.20952  0.78918  0.59960  1.0000
  S   S110      1.0  0.25218  0.77010  0.57968  1.0000
  S   S111      1.0  0.14533  0.82429  0.63615  1.0000
  S   S112      1.0  0.15988  0.80128  0.57585  1.0000
  Fe  Fe57      1.0  0.18424  0.97203  0.84564  1.0000
  S   S113      1.0  0.17755  0.94346  0.85315  1.0000
  S   S114      1.0  0.19665  0.98420  0.80070  1.0000
  Fe  Fe58      1.0  0.17901  0.98010  0.91248  1.0000
  S   S115      1.0  0.17339  0.95180  0.92493  1.0000
  H   H628      1.0  0.19260  0.81878  0.94562  1.0000
  Fe  Fe59      1.0  0.21795  0.94667  0.89063  1.0000
  S   S116      1.0  0.26827  0.92832  0.89016  1.0000
  Fe  Fe60      1.0  0.13330  0.95099  0.88627  1.0000
  S   S117      1.0  0.08023  0.93557  0.89226  1.0000
  S   S118      1.0  0.22730  0.97505  0.88147  1.0000
  S   S119      1.0  0.13616  0.97950  0.87560  1.0000
  Fe  Fe61      1.0  0.30569  0.79240  0.92634  1.0000
  S   S120      1.0  0.32747  0.81974  0.92949  1.0000
  S   S121      1.0  0.31126  0.77627  0.96913  1.0000
  Fe  Fe62      1.0  0.28565  0.79760  0.86032  1.0000
  S   S122      1.0  0.30530  0.82511  0.85928  1.0000
  S   S123      1.0  0.26396  0.78384  0.81950  1.0000
  Fe  Fe63      1.0  0.35508  0.81472  0.88554  1.0000
  S   S124      1.0  0.41218  0.82418  0.87000  1.0000
  Fe  Fe64      1.0  0.27626  0.82755  0.90305  1.0000
  S   S125      1.0  0.23528  0.84888  0.91659  1.0000
  S   S126      1.0  0.33715  0.78689  0.88397  1.0000
  S   S127      1.0  0.25269  0.80058  0.90256  1.0000
  H   H629      1.0  0.39841  0.96079  0.85724  1.0000
  H   H630      1.0  0.17408  0.79744  0.94457  1.0000
  H   H631      1.0  0.43993  0.78514  0.81772  1.0000
  H   H632      1.0  0.09238  0.87046  0.83001  1.0000
  C   C355      1.0  0.20820  0.89809  0.68364  1.0000
  C   C356      1.0  0.25937  0.69122  0.96787  1.0000
  H   H633      1.0  0.30459  0.98075  0.76804  1.0000
  C   C357      1.0  0.45561  0.81380  0.87908  1.0000
  C   C358      1.0  0.48854  0.81950  0.86516  1.0000
  C   C359      1.0  0.45819  0.80034  0.90014  1.0000
  H   H634      1.0  0.48678  0.82983  0.84870  1.0000
  H   H635      1.0  0.43306  0.79583  0.91101  1.0000
  H   H636      1.0  0.37581  0.94030  0.85823  1.0000
  H   H637      1.0  0.07614  0.88772  0.87282  1.0000
  C   C360      1.0  0.02903  0.79729  0.61099  1.0000
  H   H638      1.0  0.06613  0.96199  0.84672  1.0000
  H   H639      1.0  0.41532  0.97294  0.57787  1.0000
  H   H640      1.0  0.18127  0.85553  0.67074  1.0000
  H   H641      1.0  0.44081  0.93723  0.60227  1.0000
  H   H642      1.0  0.49865  0.97821  0.64613  1.0000
  H   H643      1.0  0.32965  0.88688  0.65245  1.0000
  C   C361      1.0  0.25945  0.90627  0.89800  1.0000
  C   C362      1.0  0.22808  0.90149  0.91454  1.0000
  C   C363      1.0  0.22162  0.88385  0.92074  1.0000
  C   C364      1.0  0.24593  0.87087  0.90986  1.0000
  C   C365      1.0  0.27740  0.87564  0.89338  1.0000
  C   C366      1.0  0.28429  0.89333  0.88768  1.0000
  H   H644      1.0  0.20909  0.91141  0.92291  1.0000
  H   H645      1.0  0.19765  0.88027  0.93399  1.0000
  H   H646      1.0  0.29642  0.86571  0.88507  1.0000
  H   H647      1.0  0.30877  0.89698  0.87507  1.0000
  C   C367      1.0  0.25255  0.76258  0.54259  1.0000
  H   H648      1.0  0.21412  0.86609  0.70840  1.0000
  C   C368      1.0  0.28327  0.75245  0.53270  1.0000
  H   H649      1.0  0.23880  0.88943  0.73928  1.0000
  H   H650      1.0  0.30566  0.74899  0.54803  1.0000
  C   C369      1.0  0.23001  0.81180  0.73236  1.0000
  C   C370      1.0  0.24138  0.82146  0.75699  1.0000
  C   C371      1.0  0.25120  0.81312  0.78395  1.0000
  C   C372      1.0  0.24992  0.79499  0.78652  1.0000
  C   C373      1.0  0.23859  0.78533  0.76188  1.0000
  C   C374      1.0  0.22866  0.79368  0.73492  1.0000
  H   H651      1.0  0.24249  0.83548  0.75523  1.0000
  H   H652      1.0  0.25977  0.82072  0.80270  1.0000
  H   H653      1.0  0.23755  0.77130  0.76361  1.0000
  H   H654      1.0  0.21996  0.78610  0.71614  1.0000
  H   H655      1.0  0.01768  0.79169  0.68699  1.0000
  H   H656      1.0  0.37026  0.96993  0.81249  1.0000
  H   H657      1.0  0.25315  0.68201  0.94978  1.0000
  H   H658      1.0  0.05484  0.82133  0.59829  1.0000
  H   H659      1.0  0.28858  0.95704  0.84673  1.0000
  H   H660      1.0  0.23468  0.82567  0.54312  1.0000
  C   C375      1.0  0.23873  0.95184  0.72208  1.0000
  C   C376      1.0  0.22161  0.94365  0.74642  1.0000
  C   C377      1.0  0.20838  0.95343  0.77052  1.0000
  C   C378      1.0  0.21163  0.97153  0.77030  1.0000
  C   C379      1.0  0.22793  0.97975  0.74563  1.0000
  C   C380      1.0  0.24168  0.96995  0.72166  1.0000
  H   H661      1.0  0.21905  0.92966  0.74683  1.0000
  H   H662      1.0  0.19548  0.94698  0.78917  1.0000
  H   H663      1.0  0.23035  0.99376  0.74522  1.0000
  H   H664      1.0  0.25468  0.97638  0.70298  1.0000
  C   C381      1.0  0.28389  0.88646  0.58019  1.0000
  C   C382      1.0  0.28725  0.86839  0.58425  1.0000
  C   C383      1.0  0.25578  0.85779  0.58150  1.0000
  C   C384      1.0  0.22095  0.86506  0.57337  1.0000
  C   C385      1.0  0.21774  0.88309  0.56842  1.0000
  C   C386      1.0  0.24896  0.89383  0.57245  1.0000
  H   H665      1.0  0.31427  0.86261  0.58996  1.0000
  H   H666      1.0  0.25873  0.84397  0.58516  1.0000
  H   H667      1.0  0.19092  0.88881  0.56196  1.0000
  H   H668      1.0  0.24620  0.90774  0.56888  1.0000
  C   C387      1.0  0.49916  0.96702  0.63182  1.0000
  C   C388      1.0  0.46566  0.95841  0.62563  1.0000
  C   C389      1.0  0.46651  0.94394  0.60715  1.0000
  C   C390      1.0  0.01753  0.80583  0.69155  1.0000
  C   C391      1.0  0.23827  0.81580  0.52545  1.0000
  H   H669      1.0  0.32207  0.79373  0.54320  1.0000
  H   H670      1.0  0.34945  0.96004  0.86599  1.0000
  C   C392      1.0  0.25843  0.87985  0.72918  1.0000
  C   C393      1.0  0.36329  0.95639  0.81852  1.0000
  C   C394      1.0  0.19738  0.99091  0.99716  1.0000
  H   H671      1.0  0.20154  0.97846  0.98659  1.0000
  C   C395      1.0  0.32089  0.95332  0.77578  1.0000
  H   H672      1.0  0.05335  0.90885  0.84493  1.0000
  H   H673      1.0  0.23741  0.76314  0.95210  1.0000
  C   C396      1.0  0.29938  0.99564  0.52823  1.0000
  H   H674      1.0  0.35742  0.77255  0.81502  1.0000
  C   C397      1.0  0.38344  0.77660  0.80321  1.0000
  H   H675      1.0  0.27952  0.91160  0.81800  1.0000
  H   H676      1.0  0.16044  0.85731  0.85632  1.0000
  H   H677      1.0  0.30848  0.98470  0.85199  1.0000
  H   H678      1.0  0.15379  0.81278  0.96941  1.0000
  H   H679      1.0  0.10752  0.86038  0.88604  1.0000
  N   N27       1.0  0.12804  0.89025  0.84801  1.0000
  C   C398      1.0  0.11315  0.90640  0.83217  1.0000
  C   C399      1.0  0.16889  0.89327  0.85485  1.0000
  C   C400      1.0  0.10684  0.88855  0.87678  1.0000
  C   C401      1.0  0.12206  0.87472  0.82847  1.0000
  H   H680      1.0  0.28837  0.80341  0.56841  1.0000
  C   C402      1.0  0.19442  0.89654  0.82786  1.0000
  C   C403      1.0  0.11662  0.87261  0.89645  1.0000
  H   H681      1.0  0.32057  0.93081  0.84160  1.0000
  C   C404      1.0  0.18429  0.00523  0.98049  1.0000
  H   H682      1.0  0.19115  0.74556  0.98001  1.0000
  H   H683      1.0  0.18190  0.88234  0.86748  1.0000
  H   H684      1.0  0.17167  0.90466  0.86974  1.0000
  H   H685      1.0  0.11075  0.90036  0.89051  1.0000
  C   C405      1.0  0.41542  0.97941  0.55567  1.0000
  H   H686      1.0  0.25664  0.93238  0.81608  1.0000
  H   H687      1.0  0.12638  0.87848  0.80481  1.0000
  H   H688      1.0  0.13096  0.84658  0.83097  1.0000
  H   H689      1.0  0.12768  0.90837  0.81064  1.0000
  H   H690      1.0  0.26371  0.86940  0.74597  1.0000
  H   H691      1.0  0.19049  0.88691  0.81014  1.0000
  H   H692      1.0  0.19012  0.90988  0.81865  1.0000
  H   H693      1.0  0.22419  0.89555  0.83524  1.0000
  H   H694      1.0  0.28565  0.88611  0.72473  1.0000
  H   H695      1.0  0.22064  0.90654  0.70073  1.0000
  C   C406      1.0  0.19509  0.91038  0.65818  1.0000
  H   H696      1.0  0.22035  0.88165  0.62904  1.0000
  H   H697      1.0  0.38444  0.94832  0.80640  1.0000
  H   H698      1.0  0.14671  0.87172  0.90248  1.0000
  H   H699      1.0  0.17029  0.85770  0.81712  1.0000
  C   C407      1.0  0.20180  0.81597  0.50682  1.0000
  H   H700      1.0  0.48457  0.84162  0.92056  1.0000
  N   N28       1.0  0.32410  0.95175  0.80905  1.0000
  H   H701      1.0  0.22201  0.83831  0.97684  1.0000
  H   H702      1.0  0.34080  0.94406  0.76489  1.0000
  C   C408      1.0  0.41311  0.78055  0.82715  1.0000
  C   C409      1.0  0.14773  0.85848  0.83403  1.0000
  H   H703      1.0  0.38590  0.97910  0.54751  1.0000
  C   C410      1.0  0.37174  0.95421  0.85195  1.0000
  C   C411      1.0  0.50282  0.83875  0.94007  1.0000
  C   C412      1.0  0.28546  0.74687  0.50306  1.0000
  C   C413      1.0  0.22965  0.68993  0.99267  1.0000
  C   C414      1.0  0.02874  0.81439  0.60009  1.0000
  H   H704      1.0  0.02333  0.80842  0.71514  1.0000
  H   H705      1.0  0.33246  0.82396  0.52098  1.0000
  N   N29       1.0  0.42833  0.99795  0.55827  1.0000
  H   H706      1.0  0.20340  0.68584  0.98155  1.0000
  H   H707      1.0  0.17851  0.90361  0.64115  1.0000
  H   H708      1.0  0.21892  0.91701  0.64741  1.0000
  H   H709      1.0  0.27923  0.92313  0.78357  1.0000
  H   H710      1.0  0.25915  0.70469  0.95863  1.0000
  H   H711      1.0  0.15956  0.87588  0.65831  1.0000
  C   C415      1.0  0.30161  0.98208  0.82846  1.0000
  C   C416      1.0  0.31302  0.80593  0.55418  1.0000
  H   H712      1.0  0.18281  0.89265  0.69435  1.0000
  H   H713      1.0  0.41968  0.76842  0.83990  1.0000
  C   C417      1.0  0.21744  0.74887  0.99042  1.0000
  H   H714      1.0  0.28036  0.79003  0.50602  1.0000
  N   N30       1.0  0.37458  0.79101  0.78106  1.0000
  C   C418      1.0  0.34442  0.78433  0.76078  1.0000
  C   C419      1.0  0.35905  0.80625  0.79816  1.0000
  C   C420      1.0  0.41021  0.79576  0.76507  1.0000
  C   C421      1.0  0.35574  0.76865  0.74151  1.0000
  C   C422      1.0  0.34823  0.82277  0.78024  1.0000
  C   C423      1.0  0.40593  0.80537  0.73483  1.0000
  H   H715      1.0  0.33284  0.79450  0.74564  1.0000
  H   H716      1.0  0.31968  0.78026  0.77396  1.0000
  H   H717      1.0  0.33380  0.80229  0.81089  1.0000
  H   H718      1.0  0.37965  0.81071  0.81481  1.0000
  H   H719      1.0  0.42796  0.80397  0.77949  1.0000
  H   H720      1.0  0.42751  0.78381  0.76085  1.0000
  H   H721      1.0  0.35759  0.75645  0.75486  1.0000
  H   H722      1.0  0.33344  0.76668  0.72466  1.0000
  H   H723      1.0  0.38240  0.77060  0.72947  1.0000
  H   H724      1.0  0.32701  0.82047  0.76284  1.0000
  H   H725      1.0  0.37333  0.82906  0.77076  1.0000
  H   H726      1.0  0.33534  0.83237  0.79555  1.0000
  H   H727      1.0  0.42465  0.81679  0.73439  1.0000
  H   H728      1.0  0.37743  0.81035  0.72946  1.0000
  H   H729      1.0  0.41560  0.79686  0.71654  1.0000
  N   N31       1.0  0.23562  0.88384  0.67516  1.0000
  H   H730      1.0  0.19964  0.77440  0.52997  1.0000
  C   C424      1.0  0.03883  0.94304  0.87435  1.0000
  H   H731      1.0  0.26685  0.96150  0.81219  1.0000
  C   C425      1.0  0.27202  0.89206  0.66586  1.0000
  C   C426      1.0  0.18148  0.86593  0.65353  1.0000
  C   C427      1.0  0.22371  0.76688  0.52258  1.0000
  C   C428      1.0  0.43877  0.96703  0.53600  1.0000
  C   C429      1.0  0.30582  0.87947  0.66182  1.0000
  H   H732      1.0  0.40243  0.79001  0.84351  1.0000
  C   C430      1.0  0.03974  0.95615  0.85264  1.0000
  C   C431      1.0  0.24360  0.75887  0.97454  1.0000
  H   H733      1.0  0.22245  0.70328  0.00043  1.0000
  C   C432      1.0  0.27770  0.76324  0.98768  1.0000
  H   H734      1.0  0.33619  0.80960  0.56926  1.0000
  H   H735      1.0  0.28067  0.90218  0.68182  1.0000
  H   H736      1.0  0.29247  0.94970  0.76829  1.0000
  H   H737      1.0  0.11891  0.91821  0.84533  1.0000
  H   H738      1.0  0.32549  0.97022  0.73732  1.0000
  H   H739      1.0  0.17669  0.92078  0.66745  1.0000
  H   H740      1.0  0.32334  0.98771  0.81409  1.0000
  H   H741      1.0  0.36071  0.99035  0.59085  1.0000
  C   C433      1.0  0.26252  0.85117  0.50279  1.0000
  H   H742      1.0  0.31556  0.87370  0.68315  1.0000
  C   C434      1.0  0.32720  0.97139  0.76183  1.0000
  H   H743      1.0  0.29846  0.83253  0.54578  1.0000
  H   H744      1.0  0.49527  0.78266  0.92417  1.0000
  C   C435      1.0  0.28121  0.92480  0.80789  1.0000
  H   H745      1.0  0.23989  0.86233  0.64465  1.0000
  H   H746      1.0  0.26857  0.89916  0.64435  1.0000
  H   H747      1.0  0.48093  0.99018  0.57898  1.0000
  C   C436      1.0  0.31883  0.93282  0.81720  1.0000
  C   C437      1.0  0.18075  0.80830  0.95963  1.0000
  H   H748      1.0  0.23857  0.80326  0.53803  1.0000
  C   C438      1.0  0.07073  0.90691  0.82483  1.0000
  H   H749      1.0  0.10088  0.87375  0.91759  1.0000
  H   H750      1.0  0.06458  0.91839  0.81029  1.0000
  H   H751      1.0  0.17320  0.85986  0.63238  1.0000
  C   C439      1.0  0.30527  0.82103  0.53201  1.0000
  H   H752      1.0  0.35527  0.97661  0.76674  1.0000
  H   H753      1.0  0.04185  0.81104  0.67906  1.0000
  H   H754      1.0  0.25895  0.86016  0.69508  1.0000
  C   C440      1.0  0.49350  0.79290  0.90756  1.0000
  C   C441      1.0  0.29401  0.96248  0.82418  1.0000
  C   C442      1.0  0.24130  0.87167  0.70126  1.0000
  C   C443      1.0  0.22092  0.87357  0.64956  1.0000
  H   H755      1.0  0.34177  0.92457  0.80768  1.0000
  H   H756      1.0  0.25601  0.82264  0.96549  1.0000
  H   H757      1.0  0.29977  0.86897  0.64608  1.0000
  H   H758      1.0  0.39427  0.76479  0.79184  1.0000
  H   H759      1.0  0.48319  0.83560  0.95838  1.0000
  H   H760      1.0  0.28350  0.85575  0.51898  1.0000
  H   H761      1.0  0.06162  0.89522  0.81285  1.0000
  C   C444      1.0  0.50088  0.93793  0.59544  1.0000
  C   C445      1.0  0.47065  0.99833  0.55988  1.0000
  H   H762      1.0  0.27530  0.98964  0.82379  1.0000
  H   H763      1.0  0.42727  0.99822  0.60634  1.0000
  H   H764      1.0  0.46629  0.96369  0.54648  1.0000
  H   H765      1.0  0.23208  0.79482  0.97164  1.0000
  H   H766      1.0  0.28842  0.68863  0.97565  1.0000
  C   C446      1.0  0.24299  0.82859  0.98549  1.0000
  H   H767      1.0  0.48406  0.99237  0.54025  1.0000
  S   S128      1.0  0.17538  0.00403  0.94198  1.0000
  H   H768      1.0  0.42360  0.95459  0.53387  1.0000
  C   C447      1.0  0.41350  0.00505  0.58714  1.0000
  H   H769      1.0  0.50148  0.92658  0.58149  1.0000
  C   C448      1.0  0.20861  0.80148  0.98355  1.0000
  H   H770      1.0  0.19286  0.80250  0.50224  1.0000
  H   H771      1.0  0.32354  0.97074  0.51707  1.0000
  H   H772      1.0  0.23449  0.85054  0.51336  1.0000
  C   C449      1.0  0.37066  0.00389  0.59186  1.0000
  H   H773      1.0  0.28277  0.84964  0.98436  1.0000
  H   H774      1.0  0.51060  0.86626  0.93809  1.0000
  H   H775      1.0  0.44318  0.97221  0.51339  1.0000
  N   N32       1.0  0.27490  0.81809  0.50924  1.0000
  C   C450      1.0  0.31857  0.98403  0.50974  1.0000
  H   H776      1.0  0.19363  0.79110  0.99581  1.0000
  H   H777      1.0  0.17902  0.82254  0.51952  1.0000
  H   H778      1.0  0.01891  0.00561  0.86538  1.0000
  C   C451      1.0  0.42653  0.00546  0.50188  1.0000
  C   C452      1.0  0.27476  0.83897  0.99983  1.0000
  Fe  Fe65      1.0  0.70988  0.05465  0.38467  1.0000
  S   S129      1.0  0.66013  0.07218  0.39363  1.0000
  S   S130      1.0  0.73144  0.03121  0.41140  1.0000
  Fe  Fe66      1.0  0.72567  0.07177  0.32382  1.0000
  S   S131      1.0  0.67642  0.09019  0.32772  1.0000
  S   S132      1.0  0.77035  0.07423  0.28803  1.0000
  Fe  Fe67      1.0  0.69568  0.09365  0.37467  1.0000
  S   S133      1.0  0.69383  0.12147  0.39055  1.0000
  Fe  Fe68      1.0  0.64498  0.06743  0.34614  1.0000
  S   S134      1.0  0.58737  0.05950  0.33093  1.0000
  S   S135      1.0  0.74692  0.07657  0.36997  1.0000
  S   S136      1.0  0.69260  0.04854  0.33800  1.0000
  Fe  Fe69      1.0  0.84304  0.19236  0.40710  1.0000
  S   S137      1.0  0.79076  0.20837  0.40087  1.0000
  S   S138      1.0  0.84213  0.16334  0.41605  1.0000
  Fe  Fe70      1.0  0.89365  0.22294  0.39649  1.0000
  S   S139      1.0  0.84417  0.24138  0.38861  1.0000
  S   S140      1.0  0.95248  0.23422  0.39320  1.0000
  Fe  Fe71      1.0  0.81853  0.22858  0.42859  1.0000
  S   S141      1.0  0.77767  0.24325  0.45900  1.0000
  Fe  Fe72      1.0  0.81976  0.21992  0.36143  1.0000
  S   S142      1.0  0.77886  0.22403  0.32293  1.0000
  S   S143      1.0  0.86926  0.21144  0.43824  1.0000
  S   S144      1.0  0.87102  0.20254  0.36595  1.0000
  Fe  Fe73      1.0  0.83936  0.07240  0.08151  1.0000
  S   S145      1.0  0.79464  0.05219  0.07788  1.0000
  S   S146      1.0  0.83367  0.10020  0.06502  1.0000
  Fe  Fe74      1.0  0.89267  0.04864  0.11591  1.0000
  S   S147      1.0  0.85176  0.02687  0.11571  1.0000
  S   S148      1.0  0.94666  0.04281  0.14065  1.0000
  Fe  Fe75      1.0  0.84259  0.03359  0.06752  1.0000
  H   H779      1.0  0.76792  0.33087  0.47884  1.0000
  Fe  Fe76      1.0  0.80791  0.04710  0.12610  1.0000
  S   S149      1.0  0.76039  0.04257  0.15865  1.0000
  S   S150      1.0  0.88657  0.05429  0.06729  1.0000
  S   S151      1.0  0.84944  0.06842  0.13021  1.0000
  Fe  Fe77      1.0  0.71736  0.20939  0.08968  1.0000
  S   S152      1.0  0.66524  0.19315  0.09333  1.0000
  S   S153      1.0  0.72749  0.21945  0.04250  1.0000
  Fe  Fe78      1.0  0.73925  0.20174  0.15490  1.0000
  S   S154      1.0  0.68840  0.18558  0.16270  1.0000
  S   S155      1.0  0.78774  0.20062  0.18802  1.0000
  Fe  Fe79      1.0  0.70148  0.17388  0.11856  1.0000
  S   S156      1.0  0.69685  0.14460  0.11561  1.0000
  Fe  Fe80      1.0  0.65649  0.20629  0.13681  1.0000
  S   S157      1.0  0.59974  0.21606  0.15376  1.0000
  S   S158      1.0  0.75402  0.18883  0.11176  1.0000
  S   S159      1.0  0.70673  0.22375  0.13224  1.0000
  C   C453      1.0  0.75372  0.23730  0.02877  1.0000
  H   H780      1.0  0.87856  0.22166  0.02612  1.0000
  C   C454      1.0  0.84641  0.05962  0.37196  1.0000
  H   H781      1.0  0.53505  0.17533  0.15093  1.0000
  C   C455      1.0  0.85794  0.21178  0.08017  1.0000
  H   H782      1.0  0.61301  0.15191  0.19364  1.0000
  C   C456      1.0  0.55586  0.21043  0.13841  1.0000
  C   C457      1.0  0.55320  0.20209  0.11114  1.0000
  H   H783      1.0  0.85562  0.03635  0.28799  1.0000
  H   H784      1.0  0.57829  0.19973  0.09824  1.0000
  C   C458      1.0  0.79474  0.11240  0.07788  1.0000
  C   C459      1.0  0.79508  0.13062  0.07584  1.0000
  C   C460      1.0  0.76487  0.14067  0.08677  1.0000
  C   C461      1.0  0.73391  0.13250  0.09948  1.0000
  C   C462      1.0  0.73315  0.11427  0.10078  1.0000
  C   C463      1.0  0.76359  0.10424  0.09026  1.0000
  H   H785      1.0  0.81901  0.13696  0.06608  1.0000
  H   H786      1.0  0.76561  0.15468  0.08541  1.0000
  H   H787      1.0  0.70911  0.10787  0.11024  1.0000
  H   H788      1.0  0.76296  0.09019  0.09169  1.0000
  C   C464      1.0  0.98796  0.05334  0.12981  1.0000
  C   C465      1.0  0.77432  0.24800  0.04739  1.0000
  C   C466      1.0  0.98781  0.06587  0.10708  1.0000
  H   H789      1.0  0.60510  0.18358  0.18603  1.0000
  H   H790      1.0  0.96176  0.06948  0.09607  1.0000
  H   H791      1.0  0.74787  0.29555  0.47815  1.0000
  H   H792      1.0  0.78007  0.30712  0.45389  1.0000
  H   H793      1.0  0.74590  0.13025  0.17636  1.0000
  H   H794      1.0  0.73689  0.20957  0.45247  1.0000
  H   H795      1.0  0.80964  0.04196  0.39481  1.0000
  H   H796      1.0  0.52463  0.22043  0.17556  1.0000
  N   N33       1.0  0.82615  0.02916  0.35425  1.0000
  C   C467      1.0  0.78252  0.21766  0.28543  1.0000
  C   C468      1.0  0.75098  0.21990  0.26687  1.0000
  C   C469      1.0  0.75213  0.21477  0.23702  1.0000
  C   C470      1.0  0.78497  0.20736  0.22539  1.0000
  C   C471      1.0  0.81654  0.20506  0.24396  1.0000
  C   C472      1.0  0.81538  0.21020  0.27385  1.0000
  H   H797      1.0  0.72551  0.22574  0.27560  1.0000
  H   H798      1.0  0.72772  0.21669  0.22296  1.0000
  H   H799      1.0  0.84214  0.19944  0.23508  1.0000
  H   H800      1.0  0.83992  0.20854  0.28784  1.0000
  C   C473      1.0  0.99520  0.22417  0.40533  1.0000
  H   H801      1.0  0.88513  0.20458  0.07938  1.0000
  C   C474      1.0  0.79181  0.03605  0.33810  1.0000
  H   H802      1.0  0.97176  0.19935  0.41651  1.0000
  C   C475      1.0  0.57645  0.03759  0.45466  1.0000
  C   C476      1.0  0.76720  0.06466  0.25270  1.0000
  C   C477      1.0  0.79864  0.06503  0.23399  1.0000
  C   C478      1.0  0.79705  0.05807  0.20534  1.0000
  C   C479      1.0  0.76386  0.05075  0.19505  1.0000
  C   C480      1.0  0.73253  0.05018  0.21390  1.0000
  C   C481      1.0  0.73417  0.05709  0.24266  1.0000
  H   H803      1.0  0.82443  0.07070  0.24170  1.0000
  H   H804      1.0  0.82154  0.05832  0.19125  1.0000
  H   H805      1.0  0.70676  0.04452  0.20615  1.0000
  H   H806      1.0  0.70976  0.05674  0.25688  1.0000
  C   C482      1.0  0.73564  0.13276  0.39688  1.0000
  C   C483      1.0  0.73376  0.15090  0.39954  1.0000
  C   C484      1.0  0.76647  0.16040  0.40439  1.0000
  C   C485      1.0  0.80117  0.15181  0.40760  1.0000
  C   C486      1.0  0.80305  0.13363  0.40514  1.0000
  C   C487      1.0  0.77045  0.12414  0.39940  1.0000
  H   H807      1.0  0.70690  0.15764  0.39765  1.0000
  H   H808      1.0  0.76469  0.17434  0.40609  1.0000
  H   H809      1.0  0.82980  0.12687  0.40775  1.0000
  H   H810      1.0  0.77215  0.11014  0.39761  1.0000
  C   C488      1.0  0.55227  0.07715  0.37632  1.0000
  C   C489      1.0  0.54823  0.06627  0.35196  1.0000
  H   H811      1.0  0.59106  0.17705  0.22211  1.0000
  H   H812      1.0  0.57951  0.08222  0.38177  1.0000
  H   H813      1.0  0.84796  0.21145  0.10350  1.0000
  H   H814      1.0  0.74868  0.08314  0.16171  1.0000
  H   H815      1.0  0.51642  0.18968  0.08004  1.0000
  H   H816      1.0  0.72687  0.15964  0.46877  1.0000
  H   H817      1.0  0.73004  0.10463  0.16237  1.0000
  H   H818      1.0  0.84874  0.06713  0.39276  1.0000
  H   H819      1.0  0.57563  0.16762  0.09349  1.0000
  C   C490      1.0  0.71377  0.02487  0.44655  1.0000
  N   N34       1.0  0.80118  0.11878  0.18536  1.0000
  C   C491      1.0  0.79168  0.10225  0.16941  1.0000
  C   C492      1.0  0.84140  0.12293  0.17807  1.0000
  C   C493      1.0  0.77603  0.13310  0.17282  1.0000
  C   C494      1.0  0.87051  0.10827  0.18492  1.0000
  C   C495      1.0  0.78108  0.15149  0.18518  1.0000
  H   H820      1.0  0.79748  0.10359  0.14525  1.0000
  H   H821      1.0  0.80978  0.09120  0.17729  1.0000
  H   H822      1.0  0.85083  0.13468  0.18977  1.0000
  H   H823      1.0  0.84418  0.12622  0.15402  1.0000
  H   H824      1.0  0.77982  0.13409  0.14839  1.0000
  H   H825      1.0  0.89902  0.11385  0.18637  1.0000
  H   H826      1.0  0.86477  0.10130  0.20601  1.0000
  H   H827      1.0  0.87138  0.09871  0.16670  1.0000
  H   H828      1.0  0.81028  0.15613  0.18371  1.0000
  H   H829      1.0  0.77032  0.15244  0.20811  1.0000
  H   H830      1.0  0.76372  0.16079  0.17168  1.0000
  H   H831      1.0  0.74365  0.09358  0.19663  1.0000
  H   H832      1.0  0.72670  0.18724  0.44326  1.0000
  H   H833      1.0  0.58773  0.06328  0.43395  1.0000
  C   C496      1.0  0.61951  0.02008  0.38229  1.0000
  H   H834      1.0  0.60440  0.03589  0.46545  1.0000
  H   H835      1.0  0.99596  0.01032  0.08539  1.0000
  H   H836      1.0  0.64681  0.01394  0.38893  1.0000
  H   H837      1.0  0.53317  0.04491  0.40677  1.0000
  H   H838      1.0  0.79585  0.04925  0.32905  1.0000
  H   H839      1.0  0.72449  0.03202  0.10082  1.0000
  C   C497      1.0  0.52286  0.21387  0.15453  1.0000
  H   H840      1.0  0.55573  0.18261  0.19552  1.0000
  H   H841      1.0  0.54002  0.06081  0.44734  1.0000
  C   C498      1.0  0.80302  0.30102  0.49858  1.0000
  H   H842      1.0  0.66298  0.00753  0.12498  1.0000
  C   C499      1.0  0.82794  0.20368  0.06015  1.0000
  C   C500      1.0  0.72351  0.00834  0.45824  1.0000
  C   C501      1.0  0.52091  0.08148  0.39380  1.0000
  H   H843      1.0  0.87455  0.05968  0.36148  1.0000
  H   H844      1.0  0.59948  0.00996  0.37615  1.0000
  C   C502      1.0  0.60034  0.16104  0.13710  1.0000
  H   H845      1.0  0.86210  0.22569  0.07436  1.0000
  H   H846      1.0  0.62540  0.02747  0.36157  1.0000
  H   H847      1.0  0.66645  0.03045  0.13011  1.0000
  C   C503      1.0  0.60587  0.03303  0.40616  1.0000
  H   H848      1.0  0.59771  0.04538  0.39453  1.0000
  H   H849      1.0  0.81250  0.26947  0.04980  1.0000
  H   H850      1.0  0.84776  0.20819  0.50071  1.0000
  H   H851      1.0  0.70101  0.01652  0.14654  1.0000
  H   H852      1.0  0.89920  0.19366  0.03157  1.0000
  H   H853      1.0  0.78456  0.17791  0.45974  1.0000
  H   H854      1.0  0.55564  0.03279  0.47113  1.0000
  H   H855      1.0  0.76441  0.11854  0.22357  1.0000
  C   C504      1.0  0.77845  0.17314  0.48257  1.0000
  C   C505      1.0  0.78496  0.17838  0.02302  1.0000
  C   C506      1.0  0.52794  0.02136  0.38357  1.0000
  C   C507      1.0  0.68313  0.01830  0.12657  1.0000
  H   H856      1.0  0.79998  0.10228  0.22483  1.0000
  C   C508      1.0  0.78079  0.25061  0.49600  1.0000
  N   N35       1.0  0.57461  0.02726  0.42641  1.0000
  N   N36       1.0  0.74482  0.16323  0.31052  1.0000
  C   C509      1.0  0.78222  0.15747  0.32354  1.0000
  C   C510      1.0  0.71889  0.14797  0.31292  1.0000
  C   C511      1.0  0.72984  0.17832  0.32852  1.0000
  C   C512      1.0  0.75141  0.16885  0.27887  1.0000
  C   C513      1.0  0.81152  0.17184  0.32762  1.0000
  C   C514      1.0  0.73137  0.13146  0.29622  1.0000
  C   C515      1.0  0.68691  0.18136  0.32900  1.0000
  C   C516      1.0  0.71658  0.17377  0.26007  1.0000
  H   H857      1.0  0.77825  0.15116  0.34559  1.0000
  H   H858      1.0  0.79608  0.14740  0.30962  1.0000
  H   H859      1.0  0.69014  0.15125  0.30500  1.0000
  H   H860      1.0  0.71511  0.14417  0.33662  1.0000
  H   H861      1.0  0.73804  0.17678  0.35223  1.0000
  H   H862      1.0  0.74254  0.19074  0.32108  1.0000
  H   H863      1.0  0.76918  0.18056  0.27822  1.0000
  H   H864      1.0  0.76860  0.15915  0.26652  1.0000
  H   H865      1.0  0.83678  0.16606  0.33873  1.0000
  H   H866      1.0  0.82088  0.17731  0.30612  1.0000
  H   H867      1.0  0.80134  0.18249  0.34204  1.0000
  H   H868      1.0  0.73633  0.13408  0.27240  1.0000
  H   H869      1.0  0.75645  0.12512  0.30660  1.0000
  H   H870      1.0  0.70856  0.12182  0.29760  1.0000
  H   H871      1.0  0.67292  0.17110  0.34230  1.0000
  H   H872      1.0  0.67428  0.18214  0.30665  1.0000
  H   H873      1.0  0.68070  0.19395  0.33998  1.0000
  H   H874      1.0  0.72389  0.17273  0.23622  1.0000
  H   H875      1.0  0.63129  0.03610  0.41941  1.0000
  H   H876      1.0  0.52533  0.15762  0.12799  1.0000
  H   H877      1.0  0.83102  0.22759  0.01938  1.0000
  H   H878      1.0  0.87489  0.18195  0.00417  1.0000
  H   H879      1.0  0.77329  0.24599  0.07113  1.0000
  H   H880      1.0  0.76809  0.03765  0.35389  1.0000
  H   H881      1.0  0.62743  0.12683  0.17209  1.0000
  H   H882      1.0  0.62181  0.15756  0.09225  1.0000
  C   C517      1.0  0.75407  0.15682  0.47997  1.0000
  H   H883      1.0  0.69285  0.16491  0.26326  1.0000
  H   H884      1.0  0.80780  0.12486  0.26253  1.0000
  H   H885      1.0  0.72390  0.03224  0.04143  1.0000
  C   C518      1.0  0.57073  0.13362  0.15456  1.0000
  C   C519      1.0  0.79454  0.11611  0.21815  1.0000
  C   C520      1.0  0.81826  0.12696  0.23962  1.0000
  H   H886      1.0  0.74925  0.15040  0.50168  1.0000
  C   C521      1.0  0.77753  0.29725  0.47184  1.0000
  C   C522      1.0  0.99714  0.20685  0.41518  1.0000
  H   H887      1.0  0.60008  0.17545  0.13912  1.0000
  H   H888      1.0  0.80306  0.21262  0.06027  1.0000
  C   C523      1.0  0.00054  0.01610  0.06305  1.0000
  H   H889      1.0  0.78685  0.28470  0.46203  1.0000
  H   H890      1.0  0.56607  0.14978  0.20555  1.0000
  C   C524      1.0  0.75107  0.09582  0.17306  1.0000
  H   H891      1.0  0.76214  0.01340  0.32093  1.0000
  H   H892      1.0  0.83219  0.30146  0.48967  1.0000
  H   H893      1.0  0.81839  0.19188  0.07184  1.0000
  H   H894      1.0  0.70729  0.18739  0.26426  1.0000
  H   H895      1.0  0.84814  0.12265  0.23973  1.0000
  H   H896      1.0  0.85214  0.05392  0.31405  1.0000
  H   H897      1.0  0.81678  0.14108  0.23491  1.0000
  H   H898      1.0  0.88617  0.02626  0.34774  1.0000
  H   H899      1.0  0.68311  0.04872  0.45451  1.0000
  N   N37       1.0  0.83993  0.20005  0.02875  1.0000
  H   H900      1.0  0.76919  0.14710  0.46617  1.0000
  H   H901      1.0  0.57772  0.06373  0.47264  1.0000
  H   H902      1.0  0.82574  0.06676  0.35784  1.0000
  H   H903      1.0  0.77524  0.01642  0.06420  1.0000
  C   C525      1.0  0.80673  0.19406  0.01091  1.0000
  H   H904      1.0  0.60447  0.10973  0.15310  1.0000
  C   C526      1.0  0.71971  0.19814  0.45816  1.0000
  H   H905      1.0  0.97444  0.02362  0.05750  1.0000
  C   C527      1.0  0.57005  0.05745  0.45147  1.0000
  C   C528      1.0  0.58363  0.17616  0.19828  1.0000
  H   H906      1.0  0.84360  0.16803  0.05780  1.0000
  H   H907      1.0  0.78958  0.01248  0.38004  1.0000
  H   H908      1.0  0.77491  0.01458  0.11673  1.0000
  C   C529      1.0  0.79660  0.26128  0.03521  1.0000
  H   H909      1.0  0.55524  0.12763  0.17338  1.0000
  H   H910      1.0  0.58235  0.14466  0.09923  1.0000
  C   C530      1.0  0.77765  0.02480  0.31241  1.0000
  C   C531      1.0  0.59427  0.15752  0.10377  1.0000
  N   N38       1.0  0.57227  0.15311  0.15794  1.0000
  C   C532      1.0  0.83448  0.04097  0.37983  1.0000
  C   C533      1.0  0.53667  0.03090  0.41250  1.0000
  H   H911      1.0  0.80051  0.02037  0.29758  1.0000
  H   H912      1.0  0.69003  0.20197  0.45353  1.0000
  H   H913      1.0  0.89587  0.04337  0.30707  1.0000
  H   H914      1.0  0.62967  0.15730  0.14326  1.0000
  H   H915      1.0  0.79325  0.20618  0.47481  1.0000
  H   H916      1.0  0.62417  0.12707  0.13212  1.0000
  C   C534      1.0  0.78971  0.33273  0.49594  1.0000
  C   C535      1.0  0.60909  0.12398  0.15296  1.0000
  C   C536      1.0  0.85990  0.02702  0.33430  1.0000
  C   C537      1.0  0.58392  0.15685  0.18936  1.0000
  H   H917      1.0  0.80619  0.16849  0.49114  1.0000
  H   H918      1.0  0.55425  0.13003  0.13462  1.0000
  C   C538      1.0  0.70643  0.02044  0.09801  1.0000
  C   C539      1.0  0.69041  0.03588  0.46301  1.0000
  H   H919      1.0  0.70036  0.01253  0.03088  1.0000
  H   H920      1.0  0.85788  0.03560  0.39366  1.0000
  H   H921      1.0  0.80178  0.16615  0.02199  1.0000
  H   H922      1.0  0.99722  0.20039  0.33021  1.0000
  H   H923      1.0  0.61270  0.00712  0.47540  1.0000
  C   C540      1.0  0.87133  0.17123  0.04859  1.0000
  C   C541      1.0  0.57757  0.00827  0.43515  1.0000
  C   C542      1.0  0.53417  0.16093  0.15091  1.0000
  H   H924      1.0  0.68612  0.02443  0.08049  1.0000
  H   H925      1.0  0.75749  0.03264  0.29868  1.0000
  C   C543      1.0  0.75004  0.00842  0.06031  1.0000
  H   H926      1.0  0.88141  0.15943  0.03680  1.0000
  C   C544      1.0  0.67680  0.03036  0.49079  1.0000
  H   H927      1.0  0.72391  0.26070  0.49540  1.0000
  H   H928      1.0  0.77359  0.18054  0.04552  1.0000
  H   H929      1.0  0.63933  0.00766  0.44128  1.0000
  H   H930      1.0  0.74431  0.01795  0.01501  1.0000
  H   H931      1.0  0.71989  0.32034  0.49897  1.0000
  C   C545      1.0  0.86535  0.04108  0.30983  1.0000
  S   S160      1.0  0.84601  0.00901  0.03946  1.0000
  C   C546      1.0  0.79849  0.26409  0.00435  1.0000
  H   H932      1.0  0.89138  0.17299  0.06717  1.0000
  C   C547      1.0  0.87218  0.18707  0.02705  1.0000
  C   C548      1.0  0.72778  0.01829  0.03583  1.0000
  C   C549      1.0  0.78785  0.20304  0.49854  1.0000
  C   C550      1.0  0.85237  0.21714  0.01539  1.0000
  H   H933      1.0  0.70308  0.18256  0.49587  1.0000
  H   H934      1.0  0.85849  0.01441  0.32244  1.0000
  H   H935      1.0  0.76006  0.17646  0.00860  1.0000
  H   H936      1.0  0.78592  0.20490  0.00795  1.0000
  H   H937      1.0  0.54628  0.02581  0.36526  1.0000
  C   C551      1.0  0.81611  0.01158  0.36702  1.0000
  C   C552      1.0  0.72361  0.19298  0.49113  1.0000
  H   H938      1.0  0.52618  0.22478  0.04628  1.0000
  H   H939      1.0  0.00798  0.22217  0.33953  1.0000
  H   H940      1.0  0.52423  0.08980  0.41276  1.0000
  C   C553      1.0  0.51809  0.19649  0.10083  1.0000
  N   N39       1.0  0.76254  0.18760  0.50135  1.0000
  H   H941      1.0  0.81595  0.33469  0.48297  1.0000
  H   H942      1.0  0.84667  0.00878  0.40942  1.0000
  H   H943      1.0  0.52927  0.00703  0.38608  1.0000
  Fe  Fe81      1.0  0.73855  0.30986  0.67028  1.0000
  S   S161      1.0  0.68673  0.32481  0.65571  1.0000
  S   S162      1.0  0.77515  0.31667  0.70986  1.0000
  Fe  Fe82      1.0  0.74241  0.28893  0.61242  1.0000
  S   S163      1.0  0.69061  0.30206  0.59333  1.0000
  S   S164      1.0  0.78424  0.26961  0.59238  1.0000
  H   H944      1.0  0.65890  0.03901  0.50346  1.0000
  C   C554      1.0  0.72139  0.31468  0.52148  1.0000
  Fe  Fe83      1.0  0.66606  0.29915  0.63907  1.0000
  S   S165      1.0  0.60798  0.28880  0.64968  1.0000
  S   S166      1.0  0.76805  0.31393  0.62680  1.0000
  S   S167      1.0  0.71637  0.28394  0.65706  1.0000
  Fe  Fe84      1.0  0.84860  0.32504  0.90901  1.0000
  S   S168      1.0  0.79830  0.30839  0.91659  1.0000
  H   H945      1.0  0.82632  0.20774  0.53576  1.0000
  Fe  Fe85      1.0  0.90120  0.29384  0.89768  1.0000
  S   S169      1.0  0.85464  0.27456  0.90362  1.0000
  S   S170      1.0  0.96031  0.28620  0.88260  1.0000
  Fe  Fe86      1.0  0.81899  0.29360  0.87672  1.0000
  S   S171      1.0  0.77701  0.28570  0.84127  1.0000
  Fe  Fe87      1.0  0.83746  0.29061  0.94296  1.0000
  H   H946      1.0  0.70916  0.31568  0.82384  1.0000
  S   S172      1.0  0.86668  0.31138  0.86762  1.0000
  S   S173      1.0  0.88658  0.30874  0.93848  1.0000
  H   H947      1.0  0.99044  0.32880  0.87050  1.0000
  H   H948      1.0  0.75995  0.32425  0.55419  1.0000
  H   H949      1.0  0.68090  0.31582  0.86789  1.0000
  C   C555      1.0  0.00238  0.30118  0.92718  1.0000
  H   H950      1.0  0.97676  0.30159  0.93999  1.0000
  C   C556      1.0  0.77429  0.30805  0.74633  1.0000
  C   C557      1.0  0.74621  0.29689  0.75616  1.0000
  C   C558      1.0  0.74759  0.28999  0.78523  1.0000
  C   C559      1.0  0.77677  0.29431  0.80474  1.0000
  C   C560      1.0  0.80472  0.30549  0.79485  1.0000
  C   C561      1.0  0.80340  0.31236  0.76584  1.0000
  H   H951      1.0  0.72351  0.29354  0.74140  1.0000
  H   H952      1.0  0.72578  0.28137  0.79275  1.0000
  H   H953      1.0  0.82748  0.30878  0.80951  1.0000
  H   H954      1.0  0.82528  0.32095  0.75841  1.0000
  C   C562      1.0  0.56370  0.31145  0.61532  1.0000
  C   C563      1.0  0.56490  0.29830  0.63701  1.0000
  H   H955      1.0  0.83720  0.18760  0.51657  1.0000
  H   H956      1.0  0.58960  0.31623  0.60607  1.0000
  S   S174      1.0  0.66594  0.00726  0.53655  1.0000
  H   H957      1.0  0.76340  0.30183  0.54830  1.0000
  H   H958      1.0  0.78894  0.02241  0.94160  1.0000
  C   C564      1.0  0.81322  0.24826  0.51325  1.0000
  H   H959      1.0  0.69686  0.31502  0.90525  1.0000
  C   C565      1.0  0.52886  0.31835  0.60538  1.0000
  C   C566      1.0  0.81377  0.25402  0.54281  1.0000
  C   C567      1.0  0.78216  0.26239  0.55525  1.0000
  H   H960      1.0  0.83892  0.25210  0.55602  1.0000
  H   H961      1.0  0.73974  0.23192  0.98331  1.0000
  C   C568      1.0  0.00215  0.29389  0.89894  1.0000
  H   H962      1.0  0.89369  0.01283  0.85379  1.0000
  H   H963      1.0  0.76602  0.32571  0.84544  1.0000
  H   H964      1.0  0.51904  0.01509  0.56166  1.0000
  C   C569      1.0  0.77776  0.25343  0.98576  1.0000
  H   H965      1.0  0.83371  0.21653  0.96880  1.0000
  H   H966      1.0  0.77365  0.21480  0.50773  1.0000
  H   H967      1.0  0.84259  0.27469  0.65274  1.0000
  C   C570      1.0  0.83789  0.28488  0.66941  1.0000
  H   H968      1.0  0.76602  0.20658  0.55608  1.0000
  H   H969      1.0  0.77892  0.25541  0.96201  1.0000
  H   H970      1.0  0.94835  0.33118  0.84936  1.0000
  C   C571      1.0  0.90696  0.01404  0.94868  1.0000
  S   S175      1.0  0.82802  0.28068  0.99034  1.0000
  H   H971      1.0  0.88901  0.02530  0.94154  1.0000
  H   H972      1.0  0.71816  0.19940  0.55230  1.0000
  C   C572      1.0  0.53089  0.29223  0.64871  1.0000
  H   H973      1.0  0.81545  0.19040  0.98814  1.0000
  H   H974      1.0  0.80865  0.28997  0.66751  1.0000
  C   C573      1.0  0.74773  0.19508  0.55587  1.0000
  H   H975      1.0  0.85294  0.32365  0.52204  1.0000
  C   C574      1.0  0.96052  0.33295  0.87178  1.0000
  H   H976      1.0  0.73520  0.32844  0.79752  1.0000
  C   C575      1.0  0.82795  0.32043  0.53579  1.0000
  C   C576      1.0  0.76022  0.18132  0.53306  1.0000
  H   H977      1.0  0.96434  0.33196  0.93465  1.0000
  H   H978      1.0  0.88483  0.02358  0.88874  1.0000
  H   H979      1.0  0.86473  0.30964  0.57014  1.0000
  H   H980      1.0  0.72522  0.27107  0.54730  1.0000
  H   H981      1.0  0.73023  0.31184  0.87658  1.0000
  C   C577      1.0  0.88098  0.01149  0.87611  1.0000
  H   H982      1.0  0.85636  0.29588  0.66351  1.0000
  H   H983      1.0  0.68578  0.32640  0.79366  1.0000
  C   C578      1.0  0.76072  0.31447  0.53615  1.0000
  H   H984      1.0  0.81781  0.30234  0.57321  1.0000
  N   N40       1.0  0.82695  0.26287  0.71286  1.0000
  C   C579      1.0  0.82682  0.26344  0.74634  1.0000
  C   C580      1.0  0.78653  0.26327  0.70274  1.0000
  C   C581      1.0  0.84675  0.27883  0.70144  1.0000
  C   C582      1.0  0.84750  0.24645  0.70389  1.0000
  C   C583      1.0  0.86506  0.26641  0.76155  1.0000
  C   C584      1.0  0.76205  0.24828  0.71413  1.0000
  C   C585      1.0  0.93994  0.01114  0.92687  1.0000
  C   C586      1.0  0.84813  0.24202  0.67063  1.0000
  H   H985      1.0  0.80757  0.27393  0.75414  1.0000
  H   H986      1.0  0.81589  0.25117  0.75609  1.0000
  H   H987      1.0  0.78395  0.26333  0.67829  1.0000
  H   H988      1.0  0.77261  0.27568  0.70954  1.0000
  H   H989      1.0  0.83958  0.29030  0.71541  1.0000
  H   H990      1.0  0.87779  0.27704  0.70314  1.0000
  H   H991      1.0  0.87752  0.24699  0.71061  1.0000
  H   H992      1.0  0.83719  0.23488  0.71629  1.0000
  H   H993      1.0  0.88595  0.25600  0.75662  1.0000
  H   H994      1.0  0.87665  0.27933  0.75592  1.0000
  H   H995      1.0  0.86082  0.26626  0.78596  1.0000
  H   H996      1.0  0.75722  0.24904  0.73836  1.0000
  H   H997      1.0  0.73392  0.24944  0.70346  1.0000
  H   H998      1.0  0.77395  0.23536  0.70828  1.0000
  C   C587      1.0  0.70458  0.31934  0.88251  1.0000
  H   H999      1.0  0.01128  0.00875  0.90411  1.0000
  C   C588      1.0  0.84010  0.30547  0.55705  1.0000
  H   H1000     1.0  0.87243  0.24809  0.65942  1.0000
  H   H1001     1.0  0.82209  0.24559  0.65850  1.0000
  H   H1002     1.0  0.85080  0.22768  0.66822  1.0000
  Fe  Fe88      1.0  0.71478  0.32675  0.61126  1.0000
  H   H1003     1.0  0.94335  0.02381  0.91503  1.0000
  H   H1004     1.0  0.73977  0.17062  0.53519  1.0000
  H   H1005     1.0  0.74917  0.18914  0.57841  1.0000
  N   N41       1.0  0.79425  0.31713  0.51633  1.0000
  C   C589      1.0  0.74985  0.26482  0.53794  1.0000
  H   H1006     1.0  0.78749  0.17554  0.54068  1.0000
  C   C590      1.0  0.75553  0.24013  0.99793  1.0000
  H   H1007     1.0  0.53153  0.28212  0.66558  1.0000
  H   H1008     1.0  0.82289  0.33188  0.55012  1.0000
  H   H1009     1.0  0.81035  0.03022  0.99221  1.0000
  H   H1010     1.0  0.84901  0.29355  0.54516  1.0000
  H   H1011     1.0  0.71025  0.30128  0.52064  1.0000
  H   H1012     1.0  0.85030  0.00996  0.87260  1.0000
  C   C591      1.0  0.80187  0.01256  0.95581  1.0000
  C   C592      1.0  0.82659  0.20114  0.51402  1.0000
  H   H1013     1.0  0.70165  0.32264  0.53501  1.0000
  C   C593      1.0  0.81393  0.01703  0.98449  1.0000
  H   H1014     1.0  0.71327  0.20450  0.50362  1.0000
  H   H1015     1.0  0.94526  0.32407  0.88683  1.0000
  H   H1016     1.0  0.52143  0.26721  0.54381  1.0000
  H   H1017     1.0  0.52416  0.24620  0.56004  1.0000
  C   C594      1.0  0.70867  0.32771  0.81020  1.0000
  H   H1018     1.0  0.91830  0.01759  0.97071  1.0000
  H   H1019     1.0  0.87996  0.20670  0.97525  1.0000
  H   H1020     1.0  0.52824  0.32845  0.58847  1.0000
  C   C595      1.0  0.74917  0.25889  0.50854  1.0000
  H   H1021     1.0  0.80222  0.28920  0.51295  1.0000
  H   H1022     1.0  0.96597  0.00911  0.94029  1.0000
  H   H1023     1.0  0.95463  0.01336  0.86859  1.0000
  H   H1024     1.0  0.87305  0.22984  0.97552  1.0000
  C   C596      1.0  0.86017  0.21725  0.98178  1.0000
  H   H1025     1.0  0.83781  0.24201  0.50382  1.0000
  C   C597      1.0  0.68609  0.01376  0.50235  1.0000
  Fe  Fe89      1.0  0.82677  0.53260  0.42054  1.0000
  S   S176      1.0  0.83194  0.55837  0.44299  1.0000
  S   S177      1.0  0.83074  0.50628  0.44434  1.0000
  Fe  Fe90      1.0  0.82955  0.54919  0.35825  1.0000
  S   S178      1.0  0.83668  0.57595  0.37636  1.0000
  S   S179      1.0  0.83156  0.54725  0.30808  1.0000
  Fe  Fe91      1.0  0.87663  0.56367  0.40911  1.0000
  S   S180      1.0  0.92863  0.57749  0.42448  1.0000
  Fe  Fe92      1.0  0.79159  0.56857  0.40818  1.0000
  S   S181      1.0  0.74269  0.58724  0.41620  1.0000
  S   S182      1.0  0.87398  0.53742  0.38839  1.0000
  S   S183      1.0  0.78193  0.54223  0.38839  1.0000
  Fe  Fe93      1.0  0.69153  0.55183  0.17493  1.0000
  S   S184      1.0  0.68090  0.57892  0.15760  1.0000
  S   S185      1.0  0.68712  0.54772  0.22478  1.0000
  Fe  Fe94      1.0  0.69685  0.53683  0.11182  1.0000
  S   S186      1.0  0.68721  0.56297  0.08993  1.0000
  S   S187      1.0  0.70555  0.51070  0.08931  1.0000
  Fe  Fe95      1.0  0.72627  0.57292  0.12495  1.0000
  S   S188      1.0  0.77475  0.59112  0.11834  1.0000
  Fe  Fe96      1.0  0.64247  0.56664  0.12466  1.0000
  S   S189      1.0  0.58649  0.58010  0.11602  1.0000
  S   S190      1.0  0.73980  0.54644  0.14438  1.0000
  S   S191      1.0  0.64942  0.53991  0.14429  1.0000
  C   C598      1.0  0.54505  0.56803  0.11915  1.0000
  C   C599      1.0  0.54642  0.54997  0.12308  1.0000
  H   H1026     1.0  0.74510  0.63771  0.15958  1.0000
  H   H1027     1.0  0.57309  0.54307  0.12276  1.0000
  H   H1028     1.0  0.81363  0.64956  0.45338  1.0000
  C   C600      1.0  0.76445  0.61292  0.10835  1.0000
  C   C601      1.0  0.72791  0.61833  0.10091  1.0000
  C   C602      1.0  0.72057  0.63575  0.09262  1.0000
  C   C603      1.0  0.74954  0.64791  0.09219  1.0000
  C   C604      1.0  0.78600  0.64252  0.09993  1.0000
  C   C605      1.0  0.79346  0.62504  0.10780  1.0000
  H   H1029     1.0  0.70538  0.60907  0.10118  1.0000
  H   H1030     1.0  0.69230  0.63984  0.08660  1.0000
  H   H1031     1.0  0.80854  0.65178  0.09947  1.0000
  H   H1032     1.0  0.82181  0.62091  0.11347  1.0000
  C   C606      1.0  0.79111  0.54633  0.28540  1.0000
  C   C607      1.0  0.79530  0.54738  0.25448  1.0000
  C   C608      1.0  0.76371  0.54773  0.23565  1.0000
  C   C609      1.0  0.72759  0.54686  0.24761  1.0000
  C   C610      1.0  0.72335  0.54566  0.27853  1.0000
  C   C611      1.0  0.75496  0.54544  0.29739  1.0000
  H   H1033     1.0  0.82317  0.54807  0.24506  1.0000
  H   H1034     1.0  0.76735  0.54862  0.21190  1.0000
  H   H1035     1.0  0.69552  0.54493  0.28796  1.0000
  H   H1036     1.0  0.75140  0.54461  0.32115  1.0000
  C   C612      1.0  0.74854  0.60956  0.40821  1.0000
  C   C613      1.0  0.71761  0.62109  0.41009  1.0000
  C   C614      1.0  0.72219  0.63912  0.40604  1.0000
  C   C615      1.0  0.75788  0.64570  0.40046  1.0000
  C   C616      1.0  0.78863  0.63413  0.39812  1.0000
  C   C617      1.0  0.78395  0.61614  0.40170  1.0000
  H   H1037     1.0  0.69014  0.61609  0.41522  1.0000
  H   H1038     1.0  0.69835  0.64796  0.40804  1.0000
  H   H1039     1.0  0.81633  0.63916  0.39388  1.0000
  H   H1040     1.0  0.80805  0.60748  0.40050  1.0000
  H   H1041     1.0  0.56409  0.58436  0.18391  1.0000
  C   C618      1.0  0.97164  0.57192  0.40748  1.0000
  C   C619      1.0  0.97303  0.56047  0.38367  1.0000
  C   C620      1.0  0.79336  0.65097  0.17525  1.0000
  H   H1042     1.0  0.94745  0.55494  0.37532  1.0000
  C   C621      1.0  0.86021  0.56105  0.02186  1.0000
  C   C622      1.0  0.71175  0.48961  0.04073  1.0000
  C   C623      1.0  0.70470  0.50662  0.05072  1.0000
  H   H1043     1.0  0.61240  0.53912  0.24665  1.0000
  H   H1044     1.0  0.71711  0.47925  0.05671  1.0000
  C   C624      1.0  0.79829  0.64815  0.47463  1.0000
  C   C625      1.0  0.82309  0.50329  0.48280  1.0000
  H   H1045     1.0  0.61074  0.55870  0.28820  1.0000
  C   C626      1.0  0.58320  0.57899  0.20139  1.0000
  H   H1046     1.0  0.57638  0.55567  0.17698  1.0000
  N   N42       1.0  0.81952  0.61623  0.48775  1.0000
  H   H1047     1.0  0.75380  0.63471  0.19779  1.0000
  H   H1048     1.0  0.65456  0.65039  0.15437  1.0000
  H   H1049     1.0  0.58332  0.50790  0.19095  1.0000
  C   C627      1.0  0.78788  0.62904  0.48075  1.0000
  H   H1050     1.0  0.85876  0.57355  0.03363  1.0000
  C   C628      1.0  0.79349  0.51181  0.49728  1.0000
  H   H1051     1.0  0.61120  0.58430  0.19599  1.0000
  H   H1052     1.0  0.00391  0.50567  0.43462  1.0000
  C   C629      1.0  0.82976  0.55314  0.09052  1.0000
  H   H1053     1.0  0.75673  0.42259  0.47637  1.0000
  C   C630      1.0  0.59643  0.56263  0.26719  1.0000
  C   C631      1.0  0.80642  0.59821  0.48017  1.0000
  H   H1054     1.0  0.80476  0.45573  0.47742  1.0000
  C   C632      1.0  0.88797  0.60798  0.47420  1.0000
  H   H1055     1.0  0.80254  0.57725  0.05011  1.0000
  H   H1056     1.0  0.69377  0.63988  0.21302  1.0000
  C   C633      1.0  0.85325  0.61985  0.46858  1.0000
  C   C634      1.0  0.78176  0.42357  0.49100  1.0000
  H   H1057     1.0  0.66808  0.65929  0.20650  1.0000
  C   C635      1.0  0.66653  0.64089  0.17068  1.0000
  N   N43       1.0  0.81211  0.54969  0.06078  1.0000
  N   N44       1.0  0.56338  0.54864  0.22226  1.0000
  H   H1058     1.0  0.89053  0.55797  0.01864  1.0000
  H   H1059     1.0  0.80600  0.42478  0.47560  1.0000
  H   H1060     1.0  0.74455  0.60098  0.48411  1.0000
  H   H1061     1.0  0.77201  0.65606  0.47203  1.0000
  H   H1062     1.0  0.71118  0.66187  0.13972  1.0000
  H   H1063     1.0  0.91071  0.61184  0.45875  1.0000
  C   C636      1.0  0.52565  0.55689  0.22906  1.0000
  H   H1064     1.0  0.61572  0.55500  0.20073  1.0000
  C   C637      1.0  0.75279  0.64482  0.18000  1.0000
  H   H1065     1.0  0.83247  0.51394  0.06524  1.0000
  H   H1066     1.0  0.76296  0.53729  0.07932  1.0000
  H   H1067     1.0  0.86760  0.48408  0.48739  1.0000
  H   H1068     1.0  0.80753  0.55532  0.10749  1.0000
  H   H1069     1.0  0.76662  0.62909  0.49881  1.0000
  C   C638      1.0  0.78705  0.53414  0.06447  1.0000
  H   H1070     1.0  0.64251  0.63376  0.18033  1.0000
  H   H1071     1.0  0.86453  0.53727  0.04786  1.0000
  C   C639      1.0  0.80593  0.51729  0.07674  1.0000
  H   H1072     1.0  0.61480  0.52547  0.19626  1.0000
  H   H1073     1.0  0.59924  0.51264  0.22747  1.0000
  C   C640      1.0  0.77894  0.45546  0.49123  1.0000
  C   C641      1.0  0.84162  0.54548  0.03784  1.0000
  H   H1074     1.0  0.56947  0.53772  0.26648  1.0000
  H   H1075     1.0  0.99801  0.52784  0.42064  1.0000
  C   C642      1.0  0.85677  0.56851  0.09217  1.0000
  C   C643      1.0  0.69782  0.51990  0.02988  1.0000
  H   H1076     1.0  0.77643  0.52136  0.48536  1.0000
  H   H1077     1.0  0.78225  0.55821  0.00457  1.0000
  N   N45       1.0  0.77808  0.60176  0.29429  1.0000
  C   C644      1.0  0.75653  0.59277  0.27016  1.0000
  C   C645      1.0  0.76767  0.59317  0.32332  1.0000
  C   C646      1.0  0.81940  0.59857  0.28868  1.0000
  C   C647      1.0  0.76815  0.62096  0.29313  1.0000
  C   C648      1.0  0.76671  0.59760  0.23792  1.0000
  C   C649      1.0  0.72532  0.59301  0.33037  1.0000
  C   C650      1.0  0.84700  0.60699  0.31026  1.0000
  C   C651      1.0  0.77305  0.63128  0.32208  1.0000
  H   H1078     1.0  0.76013  0.57848  0.27234  1.0000
  H   H1079     1.0  0.72580  0.59534  0.27221  1.0000
  H   H1080     1.0  0.78168  0.59916  0.34246  1.0000
  H   H1081     1.0  0.77782  0.57935  0.32388  1.0000
  H   H1082     1.0  0.82587  0.58431  0.28856  1.0000
  H   H1083     1.0  0.82770  0.60357  0.26651  1.0000
  H   H1084     1.0  0.78472  0.62758  0.27556  1.0000
  H   H1085     1.0  0.73802  0.62283  0.28692  1.0000
  H   H1086     1.0  0.79349  0.59116  0.23119  1.0000
  H   H1087     1.0  0.74477  0.59259  0.22281  1.0000
  H   H1088     1.0  0.76827  0.61183  0.23434  1.0000
  H   H1089     1.0  0.72143  0.58895  0.35382  1.0000
  H   H1090     1.0  0.71175  0.60599  0.32741  1.0000
  H   H1091     1.0  0.71064  0.58328  0.31677  1.0000
  H   H1092     1.0  0.84726  0.62132  0.30717  1.0000
  H   H1093     1.0  0.87587  0.60210  0.30536  1.0000
  H   H1094     1.0  0.84154  0.60360  0.33368  1.0000
  H   H1095     1.0  0.77954  0.64500  0.31637  1.0000
  H   H1096     1.0  0.79593  0.62655  0.33675  1.0000
  H   H1097     1.0  0.74631  0.63200  0.33469  1.0000
  H   H1098     1.0  0.78667  0.50626  0.07345  1.0000
  H   H1099     1.0  0.00409  0.58804  0.43631  1.0000
  H   H1100     1.0  0.72131  0.65475  0.25070  1.0000
  H   H1101     1.0  0.86518  0.57022  0.11567  1.0000
  H   H1102     1.0  0.62770  0.47924  0.01259  1.0000
  H   H1103     1.0  0.84366  0.58105  0.08503  1.0000
  H   H1104     1.0  0.78930  0.39543  0.49070  1.0000
  H   H1105     1.0  0.82927  0.53744  0.01998  1.0000
  H   H1106     1.0  0.71832  0.45890  0.48090  1.0000
  H   H1107     1.0  0.75230  0.57576  0.01642  1.0000
  H   H1108     1.0  0.77238  0.62502  0.46063  1.0000
  H   H1109     1.0  0.76620  0.56759  0.06988  1.0000
  H   H1110     1.0  0.86314  0.63334  0.47082  1.0000
  C   C652      1.0  0.55594  0.53083  0.20986  1.0000
  C   C653      1.0  0.58557  0.55889  0.19976  1.0000
  H   H1111     1.0  0.74935  0.47061  0.45743  1.0000
  C   C654      1.0  0.78705  0.56495  0.05208  1.0000
  C   C655      1.0  0.00759  0.55628  0.37039  1.0000
  H   H1112     1.0  0.82695  0.58805  0.48789  1.0000
  S   S192      1.0  0.76604  0.66821  0.39810  1.0000
  H   H1113     1.0  0.84563  0.61877  0.44471  1.0000
  C   C656      1.0  0.58529  0.54609  0.25070  1.0000
  C   C657      1.0  0.74620  0.66100  0.24079  1.0000
  H   H1114     1.0  0.88295  0.56587  0.07963  1.0000
  H   H1115     1.0  0.81072  0.51807  0.10100  1.0000
  H   H1116     1.0  0.88232  0.59414  0.46963  1.0000
  H   H1117     1.0  0.61727  0.57014  0.25431  1.0000
  C   C658      1.0  0.74577  0.45804  0.46948  1.0000
  H   H1118     1.0  0.71758  0.47273  0.00287  1.0000
  H   H1119     1.0  0.57198  0.57091  0.27330  1.0000
  H   H1120     1.0  0.76245  0.57929  0.48614  1.0000
  H   H1121     1.0  0.54245  0.53195  0.18761  1.0000
  H   H1122     1.0  0.77429  0.53053  0.04292  1.0000
  C   C659      1.0  0.59056  0.51868  0.20600  1.0000
  H   H1123     1.0  0.84661  0.54170  0.09848  1.0000
  H   H1124     1.0  0.57529  0.58436  0.22308  1.0000
  C   C660      1.0  0.76461  0.56291  0.02308  1.0000
  H   H1125     1.0  0.81463  0.65394  0.49270  1.0000
  C   C661      1.0  0.68796  0.65001  0.19572  1.0000
  H   H1126     1.0  0.68436  0.63120  0.15900  1.0000
  H   H1127     1.0  0.74526  0.44776  0.45248  1.0000
  C   C662      1.0  0.71799  0.66987  0.15924  1.0000
  H   H1128     1.0  0.69185  0.53298  0.03729  1.0000
  H   H1129     1.0  0.80447  0.59667  0.45571  1.0000
  H   H1130     1.0  0.81162  0.63949  0.17035  1.0000
  C   C663      1.0  0.71210  0.48588  0.01022  1.0000
  H   H1131     1.0  0.52819  0.56988  0.23905  1.0000
  H   H1132     1.0  0.80532  0.65724  0.19504  1.0000
  C   C664      1.0  0.84465  0.49072  0.49845  1.0000
  H   H1133     1.0  0.74072  0.55404  0.02631  1.0000
  C   C665      1.0  0.76810  0.59284  0.49304  1.0000
  H   H1134     1.0  0.99592  0.51003  0.39608  1.0000
  H   H1135     1.0  0.53563  0.52366  0.22404  1.0000
  N   N46       1.0  0.72378  0.65879  0.18663  1.0000
  H   H1136     1.0  0.76936  0.65133  0.23830  1.0000
  H   H1137     1.0  0.79539  0.65985  0.15594  1.0000
  C   C666      1.0  0.00505  0.57913  0.41794  1.0000
  H   H1138     1.0  0.89914  0.60928  0.49699  1.0000
  H   H1139     1.0  0.77388  0.36019  0.49382  1.0000
  H   H1140     1.0  0.00842  0.54742  0.35193  1.0000
  H   H1141     1.0  0.62165  0.45694  0.00349  1.0000
  C   C667      1.0  0.01041  0.51476  0.41619  1.0000
  H   H1142     1.0  0.75591  0.67080  0.25687  1.0000
  C   C668      1.0  0.73640  0.67035  0.21129  1.0000
  S   S193      1.0  0.73880  0.66974  0.08256  1.0000
  Fe  Fe97      1.0  0.88795  0.45694  0.64360  1.0000
  S   S194      1.0  0.83485  0.47221  0.65341  1.0000
  S   S195      1.0  0.94312  0.46735  0.65995  1.0000
  Fe  Fe98      1.0  0.84590  0.42893  0.61099  1.0000
  S   S196      1.0  0.79026  0.44220  0.61751  1.0000
  S   S197      1.0  0.85194  0.40263  0.58943  1.0000
  Fe  Fe99      1.0  0.82026  0.46688  0.60584  1.0000
  S   S198      1.0  0.79101  0.48796  0.57807  1.0000
  Fe  Fe100     1.0  0.80999  0.44626  0.66421  1.0000
  S   S199      1.0  0.76788  0.43869  0.69956  1.0000
  S   S200      1.0  0.87484  0.45323  0.59545  1.0000
  S   S201      1.0  0.86418  0.43144  0.65833  1.0000
  Fe  Fe101     1.0  0.74026  0.45415  0.86783  1.0000
  S   S202      1.0  0.69782  0.43299  0.86569  1.0000
  S   S203      1.0  0.78680  0.45837  0.83436  1.0000
  Fe  Fe102     1.0  0.70687  0.46968  0.92541  1.0000
  S   S204      1.0  0.66246  0.44921  0.92764  1.0000
  S   S205      1.0  0.70514  0.49534  0.95070  1.0000
  Fe  Fe103     1.0  0.70886  0.43039  0.91464  1.0000
  S   S206      1.0  0.71228  0.40355  0.93576  1.0000
  Fe  Fe104     1.0  0.65550  0.45355  0.87879  1.0000
  S   S207      1.0  0.60049  0.45986  0.85547  1.0000
  S   S208      1.0  0.75408  0.45048  0.91629  1.0000
  S   S209      1.0  0.69717  0.47498  0.87686  1.0000
  H   H1143     1.0  0.92062  0.34181  0.92533  1.0000
  H   H1144     1.0  0.83316  0.35993  0.65760  1.0000
  H   H1145     1.0  0.93318  0.34021  0.97896  1.0000
  C   C669      1.0  0.59868  0.50535  0.97749  1.0000
  H   H1146     1.0  0.69354  0.52660  0.98341  1.0000
  C   C670      1.0  0.75221  0.39034  0.92857  1.0000
  C   C671      1.0  0.78191  0.39650  0.91140  1.0000
  C   C672      1.0  0.81260  0.38545  0.90480  1.0000
  C   C673      1.0  0.81358  0.36811  0.91493  1.0000
  C   C674      1.0  0.78409  0.36197  0.93234  1.0000
  C   C675      1.0  0.75358  0.37310  0.93924  1.0000
  H   H1147     1.0  0.78112  0.40976  0.90307  1.0000
  H   H1148     1.0  0.83534  0.39030  0.89137  1.0000
  H   H1149     1.0  0.78479  0.34868  0.94052  1.0000
  H   H1150     1.0  0.73077  0.36829  0.95265  1.0000
  C   C676      1.0  0.95574  0.35220  0.88063  1.0000
  C   C677      1.0  0.55833  0.45371  0.87267  1.0000
  C   C678      1.0  0.55826  0.44187  0.89642  1.0000
  N   N47       1.0  0.58031  0.49084  0.96074  1.0000
  H   H1151     1.0  0.58447  0.43625  0.90451  1.0000
  C   C679      1.0  0.52414  0.46078  0.86220  1.0000
  H   H1152     1.0  0.86440  0.62929  0.55214  1.0000
  H   H1153     1.0  0.87311  0.39760  0.68781  1.0000
  H   H1154     1.0  0.53471  0.50739  0.94341  1.0000
  H   H1155     1.0  0.70376  0.35529  0.81206  1.0000
  C   C680      1.0  0.77644  0.44201  0.73754  1.0000
  C   C681      1.0  0.80820  0.45071  0.74730  1.0000
  C   C682      1.0  0.81198  0.45485  0.77742  1.0000
  C   C683      1.0  0.78411  0.45031  0.79795  1.0000
  C   C684      1.0  0.75317  0.44093  0.78835  1.0000
  C   C685      1.0  0.74939  0.43677  0.75825  1.0000
  H   H1156     1.0  0.82925  0.45476  0.73151  1.0000
  H   H1157     1.0  0.83599  0.46213  0.78470  1.0000
  H   H1158     1.0  0.73156  0.43738  0.80396  1.0000
  H   H1159     1.0  0.72475  0.43003  0.75082  1.0000
  C   C686      1.0  0.81301  0.38881  0.58947  1.0000
  C   C687      1.0  0.81898  0.37074  0.59130  1.0000
  C   C688      1.0  0.78847  0.35940  0.59080  1.0000
  C   C689      1.0  0.75189  0.36604  0.58734  1.0000
  C   C690      1.0  0.74598  0.38409  0.58477  1.0000
  C   C691      1.0  0.77636  0.39547  0.58654  1.0000
  H   H1160     1.0  0.84730  0.36553  0.59344  1.0000
  H   H1161     1.0  0.71802  0.43544  0.51253  1.0000
  H   H1162     1.0  0.71772  0.38929  0.58201  1.0000
  H   H1163     1.0  0.77148  0.40936  0.58504  1.0000
  C   C692      1.0  0.98477  0.45971  0.64313  1.0000
  H   H1164     1.0  0.68615  0.37355  0.89211  1.0000
  C   C693      1.0  0.98593  0.44406  0.62760  1.0000
  H   H1165     1.0  0.96483  0.40222  0.90355  1.0000
  H   H1166     1.0  0.96042  0.43688  0.62436  1.0000
  N   N48       1.0  0.71484  0.49629  0.76089  1.0000
  C   C694      1.0  0.68078  0.49070  0.77818  1.0000
  C   C695      1.0  0.70839  0.51483  0.75052  1.0000
  C   C696      1.0  0.74977  0.49548  0.77977  1.0000
  C   C697      1.0  0.72037  0.48416  0.73522  1.0000
  C   C698      1.0  0.68349  0.47262  0.79333  1.0000
  C   C699      1.0  0.67965  0.51746  0.72514  1.0000
  C   C700      1.0  0.74776  0.50542  0.80921  1.0000
  C   C701      1.0  0.75331  0.48830  0.71418  1.0000
  H   H1167     1.0  0.67347  0.50029  0.79564  1.0000
  H   H1168     1.0  0.65563  0.49038  0.76357  1.0000
  H   H1169     1.0  0.73508  0.52090  0.74335  1.0000
  H   H1170     1.0  0.69838  0.52307  0.76913  1.0000
  H   H1171     1.0  0.75781  0.48183  0.78510  1.0000
  H   H1172     1.0  0.77427  0.50061  0.76735  1.0000
  H   H1173     1.0  0.72622  0.47072  0.74342  1.0000
  H   H1174     1.0  0.69424  0.48274  0.72193  1.0000
  H   H1175     1.0  0.65770  0.47055  0.80664  1.0000
  H   H1176     1.0  0.68484  0.46200  0.77696  1.0000
  H   H1177     1.0  0.70748  0.47138  0.80891  1.0000
  H   H1178     1.0  0.67563  0.53163  0.72077  1.0000
  H   H1179     1.0  0.68979  0.51165  0.70418  1.0000
  H   H1180     1.0  0.65179  0.51220  0.73083  1.0000
  H   H1181     1.0  0.77528  0.50392  0.82075  1.0000
  H   H1182     1.0  0.72649  0.50000  0.82448  1.0000
  H   H1183     1.0  0.74244  0.51953  0.80566  1.0000
  H   H1184     1.0  0.78006  0.48246  0.72265  1.0000
  H   H1185     1.0  0.75736  0.50237  0.71046  1.0000
  H   H1186     1.0  0.74746  0.48286  0.69196  1.0000
  C   C702      1.0  0.79016  0.34896  0.82738  1.0000
  H   H1187     1.0  0.81273  0.36060  0.71387  1.0000
  H   H1188     1.0  0.74023  0.37313  0.83945  1.0000
  H   H1189     1.0  0.80306  0.35494  0.52479  1.0000
  H   H1190     1.0  0.84732  0.60493  0.52672  1.0000
  H   H1191     1.0  0.75222  0.41002  0.65573  1.0000
  H   H1192     1.0  0.70398  0.45199  0.55716  1.0000
  H   H1193     1.0  0.82170  0.38880  0.65606  1.0000
  H   H1194     1.0  0.79043  0.38721  0.73606  1.0000
  H   H1195     1.0  0.71777  0.38917  0.74634  1.0000
  C   C703      1.0  0.94939  0.34473  0.93319  1.0000
  H   H1196     1.0  0.71147  0.39896  0.64364  1.0000
  C   C704      1.0  0.95678  0.37533  0.91690  1.0000
  C   C705      1.0  0.73113  0.45434  0.54588  1.0000
  H   H1197     1.0  0.59127  0.52714  0.94505  1.0000
  H   H1198     1.0  0.74211  0.36825  0.74695  1.0000
  C   C706      1.0  0.73206  0.39982  0.66207  1.0000
  H   H1199     1.0  0.79328  0.34553  0.59273  1.0000
  H   H1200     1.0  0.78202  0.34029  0.87222  1.0000
  H   H1201     1.0  0.71300  0.37505  0.71613  1.0000
  H   H1202     1.0  0.72969  0.37206  0.67012  1.0000
  H   H1203     1.0  0.86254  0.37586  0.69759  1.0000
  H   H1204     1.0  0.76789  0.35449  0.70175  1.0000
  H   H1205     1.0  0.72783  0.34218  0.90220  1.0000
  C   C707      1.0  0.60067  0.48717  0.93214  1.0000
  H   H1206     1.0  0.64498  0.47094  0.97800  1.0000
  C   C708      1.0  0.80581  0.49452  0.54225  1.0000
  C   C709      1.0  0.73342  0.37953  0.73273  1.0000
  C   C710      1.0  0.76804  0.38831  0.71890  1.0000
  H   H1207     1.0  0.84753  0.39375  0.72100  1.0000
  N   N49       1.0  0.72679  0.34708  0.85487  1.0000
  C   C711      1.0  0.52407  0.43691  0.90926  1.0000
  C   C712      1.0  0.83656  0.48659  0.52823  1.0000
  H   H1208     1.0  0.96395  0.38786  0.87299  1.0000
  S   S210      1.0  0.85144  0.35443  0.90445  1.0000
  C   C713      1.0  0.80966  0.35284  0.66788  1.0000
  C   C714      1.0  0.79277  0.36215  0.69499  1.0000
  H   H1209     1.0  0.80808  0.42958  0.54952  1.0000
  N   N50       1.0  0.78176  0.38097  0.69000  1.0000
  H   H1210     1.0  0.76380  0.37849  0.64462  1.0000
  H   H1211     1.0  0.57236  0.50863  0.90645  1.0000
  C   C715      1.0  0.69351  0.37619  0.86860  1.0000
  H   H1212     1.0  0.52496  0.49713  0.97752  1.0000
  H   H1213     1.0  0.57548  0.46282  0.96666  1.0000
  H   H1214     1.0  0.66954  0.37315  0.85397  1.0000
  C   C716      1.0  0.59935  0.50139  0.90782  1.0000
  C   C717      1.0  0.85116  0.38936  0.69787  1.0000
  C   C718      1.0  0.53919  0.49502  0.95586  1.0000
  H   H1215     1.0  0.75386  0.34918  0.52477  1.0000
  H   H1216     1.0  0.60243  0.49512  0.88587  1.0000
  C   C719      1.0  0.72994  0.36640  0.85975  1.0000
  H   H1217     1.0  0.52407  0.47002  0.84394  1.0000
  H   H1218     1.0  0.80722  0.40567  0.67972  1.0000
  H   H1219     1.0  0.76781  0.59288  0.51757  1.0000
  H   H1220     1.0  0.80094  0.36140  0.83600  1.0000
  H   H1221     1.0  0.96340  0.37946  0.93972  1.0000
  H   H1222     1.0  0.82454  0.64228  0.53982  1.0000
  H   H1223     1.0  0.75120  0.36896  0.87703  1.0000
  C   C720      1.0  0.75170  0.38194  0.66643  1.0000
  H   H1224     1.0  0.59155  0.47478  0.92205  1.0000
  H   H1225     1.0  0.97109  0.35978  0.86354  1.0000
  H   H1226     1.0  0.62288  0.51054  0.91060  1.0000
  C   C721      1.0  0.70572  0.49920  0.98938  1.0000
  C   C722      1.0  0.81462  0.39154  0.67959  1.0000
  H   H1227     1.0  0.76254  0.40258  0.71734  1.0000
  S   S211      1.0  0.71323  0.35213  0.58536  1.0000
  H   H1228     1.0  0.71615  0.40387  0.68200  1.0000
  H   H1229     1.0  0.63096  0.48468  0.93646  1.0000
  H   H1230     1.0  0.78021  0.46734  0.50494  1.0000
  C   C723      1.0  0.77962  0.35010  0.51112  1.0000
  H   H1231     1.0  0.74311  0.42712  0.54356  1.0000
  H   H1232     1.0  0.80951  0.45236  0.54468  1.0000
  H   H1233     1.0  0.52812  0.47948  0.91633  1.0000
  H   H1234     1.0  0.75979  0.40272  0.52003  1.0000
  H   H1235     1.0  0.92543  0.35570  0.87760  1.0000
  H   H1236     1.0  0.69821  0.39043  0.86697  1.0000
  C   C724      1.0  0.78469  0.50731  0.52677  1.0000
  C   C725      1.0  0.84662  0.63285  0.53265  1.0000
  H   H1237     1.0  0.52414  0.42749  0.92726  1.0000
  H   H1238     1.0  0.77452  0.35146  0.80647  1.0000
  H   H1239     1.0  0.86590  0.63932  0.51708  1.0000
  H   H1240     1.0  0.97022  0.35543  0.97560  1.0000
  H   H1241     1.0  0.67162  0.34440  0.83515  1.0000
  H   H1242     1.0  0.78762  0.35052  0.65107  1.0000
  H   H1243     1.0  0.80322  0.61420  0.53375  1.0000
  H   H1244     1.0  0.85352  0.47699  0.54006  1.0000
  H   H1245     1.0  0.92228  0.36169  0.96607  1.0000
  C   C726      1.0  0.94394  0.35112  0.96519  1.0000
  C   C727      1.0  0.62161  0.47035  0.99403  1.0000
  H   H1246     1.0  0.82098  0.33989  0.67489  1.0000
  C   C728      1.0  0.76607  0.33973  0.85096  1.0000
  H   H1247     1.0  0.72724  0.46628  0.53215  1.0000
  H   H1248     1.0  0.55839  0.52745  0.97564  1.0000
  H   H1249     1.0  0.00515  0.38871  0.89688  1.0000
  C   C729      1.0  0.74198  0.43822  0.52753  1.0000
  C   C730      1.0  0.81042  0.43996  0.53225  1.0000
  C   C731      1.0  0.82893  0.61626  0.52032  1.0000
  H   H1250     1.0  0.75198  0.45673  0.56350  1.0000
  H   H1251     1.0  0.84840  0.56287  0.99921  1.0000
  C   C732      1.0  0.85018  0.43841  0.51876  1.0000
  H   H1252     1.0  0.87137  0.43935  0.53669  1.0000
  H   H1253     1.0  0.76093  0.51353  0.53745  1.0000
  C   C733      1.0  0.97402  0.38909  0.89612  1.0000
  H   H1254     1.0  0.92556  0.37671  0.91513  1.0000
  C   C734      1.0  0.58290  0.47449  0.97971  1.0000
  N   N51       1.0  0.96869  0.35671  0.91148  1.0000
  H   H1255     1.0  0.85590  0.44902  0.50268  1.0000
  C   C735      1.0  0.01072  0.35399  0.91275  1.0000
  C   C736      1.0  0.58762  0.52423  0.96885  1.0000
  H   H1256     1.0  0.60615  0.53320  0.98104  1.0000
  H   H1257     1.0  0.85538  0.42566  0.50821  1.0000
  H   H1258     1.0  0.01177  0.44247  0.74180  1.0000
  H   H1259     1.0  0.56233  0.47506  0.99827  1.0000
  H   H1260     1.0  0.81021  0.40499  0.52231  1.0000
  C   C737      1.0  0.69869  0.51622  0.99938  1.0000
  H   H1261     1.0  0.62975  0.50423  0.97566  1.0000
  C   C738      1.0  0.71018  0.33915  0.88254  1.0000
  H   H1262     1.0  0.81515  0.34067  0.82234  1.0000
  C   C739      1.0  0.78549  0.40583  0.50734  1.0000
  H   H1263     1.0  0.68188  0.34479  0.88720  1.0000
  C   C740      1.0  0.70167  0.34434  0.82833  1.0000
  N   N52       1.0  0.77826  0.43930  0.51049  1.0000
  H   H1264     1.0  0.51655  0.46853  0.95086  1.0000
  C   C741      1.0  0.51698  0.48123  0.93900  1.0000
  H   H1265     1.0  0.59234  0.50429  0.00162  1.0000
  Fe  Fe105     1.0  0.71981  0.68867  0.39278  1.0000
  S   S212      1.0  0.73916  0.71299  0.36950  1.0000
  H   H1266     1.0  0.78048  0.74645  0.36940  1.0000
  Fe  Fe106     1.0  0.64009  0.70317  0.40042  1.0000
  S   S213      1.0  0.65384  0.72822  0.37742  1.0000
  S   S214      1.0  0.58366  0.69842  0.42255  1.0000
  Fe  Fe107     1.0  0.68491  0.71152  0.34454  1.0000
  S   S215      1.0  0.67661  0.71720  0.29536  1.0000
  Fe  Fe108     1.0  0.70708  0.72751  0.40461  1.0000
  S   S216      1.0  0.72600  0.75327  0.42421  1.0000
  S   S217      1.0  0.66718  0.68630  0.36560  1.0000
  S   S218      1.0  0.69166  0.70336  0.42977  1.0000
  Fe  Fe109     1.0  0.78413  0.73061  0.08818  1.0000
  S   S219      1.0  0.80750  0.70824  0.06247  1.0000
  S   S220      1.0  0.75890  0.75501  0.06576  1.0000
  Fe  Fe110     1.0  0.80218  0.71256  0.14829  1.0000
  S   S221      1.0  0.82759  0.68906  0.12604  1.0000
  S   S222      1.0  0.80592  0.71148  0.19874  1.0000
  Fe  Fe111     1.0  0.85520  0.70822  0.09549  1.0000
  S   S223      1.0  0.91402  0.70546  0.07639  1.0000
  Fe  Fe112     1.0  0.77801  0.69126  0.09548  1.0000
  H   H1267     1.0  0.76896  0.77749  0.36892  1.0000
  S   S224      1.0  0.83354  0.73167  0.11966  1.0000
  S   S225      1.0  0.75082  0.71369  0.11933  1.0000
  C   C742      1.0  0.95550  0.70985  0.09663  1.0000
  C   C743      1.0  0.99064  0.70636  0.08362  1.0000
  C   C744      1.0  0.95422  0.71714  0.12486  1.0000
  H   H1268     1.0  0.99191  0.70077  0.06177  1.0000
  H   H1269     1.0  0.92739  0.71994  0.13510  1.0000
  C   C745      1.0  0.71219  0.71444  0.26842  1.0000
  C   C746      1.0  0.70446  0.71912  0.23879  1.0000
  C   C747      1.0  0.73278  0.71825  0.21708  1.0000
  C   C748      1.0  0.76910  0.71269  0.22489  1.0000
  C   C749      1.0  0.77675  0.70796  0.25450  1.0000
  C   C750      1.0  0.74841  0.70871  0.27615  1.0000
  H   H1270     1.0  0.67658  0.72374  0.23269  1.0000
  H   H1271     1.0  0.72674  0.72220  0.19446  1.0000
  H   H1272     1.0  0.80483  0.70366  0.26070  1.0000
  H   H1273     1.0  0.75470  0.70502  0.29885  1.0000
  H   H1274     1.0  0.92394  0.77579  0.04139  1.0000
  C   C751      1.0  0.54058  0.70720  0.40878  1.0000
  H   H1275     1.0  0.77056  0.73522  0.31602  1.0000
  H   H1276     1.0  0.56343  0.71780  0.36849  1.0000
  H   H1277     1.0  0.81048  0.00218  0.34904  1.0000
  H   H1278     1.0  0.66465  0.68168  0.17623  1.0000
  C   C752      1.0  0.75611  0.75928  0.02701  1.0000
  H   H1279     1.0  0.73017  0.78456  0.03286  1.0000
  H   H1280     1.0  0.84788  0.97741  0.00678  1.0000
  C   C753      1.0  0.74829  0.77340  0.47108  1.0000
  C   C754      1.0  0.74367  0.75636  0.46070  1.0000
  H   H1281     1.0  0.65773  0.00138  0.06667  1.0000
  H   H1282     1.0  0.72591  0.97753  0.07936  1.0000
  H   H1283     1.0  0.74156  0.78435  0.45663  1.0000
  C   C755      1.0  0.59508  0.75687  0.42966  1.0000
  H   H1284     1.0  0.81806  0.75957  0.35428  1.0000
  H   H1285     1.0  0.61143  0.76870  0.42464  1.0000
  C   C756      1.0  0.74026  0.77518  0.01691  1.0000
  H   H1286     1.0  0.83779  0.98891  0.39124  1.0000
  H   H1287     1.0  0.76108  0.67810  0.20435  1.0000
  N   N53       1.0  0.75109  0.76202  0.31529  1.0000
  C   C757      1.0  0.73687  0.76026  0.28388  1.0000
  C   C758      1.0  0.71859  0.75813  0.33556  1.0000
  C   C759      1.0  0.78164  0.74843  0.32022  1.0000
  C   C760      1.0  0.76601  0.78014  0.31900  1.0000
  C   C761      1.0  0.76662  0.76090  0.25908  1.0000
  C   C762      1.0  0.68324  0.76976  0.33112  1.0000
  C   C763      1.0  0.80060  0.74795  0.35093  1.0000
  C   C764      1.0  0.76722  0.78734  0.35092  1.0000
  H   H1288     1.0  0.72165  0.74789  0.28129  1.0000
  H   H1289     1.0  0.71584  0.77070  0.27837  1.0000
  H   H1290     1.0  0.72632  0.75882  0.35924  1.0000
  H   H1291     1.0  0.70966  0.74443  0.33269  1.0000
  H   H1292     1.0  0.91700  0.77593  0.46976  1.0000
  H   H1293     1.0  0.80514  0.75020  0.30437  1.0000
  H   H1294     1.0  0.79483  0.78098  0.30958  1.0000
  H   H1295     1.0  0.74848  0.78967  0.30600  1.0000
  H   H1296     1.0  0.78324  0.74855  0.25811  1.0000
  H   H1297     1.0  0.75214  0.76224  0.23731  1.0000
  H   H1298     1.0  0.78559  0.77209  0.26129  1.0000
  H   H1299     1.0  0.53481  0.74173  0.47308  1.0000
  H   H1300     1.0  0.66406  0.76785  0.35022  1.0000
  H   H1301     1.0  0.68987  0.78376  0.32981  1.0000
  C   C765      1.0  0.92816  0.76222  0.03353  1.0000
  C   C766      1.0  0.70789  0.98841  0.08756  1.0000
  H   H1302     1.0  0.67712  0.73417  0.48244  1.0000
  N   N54       1.0  0.73015  0.00485  0.08926  1.0000
  H   H1303     1.0  0.74928  0.72918  0.47205  1.0000
  H   H1304     1.0  0.98660  0.72650  0.16174  1.0000
  H   H1305     1.0  0.78061  0.73488  0.01349  1.0000
  C   C767      1.0  0.68836  0.68472  0.16143  1.0000
  H   H1306     1.0  0.76093  0.99611  0.05040  1.0000
  H   H1307     1.0  0.74454  0.67628  0.15274  1.0000
  H   H1308     1.0  0.74281  0.79620  0.35492  1.0000
  H   H1309     1.0  0.96809  0.76066  0.07042  1.0000
  H   H1310     1.0  0.84887  0.81666  0.48265  1.0000
  H   H1311     1.0  0.55335  0.00464  0.44941  1.0000
  H   H1312     1.0  0.56847  0.76060  0.44073  1.0000
  H   H1313     1.0  0.71425  0.68026  0.21651  1.0000
  H   H1314     1.0  0.97446  0.80610  0.49414  1.0000
  H   H1315     1.0  0.86517  0.75970  0.46289  1.0000
  C   C768      1.0  0.76900  0.74728  0.00612  1.0000
  C   C769      1.0  0.55604  0.73553  0.48809  1.0000
  H   H1316     1.0  0.68079  0.98501  0.04428  1.0000
  H   H1317     1.0  0.62315  0.77567  0.47311  1.0000
  H   H1318     1.0  0.67837  0.72371  0.02671  1.0000
  H   H1319     1.0  0.88598  0.76965  0.08295  1.0000
  H   H1320     1.0  0.71693  0.98994  0.49457  1.0000
  H   H1321     1.0  0.77802  0.97484  0.10657  1.0000
  C   C770      1.0  0.90783  0.77075  0.49167  1.0000
  H   H1322     1.0  0.85410  0.79528  0.46825  1.0000
  C   C771      1.0  0.98784  0.72085  0.13991  1.0000
  H   H1323     1.0  0.94769  0.76371  0.01453  1.0000
  H   H1324     1.0  0.97699  0.78381  0.48097  1.0000
  C   C772      1.0  0.53829  0.71590  0.38145  1.0000
  C   C773      1.0  0.70962  0.00276  0.48595  1.0000
  H   H1325     1.0  0.74167  0.99973  0.44573  1.0000
  H   H1326     1.0  0.79240  0.79554  0.35325  1.0000
  H   H1327     1.0  0.66751  0.76596  0.31100  1.0000
  H   H1328     1.0  0.84658  0.72409  0.01290  1.0000
  C   C774      1.0  0.95075  0.75170  0.05721  1.0000
  H   H1329     1.0  0.81998  0.73647  0.35216  1.0000
  C   C775      1.0  0.79002  0.98803  0.10717  1.0000
  C   C776      1.0  0.86964  0.76176  0.48696  1.0000
  H   H1330     1.0  0.93289  0.74502  0.07362  1.0000
  H   H1331     1.0  0.70151  0.69683  0.16917  1.0000
  C   C777      1.0  0.85590  0.80295  0.48884  1.0000
  C   C778      1.0  0.75980  0.00225  0.11300  1.0000
  H   H1332     1.0  0.57326  0.76182  0.49346  1.0000
  C   C779      1.0  0.63609  0.71543  0.49568  1.0000
  H   H1333     1.0  0.86949  0.77985  0.01123  1.0000
  H   H1334     1.0  0.67577  0.68719  0.13918  1.0000
  C   C780      1.0  0.61868  0.74357  0.44795  1.0000
  H   H1335     1.0  0.58764  0.75102  0.40806  1.0000
  C   C781      1.0  0.86019  0.76718  0.06995  1.0000
  H   H1336     1.0  0.81071  0.98799  0.12565  1.0000
  N   N55       1.0  0.62340  0.74766  0.48032  1.0000
  H   H1337     1.0  0.57553  0.99960  0.41588  1.0000
  H   H1338     1.0  0.60606  0.73075  0.44454  1.0000
  H   H1339     1.0  0.62883  0.71026  0.47367  1.0000
  C   C782      1.0  0.75241  0.74236  0.47970  1.0000
  H   H1340     1.0  0.87436  0.74005  0.06286  1.0000
  H   H1341     1.0  0.83768  0.76426  0.08613  1.0000
  H   H1342     1.0  0.66736  0.76539  0.46724  1.0000
  H   H1343     1.0  0.92837  0.76013  0.49753  1.0000
  H   H1344     1.0  0.69918  0.98380  0.10996  1.0000
  C   C783      1.0  0.97796  0.79221  0.50072  1.0000
  H   H1345     1.0  0.80615  0.99055  0.08665  1.0000
  H   H1346     1.0  0.61607  0.98833  0.45288  1.0000
  C   C784      1.0  0.61364  0.00276  0.45205  1.0000
  C   C785      1.0  0.58656  0.74870  0.49680  1.0000
  H   H1347     1.0  0.74707  0.99880  0.13470  1.0000
  H   H1348     1.0  0.85098  0.77914  0.05791  1.0000
  H   H1349     1.0  0.91420  0.80648  0.48358  1.0000
  H   H1350     1.0  0.56640  0.72331  0.47810  1.0000
  H   H1351     1.0  0.83710  0.74820  0.04111  1.0000
  H   H1352     1.0  0.64669  0.74246  0.43713  1.0000
  H   H1353     1.0  0.96943  0.74179  0.04681  1.0000
  C   C786      1.0  0.67304  0.98876  0.06721  1.0000
  C   C787      1.0  0.86557  0.75154  0.04915  1.0000
  N   N56       1.0  0.89190  0.75435  0.02348  1.0000
  C   C788      1.0  0.90099  0.73706  0.00960  1.0000
  H   H1354     1.0  0.86997  0.74855  0.49723  1.0000
  C   C789      1.0  0.67199  0.72382  0.00257  1.0000
  H   H1355     1.0  0.64190  0.74766  0.00991  1.0000
  C   C790      1.0  0.84584  0.00264  0.38729  1.0000
  C   C791      1.0  0.64216  0.76513  0.48178  1.0000
  H   H1356     1.0  0.87422  0.00243  0.37728  1.0000
  H   H1357     1.0  0.91358  0.72791  0.02629  1.0000
  H   H1358     1.0  0.84464  0.76898  0.49485  1.0000
  H   H1359     1.0  0.65236  0.97931  0.07583  1.0000
  C   C792      1.0  0.64972  0.73430  0.49428  1.0000
  C   C793      1.0  0.76103  0.77643  0.50019  1.0000
  H   H1360     1.0  0.00387  0.00565  0.04652  1.0000
  C   C794      1.0  0.83051  0.00437  0.00306  1.0000
  Fe  Fe113     1.0  0.71482  0.94833  0.58410  1.0000
  S   S226      1.0  0.72605  0.97643  0.59373  1.0000
  S   S227      1.0  0.76521  0.93000  0.58071  1.0000
  Fe  Fe114     1.0  0.63075  0.95328  0.59235  1.0000
  S   S228      1.0  0.63581  0.98140  0.60390  1.0000
  S   S229      1.0  0.57711  0.93814  0.58762  1.0000
  Fe  Fe115     1.0  0.67567  0.98279  0.56514  1.0000
  C   C795      1.0  0.99489  0.78844  0.61308  1.0000
  Fe  Fe116     1.0  0.68580  0.97280  0.63145  1.0000
  S   S230      1.0  0.70206  0.98416  0.67596  1.0000
  S   S231      1.0  0.66784  0.95486  0.55208  1.0000
  S   S232      1.0  0.67718  0.94448  0.62326  1.0000
  Fe  Fe117     1.0  0.85900  0.81621  0.59536  1.0000
  S   S233      1.0  0.84431  0.79029  0.61454  1.0000
  S   S234      1.0  0.91810  0.82485  0.58406  1.0000
  Fe  Fe118     1.0  0.77692  0.82843  0.59397  1.0000
  S   S235      1.0  0.75635  0.80311  0.61331  1.0000
  S   S236      1.0  0.73362  0.84899  0.58023  1.0000
  Fe  Fe119     1.0  0.80531  0.80526  0.64468  1.0000
  S   S237      1.0  0.81100  0.79907  0.69409  1.0000
  Fe  Fe120     1.0  0.79677  0.79050  0.58126  1.0000
  S   S238      1.0  0.78633  0.76531  0.55600  1.0000
  S   S239      1.0  0.82312  0.83137  0.62735  1.0000
  S   S240      1.0  0.81418  0.81564  0.56010  1.0000
  Fe  Fe121     1.0  0.79315  0.94688  0.82484  1.0000
  S   S241      1.0  0.84430  0.92979  0.83143  1.0000
  S   S242      1.0  0.75765  0.93791  0.78598  1.0000
  Fe  Fe122     1.0  0.80870  0.96643  0.88301  1.0000
  S   S243      1.0  0.86014  0.95018  0.89379  1.0000
  S   S244      1.0  0.79121  0.99054  0.90901  1.0000
  Fe  Fe123     1.0  0.87402  0.95366  0.84568  1.0000
  S   S245      1.0  0.93051  0.96204  0.82840  1.0000
  Fe  Fe124     1.0  0.82553  0.92766  0.87862  1.0000
  S   S246      1.0  0.82975  0.90046  0.89788  1.0000
  S   S247      1.0  0.82450  0.97122  0.83521  1.0000
  S   S248      1.0  0.77261  0.94348  0.87171  1.0000
  Fe  Fe125     1.0  0.68745  0.80833  0.84360  1.0000
  S   S249      1.0  0.64053  0.82395  0.86435  1.0000
  S   S250      1.0  0.68909  0.81503  0.79417  1.0000
  Fe  Fe126     1.0  0.70999  0.79219  0.90418  1.0000
  S   S251      1.0  0.66574  0.80735  0.92854  1.0000
  S   S252      1.0  0.74667  0.77113  0.92672  1.0000
  Fe  Fe127     1.0  0.62720  0.80026  0.89120  1.0000
  S   S253      1.0  0.57044  0.78965  0.90512  1.0000
  Fe  Fe128     1.0  0.68264  0.82981  0.89958  1.0000
  S   S254      1.0  0.68065  0.85769  0.91476  1.0000
  S   S255      1.0  0.67055  0.78382  0.86787  1.0000
  S   S256      1.0  0.73047  0.81543  0.87786  1.0000
  C   C796      1.0  0.75052  0.76712  0.96549  1.0000
  H   H1361     1.0  0.99497  0.77517  0.62135  1.0000
  H   H1362     1.0  0.82515  0.87178  0.82367  1.0000
  C   C797      1.0  0.76664  0.75128  0.97559  1.0000
  H   H1363     1.0  0.78231  0.89721  0.75774  1.0000
  H   H1364     1.0  0.81180  0.87546  0.78531  1.0000
  H   H1365     1.0  0.77679  0.74191  0.95965  1.0000
  C   C798      1.0  0.66050  0.73746  0.90745  1.0000
  H   H1366     1.0  0.59149  0.74734  0.52110  1.0000
  H   H1367     1.0  0.89531  0.98424  0.87675  1.0000
  H   H1368     1.0  0.54888  0.81632  0.86133  1.0000
  H   H1369     1.0  0.00360  0.92523  0.89827  1.0000
  C   C799      1.0  0.57964  0.87360  0.93825  1.0000
  H   H1370     1.0  0.95009  0.80758  0.76990  1.0000
  C   C800      1.0  0.81630  0.97771  0.67516  1.0000
  H   H1371     1.0  0.58786  0.85124  0.98443  1.0000
  H   H1372     1.0  0.90058  0.75250  0.54349  1.0000
  C   C801      1.0  0.78810  0.88883  0.90313  1.0000
  C   C802      1.0  0.78981  0.87060  0.90377  1.0000
  C   C803      1.0  0.75697  0.86093  0.90720  1.0000
  C   C804      1.0  0.72231  0.86947  0.91069  1.0000
  C   C805      1.0  0.72062  0.88772  0.91054  1.0000
  C   C806      1.0  0.75336  0.89739  0.90632  1.0000
  H   H1373     1.0  0.81663  0.86392  0.90138  1.0000
  H   H1374     1.0  0.75864  0.84689  0.90766  1.0000
  H   H1375     1.0  0.69391  0.89441  0.91334  1.0000
  H   H1376     1.0  0.75184  0.91144  0.90613  1.0000
  H   H1377     1.0  0.61144  0.78746  0.96860  1.0000
  C   C807      1.0  0.97193  0.95418  0.84583  1.0000
  C   C808      1.0  0.97104  0.94102  0.86744  1.0000
  C   C809      1.0  0.53345  0.96111  0.61988  1.0000
  H   H1378     1.0  0.94461  0.93516  0.87329  1.0000
  H   H1379     1.0  0.92366  0.76517  0.57150  1.0000
  H   H1380     1.0  0.59305  0.73625  0.98384  1.0000
  H   H1381     1.0  0.65607  0.73755  0.51767  1.0000
  C   C810      1.0  0.77691  0.80374  0.72166  1.0000
  C   C811      1.0  0.74310  0.81245  0.71492  1.0000
  C   C812      1.0  0.71671  0.81583  0.73747  1.0000
  C   C813      1.0  0.72371  0.81051  0.76693  1.0000
  C   C814      1.0  0.75769  0.80195  0.77375  1.0000
  C   C815      1.0  0.78414  0.79860  0.75120  1.0000
  H   H1382     1.0  0.73717  0.81646  0.69231  1.0000
  H   H1383     1.0  0.69050  0.82244  0.73197  1.0000
  H   H1384     1.0  0.76346  0.79780  0.79631  1.0000
  H   H1385     1.0  0.81020  0.79184  0.75663  1.0000
  C   C816      1.0  0.73723  0.77905  0.98635  1.0000
  C   C817      1.0  0.96034  0.81392  0.59460  1.0000
  C   C818      1.0  0.96066  0.79672  0.60506  1.0000
  C   C819      1.0  0.59089  0.84540  0.96216  1.0000
  H   H1386     1.0  0.93457  0.78983  0.60712  1.0000
  H   H1387     1.0  0.00726  0.97179  0.82157  1.0000
  H   H1388     1.0  0.85226  0.96150  0.62976  1.0000
  C   C820      1.0  0.95299  0.80131  0.74795  1.0000
  H   H1389     1.0  0.55916  0.96772  0.62506  1.0000
  H   H1390     1.0  0.52231  0.85820  0.88756  1.0000
  C   C821      1.0  0.53444  0.94646  0.60184  1.0000
  H   H1391     1.0  0.55241  0.88256  0.97964  1.0000
  H   H1392     1.0  0.95693  0.99087  0.86068  1.0000
  C   C822      1.0  0.71548  0.97127  0.70714  1.0000
  C   C823      1.0  0.73315  0.97918  0.73126  1.0000
  C   C824      1.0  0.74615  0.96919  0.75569  1.0000
  C   C825      1.0  0.74092  0.95121  0.75640  1.0000
  C   C826      1.0  0.72261  0.94333  0.73254  1.0000
  C   C827      1.0  0.71012  0.95329  0.70795  1.0000
  H   H1393     1.0  0.73724  0.99310  0.73086  1.0000
  H   H1394     1.0  0.76007  0.97540  0.77398  1.0000
  H   H1395     1.0  0.71832  0.92945  0.73298  1.0000
  H   H1396     1.0  0.69630  0.94709  0.68964  1.0000
  C   C828      1.0  0.75715  0.90743  0.57964  1.0000
  C   C829      1.0  0.78275  0.89575  0.59333  1.0000
  C   C830      1.0  0.77651  0.87771  0.59309  1.0000
  C   C831      1.0  0.74496  0.87125  0.57864  1.0000
  C   C832      1.0  0.72020  0.88291  0.56406  1.0000
  C   C833      1.0  0.72594  0.90094  0.56487  1.0000
  H   H1397     1.0  0.80726  0.90068  0.60441  1.0000
  H   H1398     1.0  0.79589  0.86883  0.60425  1.0000
  H   H1399     1.0  0.69642  0.87791  0.55216  1.0000
  H   H1400     1.0  0.70660  0.90983  0.55364  1.0000
  C   C834      1.0  0.62043  0.77482  0.97869  1.0000
  C   C835      1.0  0.64131  0.76384  0.95528  1.0000
  H   H1401     1.0  0.88878  0.79150  0.55819  1.0000
  H   H1402     1.0  0.62116  0.84650  0.95618  1.0000
  H   H1403     1.0  0.88446  0.95336  0.70940  1.0000
  H   H1404     1.0  0.88043  0.96229  0.66133  1.0000
  H   H1405     1.0  0.60876  0.87426  0.92925  1.0000
  H   H1406     1.0  0.56119  0.89066  0.65271  1.0000
  C   C836      1.0  0.52649  0.79878  0.89394  1.0000
  H   H1407     1.0  0.56185  0.89984  0.61549  1.0000
  C   C837      1.0  0.85584  0.95542  0.65209  1.0000
  H   H1408     1.0  0.58552  0.81829  0.94661  1.0000
  H   H1409     1.0  0.77201  0.73445  0.52322  1.0000
  H   H1410     1.0  0.82676  0.96967  0.95618  1.0000
  H   H1411     1.0  0.87564  0.77846  0.95783  1.0000
  H   H1412     1.0  0.98288  0.79766  0.74528  1.0000
  H   H1413     1.0  0.82642  0.98756  0.62941  1.0000
  H   H1414     1.0  0.89753  0.81245  0.51922  1.0000
  N   N57       1.0  0.64431  0.74461  0.96209  1.0000
  C   C838      1.0  0.99455  0.82261  0.59177  1.0000
  H   H1415     1.0  0.60462  0.82047  0.98267  1.0000
  C   C839      1.0  0.55280  0.85653  0.88343  1.0000
  H   H1416     1.0  0.89592  0.97181  0.94091  1.0000
  H   H1417     1.0  0.58712  0.74425  0.91664  1.0000
  N   N58       1.0  0.90916  0.78486  0.51464  1.0000
  H   H1418     1.0  0.67922  0.90371  0.85550  1.0000
  H   H1419     1.0  0.55605  0.84849  0.86327  1.0000
  H   H1420     1.0  0.60406  0.84761  0.90425  1.0000
  H   H1421     1.0  0.56179  0.88153  0.92277  1.0000
  H   H1422     1.0  0.65437  0.75092  0.89978  1.0000
  H   H1423     1.0  0.63683  0.72883  0.90227  1.0000
  N   N59       1.0  0.93606  0.99669  0.90471  1.0000
  H   H1424     1.0  0.89841  0.93576  0.64193  1.0000
  H   H1425     1.0  0.74376  0.89667  0.73278  1.0000
  H   H1426     1.0  0.68480  0.73278  0.89414  1.0000
  C   C840      1.0  0.89747  0.76371  0.55848  1.0000
  H   H1427     1.0  0.72466  0.84938  0.84229  1.0000
  C   C841      1.0  0.82330  0.98288  0.96386  1.0000
  H   H1428     1.0  0.76403  0.78960  0.50794  1.0000
  H   H1429     1.0  0.55631  0.91358  0.64654  1.0000
  H   H1430     1.0  0.83342  0.89197  0.80614  1.0000
  C   C842      1.0  0.67116  0.73623  0.94046  1.0000
  C   C843      1.0  0.80663  0.99550  0.94530  1.0000
  H   H1431     1.0  0.76334  0.87650  0.74571  1.0000
  H   H1432     1.0  0.69801  0.71916  0.99144  1.0000
  H   H1433     1.0  0.84356  0.76253  0.99688  1.0000
  H   H1434     1.0  0.55548  0.82397  0.97775  1.0000
  N   N60       1.0  0.63823  0.88912  0.63135  1.0000
  C   C844      1.0  0.63209  0.87378  0.65180  1.0000
  C   C845      1.0  0.61374  0.90413  0.64141  1.0000
  C   C846      1.0  0.67870  0.89454  0.63199  1.0000
  C   C847      1.0  0.62853  0.88387  0.60019  1.0000
  C   C848      1.0  0.65948  0.85813  0.64802  1.0000
  C   C849      1.0  0.57098  0.90160  0.63872  1.0000
  C   C850      1.0  0.69429  0.89960  0.66256  1.0000
  C   C851      1.0  0.62611  0.89879  0.57687  1.0000
  H   H1435     1.0  0.63318  0.87771  0.67543  1.0000
  H   H1436     1.0  0.60337  0.86859  0.64874  1.0000
  H   H1437     1.0  0.62057  0.91632  0.62927  1.0000
  H   H1438     1.0  0.61917  0.90705  0.66509  1.0000
  H   H1439     1.0  0.69738  0.88414  0.62306  1.0000
  H   H1440     1.0  0.68326  0.90590  0.61711  1.0000
  H   H1441     1.0  0.64933  0.87412  0.59189  1.0000
  H   H1442     1.0  0.60102  0.87720  0.59987  1.0000
  H   H1443     1.0  0.65943  0.85305  0.62513  1.0000
  H   H1444     1.0  0.68865  0.86126  0.65446  1.0000
  H   H1445     1.0  0.65065  0.84732  0.66286  1.0000
  C   C852      1.0  0.57356  0.84736  0.90946  1.0000
  N   N61       1.0  0.56665  0.85499  0.93962  1.0000
  H   H1446     1.0  0.83411  0.79880  0.50469  1.0000
  H   H1447     1.0  0.72491  0.90179  0.66036  1.0000
  H   H1448     1.0  0.69099  0.88922  0.67951  1.0000
  H   H1449     1.0  0.68142  0.91196  0.67042  1.0000
  H   H1450     1.0  0.63891  0.89439  0.55579  1.0000
  H   H1451     1.0  0.64048  0.91085  0.58310  1.0000
  H   H1452     1.0  0.59637  0.90193  0.57124  1.0000
  N   N62       1.0  0.82098  0.95835  0.67037  1.0000
  H   H1453     1.0  0.96069  0.77459  0.53466  1.0000
  C   C853      1.0  0.82391  0.94983  0.70062  1.0000
  C   C854      1.0  0.78668  0.95207  0.65412  1.0000
  H   H1454     1.0  0.93616  0.78931  0.74897  1.0000
  H   H1455     1.0  0.99463  0.83586  0.58341  1.0000
  C   C855      1.0  0.96144  0.00040  0.87866  1.0000
  C   C856      1.0  0.77648  0.93276  0.65818  1.0000
  C   C857      1.0  0.86766  0.93641  0.64602  1.0000
  C   C858      1.0  0.89586  0.80217  0.50200  1.0000
  C   C859      1.0  0.00407  0.00041  0.88513  1.0000
  H   H1456     1.0  0.82611  0.93548  0.69942  1.0000
  H   H1457     1.0  0.79766  0.95240  0.71328  1.0000
  H   H1458     1.0  0.76117  0.95945  0.66111  1.0000
  H   H1459     1.0  0.78904  0.95467  0.62985  1.0000
  H   H1460     1.0  0.79407  0.98036  0.69194  1.0000
  H   H1461     1.0  0.00674  0.79087  0.51020  1.0000
  C   C860      1.0  0.76531  0.74539  0.50874  1.0000
  H   H1462     1.0  0.58403  0.89759  0.96299  1.0000
  C   C861      1.0  0.89671  0.99523  0.89257  1.0000
  C   C862      1.0  0.57683  0.74313  0.93964  1.0000
  H   H1463     1.0  0.93670  0.95953  0.95100  1.0000
  C   C863      1.0  0.88651  0.78076  0.54195  1.0000
  H   H1464     1.0  0.79922  0.92371  0.65144  1.0000
  H   H1465     1.0  0.75194  0.93004  0.64390  1.0000
  H   H1466     1.0  0.76761  0.92981  0.68120  1.0000
  H   H1467     1.0  0.85296  0.93148  0.62612  1.0000
  H   H1468     1.0  0.86321  0.92746  0.66493  1.0000
  H   H1469     1.0  0.56529  0.86929  0.87804  1.0000
  H   H1470     1.0  0.95098  0.79681  0.54241  1.0000
  H   H1471     1.0  0.72489  0.79131  0.97896  1.0000
  C   C864      1.0  0.52379  0.81195  0.87239  1.0000
  H   H1472     1.0  0.55250  0.73429  0.93932  1.0000
  H   H1473     1.0  0.75780  0.83728  0.82098  1.0000
  H   H1474     1.0  0.67478  0.72208  0.94519  1.0000
  H   H1475     1.0  0.85703  0.94763  0.74100  1.0000
  H   H1476     1.0  0.56579  0.75605  0.94649  1.0000
  H   H1477     1.0  0.62735  0.76652  0.93370  1.0000
  H   H1478     1.0  0.72399  0.91077  0.84315  1.0000
  H   H1479     1.0  0.77354  0.85543  0.84196  1.0000
  H   H1480     1.0  0.69961  0.74184  0.94280  1.0000
  N   N63       1.0  0.94438  0.80896  0.69184  1.0000
  C   C865      1.0  0.91400  0.81762  0.67307  1.0000
  C   C866      1.0  0.94219  0.78960  0.68735  1.0000
  C   C867      1.0  0.98166  0.81538  0.68055  1.0000
  C   C868      1.0  0.93822  0.81406  0.72375  1.0000
  C   C869      1.0  0.91538  0.83765  0.67089  1.0000
  C   C870      1.0  0.90328  0.78167  0.69274  1.0000
  H   H1481     1.0  0.88912  0.00270  0.95249  1.0000
  H   H1482     1.0  0.61218  0.71405  0.51117  1.0000
  H   H1483     1.0  0.91470  0.81262  0.65000  1.0000
  H   H1484     1.0  0.88553  0.81449  0.68157  1.0000
  H   H1485     1.0  0.96248  0.78231  0.70170  1.0000
  H   H1486     1.0  0.95047  0.78624  0.66436  1.0000
  H   H1487     1.0  0.98241  0.81484  0.65598  1.0000
  H   H1488     1.0  0.98544  0.82933  0.68592  1.0000
  H   H1489     1.0  0.95081  0.82693  0.72821  1.0000
  H   H1490     1.0  0.90770  0.81594  0.72854  1.0000
  H   H1491     1.0  0.88917  0.84271  0.66032  1.0000
  H   H1492     1.0  0.91751  0.84374  0.69294  1.0000
  H   H1493     1.0  0.93881  0.84191  0.65646  1.0000
  H   H1494     1.0  0.88956  0.78670  0.71301  1.0000
  H   H1495     1.0  0.88442  0.78427  0.67353  1.0000
  H   H1496     1.0  0.90621  0.76732  0.69510  1.0000
  C   C871      1.0  0.66134  0.74255  0.99267  1.0000
  H   H1497     1.0  0.77732  0.98600  0.63946  1.0000
  H   H1498     1.0  0.68714  0.75039  0.99457  1.0000
  H   H1499     1.0  0.85612  0.78021  0.53722  1.0000
  H   H1500     1.0  0.89482  0.75694  0.95892  1.0000
  H   H1501     1.0  0.68067  0.76387  0.52017  1.0000
  N   N64       1.0  0.73946  0.88154  0.80650  1.0000
  C   C872      1.0  0.70807  0.88441  0.82850  1.0000
  C   C873      1.0  0.74200  0.86222  0.80086  1.0000
  C   C874      1.0  0.72826  0.89086  0.77816  1.0000
  C   C875      1.0  0.77515  0.88881  0.81916  1.0000
  C   C876      1.0  0.69878  0.90353  0.83636  1.0000
  C   C877      1.0  0.75010  0.85063  0.82832  1.0000
  C   C878      1.0  0.75648  0.88999  0.75243  1.0000
  C   C879      1.0  0.81285  0.88129  0.80749  1.0000
  H   H1502     1.0  0.68161  0.87843  0.82062  1.0000
  H   H1503     1.0  0.71484  0.87785  0.84995  1.0000
  H   H1504     1.0  0.76360  0.85886  0.78422  1.0000
  H   H1505     1.0  0.71528  0.85759  0.79096  1.0000
  H   H1506     1.0  0.70096  0.88593  0.76989  1.0000
  H   H1507     1.0  0.72366  0.90497  0.78196  1.0000
  H   H1508     1.0  0.77559  0.90321  0.81600  1.0000
  H   H1509     1.0  0.77595  0.88662  0.84355  1.0000
  H   H1510     1.0  0.68418  0.91058  0.81798  1.0000
  H   H1511     1.0  0.87496  0.76049  0.57455  1.0000
  C   C880      1.0  0.94936  0.78691  0.52469  1.0000
  H   H1512     1.0  0.61036  0.72167  0.95700  1.0000
  H   H1513     1.0  0.97796  0.97954  0.92537  1.0000
  C   C881      1.0  0.76964  0.76241  0.51922  1.0000
  H   H1514     1.0  0.66977  0.76942  0.95270  1.0000
  C   C882      1.0  0.80584  0.98888  0.64762  1.0000
  C   C883      1.0  0.00445  0.93543  0.88157  1.0000
  H   H1515     1.0  0.93154  0.98104  0.96476  1.0000
  H   H1516     1.0  0.65922  0.70696  0.50452  1.0000
  H   H1517     1.0  0.56657  0.83344  0.90855  1.0000
  H   H1518     1.0  0.94670  0.96907  0.90083  1.0000
  C   C884      1.0  0.60667  0.73580  0.96165  1.0000
  C   C885      1.0  0.00638  0.96163  0.83835  1.0000
  C   C886      1.0  0.86745  0.72761  0.99586  1.0000
  C   C887      1.0  0.83511  0.98730  0.99258  1.0000
  C   C888      1.0  0.52575  0.85492  0.94848  1.0000
  C   C889      1.0  0.92638  0.97286  0.94514  1.0000
  H   H1519     1.0  0.85373  0.96930  0.72711  1.0000
  H   H1520     1.0  0.66250  0.78498  0.51155  1.0000
  C   C890      1.0  0.85690  0.95555  0.72022  1.0000
  C   C891      1.0  0.94822  0.97936  0.91792  1.0000
  C   C892      1.0  0.89266  0.76917  0.97161  1.0000
  H   H1521     1.0  0.63248  0.76975  0.52960  1.0000
  C   C893      1.0  0.58313  0.82595  0.96712  1.0000
  H   H1522     1.0  0.87611  0.99190  0.90991  1.0000
  H   H1523     1.0  0.84249  0.98331  0.68420  1.0000
  H   H1524     1.0  0.92081  0.77488  0.97414  1.0000
  C   C894      1.0  0.65487  0.77103  0.51276  1.0000
  H   H1525     1.0  0.80508  0.00280  0.65397  1.0000
  C   C895      1.0  0.57948  0.88357  0.96775  1.0000
  H   H1526     1.0  0.85351  0.73528  0.97791  1.0000
  H   H1527     1.0  0.51939  0.82676  0.93598  1.0000
  H   H1528     1.0  0.54026  0.73170  0.50827  1.0000
  H   H1529     1.0  0.87774  0.71522  0.98608  1.0000
  H   H1530     1.0  0.92303  0.73836  0.99232  1.0000
  H   H1531     1.0  0.59497  0.76837  0.98718  1.0000
  H   H1532     1.0  0.60304  0.87919  0.98234  1.0000
  H   H1533     1.0  0.01551  0.98703  0.88880  1.0000
  H   H1534     1.0  0.63936  0.77770  0.99754  1.0000
  H   H1535     1.0  0.52297  0.85666  0.97284  1.0000
  H   H1536     1.0  0.64891  0.71460  0.99882  1.0000
  C   C896      1.0  0.87278  0.76665  0.00166  1.0000
