data_image0
_chemical_formula_structural       FeS2FeS2FeSFeS3FeS2FeS2FeSFeS3FeS2C3FeS2C2H2C7H5CH2CHC2H5NH2C6H6CHC4H2CH6CH2C3H2CH2CH10CHCH2CHCHC2H5CHCH2CHCH4CHC2H3CHC2HNC8H17CH5CH3C2H10C2NC2HNCH3CNH9CNH4SH2Fe2S2FeS2FeSFeS3FeS2FeS2FeSFeS3CH2CHCH2C6H4CHCH2C3H3CH3C6H6C2NHC4H2SHCH2C2H4CH2CH6C2SH4C2H5CH3CH2CNHCHC4H2CH2FeCH2CHCH2CHSHC2H9NHCHCHCH2CH4C2H2C3H2CH2CH9CH2CH2CH2CH3FeS2FeS2FeSFeS3FeS2FeS2FeSFeS3FeS2FeS2H2CH3C3HC6H5CH2C2H2CH3C7H5C3H2CNHC3HCH5CH2CH6C2H5NHNCH5CHCH5CHNC2H4CH2NC8H22CHCH2C2HCHCH2C7HCH2CH5CH7SHC3H2CHNH2CH5FeS2FeS2FeSFeS3FeS2FeS2FeSFeS3CH2FeS2H2C6H4CHC3H5SHCH3C7H4C3H2CH2C2HCH7CHCH3CH5CH8CNH5C2HC3HCH3CH2NHCH4CHCHCHCHC2H3CH5CHC2H5NC8H14CH3C3HCHNCH3CH3CHFeCNH2CHC3FeS2FeS2FeSFeS3FeS2FeS2FeSFeS3FeCSFeS2C2HC6H6CH4C3H4CHCHCHC2HC6H5CHCH2CNC7H15NC8H20CH9CHCH2CHC3H2CNH4NHC2H3NHCSH4C3H5CH4CH5CHCHCH5C2H4C3H2C2FeS2FeS2FeSFeS3FeS2FeS2FeSFeS3H2SFeSHC6H4C2H3C3H3C4H2C6H4C2H2NCHCSH3CH6CHC3NC2H3FeHCHCH3CSH3C2HC4H5CHNHC2HCHCHCH9CH2CH2CH5CH5CH7CHC2H4CH4CH2C2H2CNC5H11NH2CH2NHCH10CHFeS2FeS2FeSFeS3FeS2FeS2FeSFeS3FeS2CFeSHSH3C6H5C3HCH3C2HCH2C6H4C3HC3H2C2H4CH2CH6CNHCH4CHNC4HC3H5CH16C2H2C2H6C2H3CH2CH6CHCH4CHCNC8H7CH5NCH7C2H4C2NH2CH2SH2CNCFeS2FeS2FeSFeS3FeS2FeS2FeSFeS3C2S2C6H4SHC4H5C4H3CHC4H6C6H4C2H4CHC2H2C3HFeCH10CHC4HCH4C3HCH13C2NCHCHCH6CHNC8H20FeCH2CH2CHCH11CH3C2HCNCH6C2HFeS2FeS2FeSFeS3FeS2FeS2FeSFeS3FeS2FeS2H3C2H2C2H2C6H5CH2C3NH5C6H5CH3CH2CH3CH5CH2C2H3C2HCH4CHCNH9CH2NC2HCH3CHCH3C2H2CH2CH2C2NH5C2HCH6C2HCHC2H2CH5C2H3CH2C2H3NCH2C6HCH6CNHFeS2FeS2FeSFeS3FeS2FeS2FeSFeS3HCH2SC4H2C6H5C3H4C3H3CHCH2C4H2NHC6H4SC2H3CHC3HCH2NHSH14NC8H24C2H3CNCH2CH3CH4C3HC2FeCH2C2NHC3FeH4CH3CHCH6CH4CH8CH2C2HCHC2HC2H2CH3SH2CH2NCH2CHCH5FeS2FeS2FeSFeS3FeS2FeS2FeSFeS3FeS2CHCFeSHSH4CH6CH4C6H4C3HC7H7C2H2NC8HNH10CH8C2H3C3HC2H4C2SH2CHC2H3CH3C2H7CH6NHCH2CH4CH5CH4CH2C2HCH5CH4NH2C2H2CHC2H2CHC2HNHCHFeCHC2H3FeS2FeS2FeSFeS3FeS2FeS2FeSFeS3HC3SH2C2H2CHCHC2HCH2C7H3C3HC7H6C2NH2CH5CHC2H17C2H11NCNH3C3H4CSCH2FeH3CHSC2HCH5C2HC2NCHCH3CH3C2H6C3H2CHC2HC2H10CH4CH6C2FeS2FeS2FeSFeS3FeS2FeS2FeSFeS3FeS2FeSHC2NH2C3HC7H4CH2C6H9C2H3SCHN2CH3CH2CH6NCH4CHCHCHCH3CH6NC3HC3HCH4CH2CH4C2H2CH2CHC2H6C2H6C2H2C3H4CHCH7CH7CHC2H2C2H2C4H6CHCHC3H2CFeS2FeS2FeSFeS3FeS2FeS2FeSFeS3HS2HS2C2H3CH2C6H4C3H3C2H2CHCH2C6H5C2H4NH7NC8H11FeHCH2CHCNC2HCHC2H3CHCH3CH2CH7C3H3CH4CH2C4H2FeNH5C7H4CH4C4HCH2CH10NH5CH6C4H6CH4CHCHCH3CFeS2FeS2FeSFeS3FeS2FeS2FeSFeS3CS2FeS2CHCHC2H2C7H4CH6C2H2CHCH2C7H4NC8H21CH2C2H4NC2H2C2H5C2H3C2H4CH9CHCH4NHCHCH2CH2CH4CHCHFeHCHC3H3C3H3CH4CHCH7NH2CHC2H4C3HFeS2FeS2FeSFeS3FeS2FeS2FeSFeS3H2SHSHC2H2CH2C6H4C3HC4HC4HC6H5C2H3CHCH7CHCHCH2C2NHCH4CHSH3C3H3CHCH4C3H3CH5CH4CH7NHC2HCHCH4CH2CH2NC2H7C2H3SH4CFeH2NC2H6C2HCHCH4CFeC2HC2H2CHCH4NH3CH4
_chemical_formula_sum              "Fe160 S320 C1120 H1920 N80"
_cell_length_a       53.9478
_cell_length_b       57.5946
_cell_length_c       57.9814
_cell_angle_alpha    88.5911
_cell_angle_beta     90.0883
_cell_angle_gamma    92.0392

_space_group_name_H-M_alt    "P 1"
_space_group_IT_number       1

loop_
  _space_group_symop_operation_xyz
  'x, y, z'

loop_
  _atom_site_type_symbol
  _atom_site_label
  _atom_site_symmetry_multiplicity
  _atom_site_fract_x
  _atom_site_fract_y
  _atom_site_fract_z
  _atom_site_occupancy
  Fe  Fe1       1.0  0.40017  0.09173  0.10716  1.0000
  S   S1        1.0  0.42855  0.11645  0.09069  1.0000
  S   S2        1.0  0.41356  0.05478  0.10675  1.0000
  Fe  Fe2       1.0  0.37032  0.13242  0.12607  1.0000
  S   S3        1.0  0.39703  0.15930  0.11111  1.0000
  S   S4        1.0  0.33661  0.14183  0.14756  1.0000
  Fe  Fe3       1.0  0.39602  0.13717  0.07953  1.0000
  S   S5        1.0  0.39281  0.15580  0.04480  1.0000
  Fe  Fe4       1.0  0.42690  0.13585  0.12356  1.0000
  S   S6        1.0  0.45991  0.14603  0.14554  1.0000
  S   S7        1.0  0.36737  0.11122  0.09365  1.0000
  S   S8        1.0  0.40033  0.11023  0.14078  1.0000
  Fe  Fe5       1.0  0.11363  0.39123  0.07804  1.0000
  S   S9        1.0  0.10008  0.42279  0.09535  1.0000
  S   S10       1.0  0.09825  0.38390  0.04234  1.0000
  Fe  Fe6       1.0  0.14175  0.37443  0.12144  1.0000
  S   S11       1.0  0.12989  0.40480  0.14194  1.0000
  S   S12       1.0  0.17063  0.34776  0.13208  1.0000
  Fe  Fe7       1.0  0.09238  0.39865  0.12561  1.0000
  S   S13       1.0  0.05717  0.40520  0.14506  1.0000
  Fe  Fe8       1.0  0.13830  0.42667  0.11010  1.0000
  S   S14       1.0  0.16060  0.46082  0.11145  1.0000
  S   S15       1.0  0.10325  0.36649  0.10750  1.0000
  S   S16       1.0  0.15280  0.39689  0.09028  1.0000
  Fe  Fe9       1.0  0.28342  0.24506  0.22406  1.0000
  S   S17       1.0  0.24196  0.23838  0.22311  1.0000
  S   S18       1.0  0.31364  0.23689  0.19768  1.0000
  C   C1        1.0  0.02863  0.36842  0.12869  1.0000
  C   C2        1.0  0.11488  0.39110  0.01672  1.0000
  C   C3        1.0  0.37112  0.02679  0.09981  1.0000
  Fe  Fe10      1.0  0.23865  0.27495  0.23544  1.0000
  S   S19       1.0  0.20667  0.29885  0.22632  1.0000
  S   S20       1.0  0.27993  0.28277  0.23369  1.0000
  C   C4        1.0  0.14477  0.48644  0.11708  1.0000
  C   C5        1.0  0.11920  0.48583  0.12108  1.0000
  H   H1        1.0  0.43390  0.14993  0.21437  1.0000
  H   H2        1.0  0.10884  0.46939  0.12127  1.0000
  C   C6        1.0  0.14558  0.25567  0.22280  1.0000
  C   C7        1.0  0.17991  0.33408  0.15853  1.0000
  C   C8        1.0  0.16783  0.33738  0.17947  1.0000
  C   C9        1.0  0.17632  0.32649  0.19997  1.0000
  C   C10       1.0  0.19696  0.31216  0.19986  1.0000
  C   C11       1.0  0.20909  0.30893  0.17894  1.0000
  C   C12       1.0  0.20059  0.31981  0.15845  1.0000
  H   H3        1.0  0.15183  0.34817  0.17987  1.0000
  H   H4        1.0  0.16674  0.32910  0.21602  1.0000
  H   H5        1.0  0.22493  0.29796  0.17850  1.0000
  H   H6        1.0  0.21009  0.31709  0.14237  1.0000
  H   H7        1.0  0.33684  0.11803  0.03542  1.0000
  C   C13       1.0  0.02725  0.41864  0.02083  1.0000
  H   H8        1.0  0.32377  0.19491  0.05654  1.0000
  H   H9        1.0  0.47115  0.07387  0.16063  1.0000
  C   C14       1.0  0.17540  0.20685  0.22619  1.0000
  H   H10       1.0  0.04546  0.35875  0.12867  1.0000
  C   C15       1.0  0.48865  0.14769  0.13105  1.0000
  C   C16       1.0  0.48969  0.14957  0.10698  1.0000
  H   H11       1.0  0.31761  0.11202  0.05992  1.0000
  H   H12       1.0  0.47277  0.15073  0.09707  1.0000
  H   H13       1.0  0.11771  0.48566  0.05267  1.0000
  H   H14       1.0  0.38284  0.12544  0.23084  1.0000
  H   H15       1.0  0.15938  0.41141  0.19676  1.0000
  N   N1        1.0  0.39476  0.15378  0.20752  1.0000
  H   H16       1.0  0.39079  0.10604  0.03733  1.0000
  H   H17       1.0  0.27032  0.16308  0.10158  1.0000
  C   C17       1.0  0.33021  0.16862  0.16081  1.0000
  C   C18       1.0  0.31025  0.16933  0.17637  1.0000
  C   C19       1.0  0.30489  0.18998  0.18777  1.0000
  C   C20       1.0  0.31934  0.21031  0.18365  1.0000
  C   C21       1.0  0.33927  0.20961  0.16801  1.0000
  C   C22       1.0  0.34465  0.18896  0.15662  1.0000
  H   H18       1.0  0.29890  0.15375  0.17977  1.0000
  H   H19       1.0  0.28950  0.19015  0.19972  1.0000
  H   H20       1.0  0.35056  0.22521  0.16459  1.0000
  H   H21       1.0  0.35997  0.18880  0.14463  1.0000
  H   H22       1.0  0.32390  0.30752  0.21625  1.0000
  H   H23       1.0  0.36094  0.04257  0.09807  1.0000
  C   C23       1.0  0.37321  0.16845  0.21382  1.0000
  H   H24       1.0  0.18143  0.18909  0.22239  1.0000
  C   C24       1.0  0.40074  0.15631  0.18214  1.0000
  C   C25       1.0  0.41790  0.15943  0.22121  1.0000
  C   C26       1.0  0.41049  0.18035  0.17329  1.0000
  C   C27       1.0  0.37915  0.19373  0.22079  1.0000
  H   H25       1.0  0.42359  0.17808  0.21936  1.0000
  H   H26       1.0  0.38415  0.15216  0.17142  1.0000
  C   C28       1.0  0.38396  0.29699  0.23132  1.0000
  H   H27       1.0  0.39564  0.19312  0.17292  1.0000
  H   H28       1.0  0.41654  0.17880  0.15511  1.0000
  H   H29       1.0  0.42702  0.18695  0.18273  1.0000
  H   H30       1.0  0.19252  0.21790  0.22699  1.0000
  H   H31       1.0  0.38508  0.27201  0.20317  1.0000
  H   H32       1.0  0.50526  0.09669  0.08301  1.0000
  C   C29       1.0  0.46535  0.07315  0.14233  1.0000
  H   H33       1.0  0.42936  0.00827  0.10978  1.0000
  H   H34       1.0  0.41492  0.14363  0.17740  1.0000
  C   C30       1.0  0.39666  0.02808  0.10415  1.0000
  C   C31       1.0  0.02875  0.42485  0.07925  1.0000
  C   C32       1.0  0.13966  0.39912  0.01713  1.0000
  H   H35       1.0  0.16389  0.25094  0.21624  1.0000
  H   H36       1.0  0.44896  0.08418  0.14048  1.0000
  C   C33       1.0  0.03486  0.40029  0.07124  1.0000
  H   H37       1.0  0.37612  0.24902  0.23731  1.0000
  H   H38       1.0  0.45448  0.12024  0.01315  1.0000
  C   C34       1.0  0.12706  0.50173  0.05914  1.0000
  H   H39       1.0  0.34945  0.32841  0.21113  1.0000
  H   H40       1.0  0.04418  0.43157  0.09022  1.0000
  H   H41       1.0  0.45899  0.05523  0.13818  1.0000
  H   H42       1.0  0.50651  0.05270  0.15905  1.0000
  H   H43       1.0  0.43159  0.16317  0.25640  1.0000
  H   H44       1.0  0.04061  0.42952  0.03074  1.0000
  H   H45       1.0  0.14640  0.27427  0.22755  1.0000
  H   H46       1.0  0.29390  0.19160  0.03040  1.0000
  H   H47       1.0  0.16527  0.42871  0.17145  1.0000
  H   H48       1.0  0.35913  0.18092  0.07850  1.0000
  C   C35       1.0  0.34277  0.18709  0.08783  1.0000
  H   H49       1.0  0.28573  0.14625  0.12312  1.0000
  C   C36       1.0  0.30487  0.14706  0.09013  1.0000
  H   H50       1.0  0.34566  0.23580  0.24050  1.0000
  H   H51       1.0  0.14463  0.19413  0.24590  1.0000
  C   C37       1.0  0.28729  0.17316  0.03034  1.0000
  H   H52       1.0  0.01193  0.47343  0.14730  1.0000
  C   C38       1.0  0.48573  0.08275  0.12568  1.0000
  H   H53       1.0  0.13261  0.25469  0.20793  1.0000
  C   C39       1.0  0.34676  0.31562  0.24710  1.0000
  C   C40       1.0  0.38870  0.11501  0.02086  1.0000
  H   H54       1.0  0.35973  0.16922  0.19936  1.0000
  H   H55       1.0  0.36236  0.16036  0.22846  1.0000
  H   H56       1.0  0.32262  0.14251  0.09861  1.0000
  H   H57       1.0  0.03557  0.38975  0.08749  1.0000
  H   H58       1.0  0.27214  0.17294  0.06439  1.0000
  C   C41       1.0  0.33511  0.32197  0.22363  1.0000
  H   H59       1.0  0.49030  0.03550  0.12499  1.0000
  C   C42       1.0  0.16107  0.20579  0.24910  1.0000
  H   H60       1.0  0.30497  0.12494  0.03377  1.0000
  H   H61       1.0  0.39106  0.20365  0.20832  1.0000
  C   C43       1.0  0.35850  0.24965  0.24699  1.0000
  H   H62       1.0  0.05164  0.35201  0.04235  1.0000
  C   C44       1.0  0.22011  0.45058  0.16585  1.0000
  H   H63       1.0  0.23030  0.45938  0.15127  1.0000
  H   H64       1.0  0.04610  0.38750  0.02793  1.0000
  H   H65       1.0  0.35946  0.10128  0.20607  1.0000
  H   H66       1.0  0.49347  0.04880  0.09735  1.0000
  C   C45       1.0  0.38910  0.13928  0.01972  1.0000
  H   H67       1.0  0.12190  0.22694  0.23542  1.0000
  C   C46       1.0  0.31911  0.18524  0.07290  1.0000
  C   C47       1.0  0.28547  0.16235  0.05496  1.0000
  H   H68       1.0  0.01568  0.38277  0.01727  1.0000
  H   H69       1.0  0.39941  0.28603  0.23738  1.0000
  H   H70       1.0  0.47690  0.08361  0.10833  1.0000
  C   C48       1.0  0.02930  0.39139  0.13604  1.0000
  H   H71       1.0  0.05430  0.40111  0.06475  1.0000
  C   C49       1.0  0.50337  0.04630  0.11405  1.0000
  C   C50       1.0  0.40964  0.00744  0.10635  1.0000
  H   H72       1.0  0.05518  0.35904  0.07244  1.0000
  N   N2        1.0  0.21059  0.40632  0.15995  1.0000
  C   C51       1.0  0.22525  0.38501  0.15540  1.0000
  C   C52       1.0  0.19835  0.41312  0.13750  1.0000
  C   C53       1.0  0.19066  0.39956  0.17734  1.0000
  C   C54       1.0  0.22805  0.42507  0.16901  1.0000
  C   C55       1.0  0.23671  0.37275  0.17665  1.0000
  C   C56       1.0  0.21603  0.41898  0.11714  1.0000
  C   C57       1.0  0.17445  0.41918  0.18568  1.0000
  C   C58       1.0  0.28882  0.15864  0.10831  1.0000
  H   H73       1.0  0.21363  0.37169  0.14643  1.0000
  H   H74       1.0  0.24093  0.38932  0.14343  1.0000
  H   H75       1.0  0.18625  0.42803  0.13931  1.0000
  H   H76       1.0  0.18549  0.39881  0.13181  1.0000
  H   H77       1.0  0.17802  0.38572  0.17032  1.0000
  H   H78       1.0  0.19869  0.39208  0.19340  1.0000
  H   H79       1.0  0.23171  0.42188  0.18771  1.0000
  H   H80       1.0  0.24642  0.42436  0.16034  1.0000
  H   H81       1.0  0.25007  0.35993  0.17067  1.0000
  H   H82       1.0  0.24694  0.38501  0.18794  1.0000
  H   H83       1.0  0.22243  0.36255  0.18675  1.0000
  H   H84       1.0  0.22357  0.40298  0.11002  1.0000
  H   H85       1.0  0.20538  0.42740  0.10299  1.0000
  H   H86       1.0  0.23143  0.43117  0.12183  1.0000
  H   H87       1.0  0.20006  0.45306  0.16351  1.0000
  H   H88       1.0  0.34684  0.20564  0.09165  1.0000
  H   H89       1.0  0.39160  0.31522  0.23093  1.0000
  C   C59       1.0  0.02675  0.39327  0.02970  1.0000
  H   H90       1.0  0.29542  0.13004  0.08653  1.0000
  H   H91       1.0  0.16346  0.21231  0.21161  1.0000
  H   H92       1.0  0.18527  0.43150  0.19651  1.0000
  H   H93       1.0  0.39057  0.30132  0.19436  1.0000
  H   H94       1.0  0.12319  0.25171  0.25312  1.0000
  C   C60       1.0  0.01695  0.36293  0.05861  1.0000
  H   H95       1.0  0.40342  0.11722  0.20871  1.0000
  H   H96       1.0  0.22567  0.46040  0.18140  1.0000
  H   H97       1.0  0.36918  0.11646  0.18050  1.0000
  C   C61       1.0  0.38757  0.12852  0.21232  1.0000
  C   C62       1.0  0.36486  0.11880  0.19893  1.0000
  H   H98       1.0  0.33520  0.15998  0.03916  1.0000
  H   H99       1.0  0.14908  0.40122  0.03346  1.0000
  H   H100      1.0  0.03952  0.33276  0.06441  1.0000
  H   H101      1.0  0.34845  0.12974  0.20036  1.0000
  H   H102      1.0  0.35773  0.33149  0.25183  1.0000
  H   H103      1.0  0.30458  0.19542  0.08123  1.0000
  H   H104      1.0  0.34083  0.17767  0.10465  1.0000
  H   H105      1.0  0.14475  0.49629  0.06701  1.0000
  H   H106      1.0  0.35964  0.29141  0.20000  1.0000
  H   H107      1.0  0.34574  0.14658  0.06475  1.0000
  C   C63       1.0  0.34606  0.27319  0.24382  1.0000
  C   C64       1.0  0.32119  0.12467  0.04549  1.0000
  N   N3        1.0  0.36247  0.29445  0.24799  1.0000
  C   C65       1.0  0.13492  0.24016  0.24294  1.0000
  C   C66       1.0  0.32880  0.14900  0.05424  1.0000
  H   H108      1.0  0.33762  0.27342  0.22643  1.0000
  N   N4        1.0  0.01747  0.38887  0.05399  1.0000
  C   C67       1.0  0.04241  0.35141  0.05944  1.0000
  H   H109      1.0  0.02636  0.43748  0.06485  1.0000
  H   H110      1.0  0.27613  0.14487  0.05368  1.0000
  H   H111      1.0  0.32231  0.33641  0.22604  1.0000
  C   C68       1.0  0.37894  0.28992  0.20606  1.0000
  N   N5        1.0  0.30956  0.16092  0.06805  1.0000
  H   H112      1.0  0.18636  0.24882  0.24698  1.0000
  H   H113      1.0  0.48981  0.10111  0.13011  1.0000
  H   H114      1.0  0.29824  0.17432  0.11544  1.0000
  H   H115      1.0  0.32986  0.27270  0.25567  1.0000
  H   H116      1.0  0.50793  0.09736  0.16541  1.0000
  H   H117      1.0  0.36142  0.20290  0.22167  1.0000
  H   H118      1.0  0.01188  0.42427  0.09023  1.0000
  H   H119      1.0  0.38775  0.19451  0.23814  1.0000
  H   H120      1.0  0.39848  0.15889  0.25491  1.0000
  C   C69       1.0  0.41626  0.15375  0.24733  1.0000
  N   N6        1.0  0.15343  0.22860  0.25865  1.0000
  H   H121      1.0  0.29918  0.16325  0.01883  1.0000
  H   H122      1.0  0.26847  0.17286  0.02251  1.0000
  H   H123      1.0  0.08714  0.50591  0.12791  1.0000
  H   H124      1.0  0.35683  0.00652  0.03285  1.0000
  S   S21       1.0  0.28684  0.23274  0.26089  1.0000
  H   H125      1.0  0.41864  0.13490  0.25084  1.0000
  H   H126      1.0  0.33144  0.31369  0.26000  1.0000
  Fe  Fe11      1.0  0.24519  0.22845  0.26094  1.0000
  Fe  Fe12      1.0  0.42529  0.38674  0.38036  1.0000
  S   S22       1.0  0.39695  0.35715  0.38243  1.0000
  S   S23       1.0  0.46134  0.38400  0.36095  1.0000
  Fe  Fe13      1.0  0.39190  0.42001  0.40430  1.0000
  S   S24       1.0  0.36069  0.39321  0.40795  1.0000
  S   S25       1.0  0.38744  0.45440  0.42159  1.0000
  Fe  Fe14      1.0  0.39066  0.36927  0.41861  1.0000
  S   S26       1.0  0.38624  0.34228  0.44734  1.0000
  Fe  Fe15      1.0  0.36941  0.38355  0.37150  1.0000
  S   S27       1.0  0.33815  0.37912  0.34509  1.0000
  S   S28       1.0  0.42138  0.39645  0.41743  1.0000
  S   S29       1.0  0.39815  0.41264  0.36697  1.0000
  Fe  Fe16      1.0  0.14085  0.11677  0.42486  1.0000
  S   S30       1.0  0.10771  0.09306  0.41923  1.0000
  S   S31       1.0  0.16209  0.11842  0.45858  1.0000
  Fe  Fe17      1.0  0.13713  0.14110  0.37700  1.0000
  S   S32       1.0  0.10281  0.11951  0.36785  1.0000
  S   S33       1.0  0.15275  0.17477  0.35956  1.0000
  Fe  Fe18      1.0  0.08965  0.12449  0.40414  1.0000
  S   S34       1.0  0.05238  0.13388  0.41879  1.0000
  Fe  Fe19      1.0  0.12330  0.08940  0.38371  1.0000
  S   S35       1.0  0.12074  0.05435  0.36667  1.0000
  S   S36       1.0  0.12197  0.14841  0.41212  1.0000
  S   S37       1.0  0.15848  0.11060  0.39044  1.0000
  C   C70       1.0  0.43102  0.41624  0.50472  1.0000
  H   H127      1.0  0.18785  0.27871  0.27357  1.0000
  H   H128      1.0  0.13417  0.23929  0.28936  1.0000
  C   C71       1.0  0.12533  0.02900  0.38366  1.0000
  H   H129      1.0  0.07548  0.22461  0.48691  1.0000
  C   C72       1.0  0.13932  0.02969  0.40399  1.0000
  H   H130      1.0  0.15524  0.21673  0.29444  1.0000
  H   H131      1.0  0.14660  0.04619  0.41007  1.0000
  C   C73       1.0  0.17418  0.17943  0.33644  1.0000
  C   C74       1.0  0.18523  0.20176  0.33284  1.0000
  C   C75       1.0  0.20146  0.20664  0.31412  1.0000
  C   C76       1.0  0.20650  0.18930  0.29848  1.0000
  C   C77       1.0  0.19553  0.16697  0.30213  1.0000
  C   C78       1.0  0.17959  0.16200  0.32104  1.0000
  H   H132      1.0  0.18119  0.21538  0.34464  1.0000
  H   H133      1.0  0.20986  0.22386  0.31170  1.0000
  H   H134      1.0  0.19928  0.15341  0.29016  1.0000
  H   H135      1.0  0.17118  0.14478  0.32350  1.0000
  C   C79       1.0  0.17618  0.24389  0.26301  1.0000
  H   H136      1.0  0.32853  0.46308  0.41179  1.0000
  C   C80       1.0  0.17139  0.26670  0.27547  1.0000
  H   H137      1.0  0.04343  0.11768  0.37212  1.0000
  H   H138      1.0  0.18144  0.01833  0.32418  1.0000
  C   C81       1.0  0.11838  0.11968  0.48287  1.0000
  C   C82       1.0  0.14426  0.12192  0.48355  1.0000
  C   C83       1.0  0.38306  0.50126  0.41498  1.0000
  H   H139      1.0  0.10906  0.11581  0.46680  1.0000
  H   H140      1.0  0.30701  0.42427  0.36435  1.0000
  H   H141      1.0  0.39706  0.30816  0.29765  1.0000
  C   C84       1.0  0.39062  0.48055  0.40533  1.0000
  H   H142      1.0  0.13576  0.19967  0.50539  1.0000
  H   H143      1.0  0.40531  0.46503  0.37512  1.0000
  H   H144      1.0  0.18988  0.23422  0.27352  1.0000
  C   C85       1.0  0.33072  0.35253  0.33125  1.0000
  C   C86       1.0  0.34430  0.33264  0.33549  1.0000
  C   C87       1.0  0.33712  0.31149  0.32527  1.0000
  C   C88       1.0  0.31657  0.30998  0.31035  1.0000
  C   C89       1.0  0.30334  0.33000  0.30559  1.0000
  C   C90       1.0  0.31032  0.35113  0.31611  1.0000
  H   H145      1.0  0.36021  0.33349  0.34685  1.0000
  H   H146      1.0  0.34756  0.29615  0.32901  1.0000
  H   H147      1.0  0.28747  0.32912  0.29416  1.0000
  H   H148      1.0  0.29969  0.36641  0.31266  1.0000
  H   H149      1.0  0.33591  0.48372  0.31762  1.0000
  H   H150      1.0  0.16232  0.20668  0.46281  1.0000
  C   C91       1.0  0.38002  0.34851  0.47640  1.0000
  C   C92       1.0  0.37740  0.37112  0.48440  1.0000
  N   N7        1.0  0.31816  0.32255  0.41261  1.0000
  H   H151      1.0  0.13522  0.05419  0.50787  1.0000
  C   C93       1.0  0.32605  0.45497  0.39469  1.0000
  C   C94       1.0  0.48820  0.37610  0.40071  1.0000
  C   C95       1.0  0.48888  0.38193  0.37716  1.0000
  C   C96       1.0  0.31470  0.33569  0.38997  1.0000
  H   H152      1.0  0.47058  0.37298  0.40928  1.0000
  H   H153      1.0  0.30859  0.32366  0.37614  1.0000
  S   S38       1.0  0.30848  0.28256  0.29844  1.0000
  H   H154      1.0  0.36621  0.28878  0.39223  1.0000
  C   C97       1.0  0.01460  0.10684  0.49501  1.0000
  H   H155      1.0  0.30229  0.45978  0.32471  1.0000
  H   H156      1.0  0.12598  0.18830  0.44152  1.0000
  C   C98       1.0  0.17337  0.05096  0.49996  1.0000
  C   C99       1.0  0.39880  0.48077  0.38247  1.0000
  H   H157      1.0  0.27685  0.43112  0.35470  1.0000
  H   H158      1.0  0.01573  0.06256  0.33736  1.0000
  H   H159      1.0  0.01153  0.03266  0.34568  1.0000
  H   H160      1.0  0.12728  0.17005  0.50149  1.0000
  C   C100      1.0  0.39769  0.50122  0.36884  1.0000
  H   H161      1.0  0.29322  0.36132  0.37137  1.0000
  H   H162      1.0  0.30459  0.37115  0.39840  1.0000
  C   C101      1.0  0.29647  0.35574  0.38958  1.0000
  H   H163      1.0  0.37945  0.31215  0.48595  1.0000
  H   H164      1.0  0.37684  0.50119  0.43271  1.0000
  H   H165      1.0  0.44745  0.42047  0.49391  1.0000
  H   H166      1.0  0.33534  0.43594  0.31429  1.0000
  H   H167      1.0  0.08629  0.17954  0.43351  1.0000
  H   H168      1.0  0.37922  0.38582  0.47246  1.0000
  C   C102      1.0  0.34310  0.31144  0.41167  1.0000
  C   C103      1.0  0.34658  0.29400  0.39222  1.0000
  S   S39       1.0  0.23979  0.26448  0.27339  1.0000
  H   H169      1.0  0.11081  0.22330  0.45235  1.0000
  H   H170      1.0  0.29735  0.29258  0.40019  1.0000
  H   H171      1.0  0.16820  0.17940  0.45032  1.0000
  H   H172      1.0  0.37438  0.32710  0.28668  1.0000
  C   C104      1.0  0.29679  0.43231  0.34990  1.0000
  C   C105      1.0  0.02575  0.12038  0.38022  1.0000
  H   H173      1.0  0.26173  0.31338  0.40339  1.0000
  H   H174      1.0  0.47801  0.39839  0.49583  1.0000
  H   H175      1.0  0.33268  0.34377  0.38387  1.0000
  H   H176      1.0  0.13103  0.22682  0.47560  1.0000
  H   H177      1.0  0.27818  0.35086  0.39705  1.0000
  C   C106      1.0  0.29850  0.30350  0.41577  1.0000
  H   H178      1.0  0.34283  0.30161  0.37492  1.0000
  H   H179      1.0  0.36485  0.42565  0.32295  1.0000
  H   H180      1.0  0.30696  0.44725  0.39451  1.0000
  C   C107      1.0  0.27176  0.31101  0.41999  1.0000
  H   H181      1.0  0.33499  0.27789  0.39502  1.0000
  H   H182      1.0  0.27063  0.32692  0.43014  1.0000
  C   C108      1.0  0.44309  0.36262  0.50200  1.0000
  N   N8        1.0  0.11165  0.19331  0.47598  1.0000
  H   H183      1.0  0.36164  0.24539  0.26552  1.0000
  C   C109      1.0  0.15614  0.12715  0.50444  1.0000
  H   H184      1.0  0.35762  0.28745  0.28472  1.0000
  C   C110      1.0  0.11940  0.20538  0.28203  1.0000
  C   C111      1.0  0.30421  0.45798  0.34381  1.0000
  C   C112      1.0  0.11999  0.18784  0.50035  1.0000
  C   C113      1.0  0.02500  0.12813  0.40287  1.0000
  H   H185      1.0  0.40312  0.50109  0.35089  1.0000
  H   H186      1.0  0.07231  0.18754  0.48403  1.0000
  C   C114      1.0  0.14475  0.00890  0.41593  1.0000
  H   H187      1.0  0.07294  0.20581  0.44392  1.0000
  H   H188      1.0  0.34738  0.48367  0.37982  1.0000
  Fe  Fe20      1.0  0.28120  0.26991  0.27063  1.0000
  C   C115      1.0  0.09364  0.23364  0.48404  1.0000
  H   H189      1.0  0.41529  0.41061  0.49355  1.0000
  H   H190      1.0  0.35719  0.49274  0.33926  1.0000
  C   C116      1.0  0.08637  0.18218  0.47154  1.0000
  H   H191      1.0  0.05654  0.17843  0.44653  1.0000
  C   C117      1.0  0.37219  0.37460  0.50800  1.0000
  H   H192      1.0  0.08697  0.16294  0.47406  1.0000
  H   H193      1.0  0.17262  0.19634  0.26193  1.0000
  C   C118      1.0  0.37746  0.32963  0.49194  1.0000
  H   H194      1.0  0.08944  0.24929  0.47332  1.0000
  S   S40       1.0  0.22511  0.19485  0.27346  1.0000
  H   H195      1.0  0.36297  0.45484  0.31233  1.0000
  C   C119      1.0  0.31910  0.33907  0.43247  1.0000
  C   C120      1.0  0.32004  0.32774  0.45686  1.0000
  H   H196      1.0  0.34724  0.30181  0.42796  1.0000
  H   H197      1.0  0.30295  0.35039  0.43264  1.0000
  H   H198      1.0  0.33544  0.35135  0.43065  1.0000
  H   H199      1.0  0.30355  0.29096  0.42981  1.0000
  H   H200      1.0  0.33671  0.31739  0.45970  1.0000
  H   H201      1.0  0.32105  0.34171  0.46977  1.0000
  H   H202      1.0  0.30315  0.31686  0.46080  1.0000
  H   H203      1.0  0.35823  0.32502  0.40967  1.0000
  H   H204      1.0  0.26170  0.29728  0.43045  1.0000
  N   N9        1.0  0.32976  0.46653  0.35109  1.0000
  H   H205      1.0  0.12703  0.16331  0.46008  1.0000
  C   C121      1.0  0.34922  0.44871  0.34782  1.0000
  H   H206      1.0  0.15187  0.01573  0.33896  1.0000
  C   C122      1.0  0.14138  0.22328  0.28181  1.0000
  H   H207      1.0  0.34008  0.44145  0.39401  1.0000
  C   C123      1.0  0.35302  0.44108  0.32279  1.0000
  H   H208      1.0  0.08444  0.12102  0.50227  1.0000
  H   H209      1.0  0.10136  0.23945  0.50080  1.0000
  C   C124      1.0  0.17233  0.01646  0.34118  1.0000
  H   H210      1.0  0.16859  0.26340  0.29424  1.0000
  H   H211      1.0  0.34548  0.43261  0.35821  1.0000
  H   H212      1.0  0.36748  0.45545  0.35416  1.0000
  H   H213      1.0  0.17667  0.03269  0.35062  1.0000
  C   C125      1.0  0.33733  0.48761  0.33629  1.0000
  C   C126      1.0  0.07528  0.18702  0.44743  1.0000
  H   H214      1.0  0.17616  0.06259  0.48450  1.0000
  H   H215      1.0  0.46623  0.36998  0.47103  1.0000
  C   C127      1.0  0.12955  0.18259  0.45965  1.0000
  C   C128      1.0  0.10448  0.12260  0.50297  1.0000
  C   C129      1.0  0.37270  0.29201  0.27220  1.0000
  H   H216      1.0  0.31486  0.48653  0.37881  1.0000
  H   H217      1.0  0.43669  0.35665  0.46559  1.0000
  C   C130      1.0  0.11247  0.21917  0.47116  1.0000
  H   H218      1.0  0.19180  0.05054  0.50823  1.0000
  H   H219      1.0  0.38562  0.27740  0.27354  1.0000
  C   C131      1.0  0.15743  0.18785  0.46394  1.0000
  H   H220      1.0  0.11008  0.20556  0.29912  1.0000
  H   H221      1.0  0.29848  0.42133  0.33452  1.0000
  H   H222      1.0  0.15625  0.00950  0.43121  1.0000
  H   H223      1.0  0.16780  0.03333  0.49406  1.0000
  H   H224      1.0  0.12586  0.18743  0.28010  1.0000
  H   H225      1.0  0.28977  0.46907  0.35106  1.0000
  H   H226      1.0  0.02202  0.11986  0.48219  1.0000
  H   H227      1.0  0.10534  0.20938  0.26870  1.0000
  H   H228      1.0  0.16379  0.18032  0.48063  1.0000
  C   C132      1.0  0.38715  0.31339  0.28163  1.0000
  H   H229      1.0  0.17615  0.12920  0.50496  1.0000
  H   H230      1.0  0.43837  0.38666  0.47181  1.0000
  C   C133      1.0  0.44646  0.36982  0.47633  1.0000
  H   H231      1.0  0.03092  0.10008  0.50440  1.0000
  H   H232      1.0  0.40122  0.32066  0.26928  1.0000
  C   C134      1.0  0.32974  0.47405  0.37584  1.0000
  H   H233      1.0  0.15538  0.27589  0.26817  1.0000
  H   H234      1.0  0.45199  0.34549  0.50391  1.0000
  C   C135      1.0  0.11610  0.00749  0.37583  1.0000
  H   H235      1.0  0.10514  0.00687  0.36020  1.0000
  H   H236      1.0  0.49101  0.37406  0.50938  1.0000
  H   H237      1.0  0.42295  0.35893  0.50480  1.0000
  Fe  Fe21      1.0  0.41903  0.41025  0.59786  1.0000
  S   S41       1.0  0.40250  0.37421  0.60263  1.0000
  S   S42       1.0  0.45833  0.41898  0.58582  1.0000
  Fe  Fe22      1.0  0.36888  0.43234  0.60028  1.0000
  S   S43       1.0  0.34798  0.39788  0.60485  1.0000
  S   S44       1.0  0.34836  0.46587  0.59557  1.0000
  Fe  Fe23      1.0  0.37812  0.38893  0.62983  1.0000
  S   S45       1.0  0.37202  0.36779  0.66347  1.0000
  Fe  Fe24      1.0  0.37342  0.38537  0.57742  1.0000
  S   S46       1.0  0.36043  0.35779  0.55251  1.0000
  S   S47       1.0  0.39754  0.42450  0.62731  1.0000
  S   S48       1.0  0.39145  0.42036  0.57058  1.0000
  Fe  Fe25      1.0  0.09394  0.12006  0.63266  1.0000
  S   S49       1.0  0.10612  0.15262  0.61312  1.0000
  S   S50       1.0  0.05825  0.11481  0.65291  1.0000
  Fe  Fe26      1.0  0.13774  0.09282  0.61633  1.0000
  S   S51       1.0  0.15339  0.12322  0.59543  1.0000
  S   S52       1.0  0.15770  0.05876  0.61675  1.0000
  Fe  Fe27      1.0  0.14446  0.14474  0.62632  1.0000
  S   S53       1.0  0.17374  0.17262  0.63596  1.0000
  Fe  Fe28      1.0  0.11417  0.12857  0.58426  1.0000
  S   S54       1.0  0.09809  0.13228  0.54833  1.0000
  S   S55       1.0  0.13161  0.11367  0.64805  1.0000
  S   S56       1.0  0.09921  0.09667  0.60297  1.0000
  Fe  Fe29      1.0  0.26616  0.28437  0.72515  1.0000
  S   S57       1.0  0.22640  0.28572  0.73695  1.0000
  S   S58       1.0  0.27532  0.30742  0.69323  1.0000
  Fe  Fe30      1.0  0.22742  0.24685  0.74125  1.0000
  S   S59       1.0  0.19599  0.22077  0.73261  1.0000
  S   S60       1.0  0.26583  0.24520  0.72683  1.0000
  H   H238      1.0  0.10186  0.04585  0.55059  1.0000
  H   H239      1.0  0.50504  0.38791  0.65235  1.0000
  C   C136      1.0  0.47850  0.38866  0.51252  1.0000
  H   H240      1.0  0.25553  0.39028  0.67978  1.0000
  H   H241      1.0  0.15143  0.13437  0.54058  1.0000
  H   H242      1.0  0.09093  0.20502  0.52036  1.0000
  C   C137      1.0  0.14088  0.03227  0.61310  1.0000
  C   C138      1.0  0.11631  0.03196  0.60547  1.0000
  C   C139      1.0  0.07614  0.05237  0.67025  1.0000
  H   H243      1.0  0.10766  0.04805  0.60107  1.0000
  C   C140      1.0  0.17949  0.18569  0.66308  1.0000
  C   C141      1.0  0.19830  0.20318  0.66463  1.0000
  C   C142      1.0  0.20350  0.21416  0.68567  1.0000
  C   C143      1.0  0.19000  0.20769  0.70554  1.0000
  C   C144      1.0  0.17130  0.19011  0.70405  1.0000
  C   C145      1.0  0.16604  0.17917  0.68296  1.0000
  H   H244      1.0  0.20879  0.20839  0.64936  1.0000
  H   H245      1.0  0.21787  0.22770  0.68648  1.0000
  H   H246      1.0  0.16067  0.18501  0.71926  1.0000
  H   H247      1.0  0.15151  0.16579  0.68206  1.0000
  H   H248      1.0  0.19406  0.05149  0.54518  1.0000
  C   C146      1.0  0.03113  0.12128  0.63737  1.0000
  H   H249      1.0  0.01959  0.06810  0.62575  1.0000
  H   H250      1.0  0.03006  0.06779  0.66866  1.0000
  C   C147      1.0  0.02728  0.03826  0.69229  1.0000
  C   C148      1.0  0.36025  0.49207  0.60717  1.0000
  H   H251      1.0  0.03667  0.06215  0.60050  1.0000
  H   H252      1.0  0.18223  0.01534  0.55930  1.0000
  C   C149      1.0  0.38161  0.49273  0.62085  1.0000
  H   H253      1.0  0.39103  0.47688  0.62486  1.0000
  H   H254      1.0  0.02223  0.03846  0.61643  1.0000
  H   H255      1.0  0.23537  0.33528  0.74995  1.0000
  C   C150      1.0  0.16914  0.01304  0.54464  1.0000
  C   C151      1.0  0.34430  0.35283  0.67289  1.0000
  C   C152      1.0  0.34537  0.33692  0.69166  1.0000
  C   C153      1.0  0.32424  0.32345  0.69871  1.0000
  C   C154      1.0  0.30174  0.32575  0.68701  1.0000
  C   C155      1.0  0.30043  0.34221  0.66872  1.0000
  C   C156      1.0  0.32154  0.35573  0.66173  1.0000
  H   H256      1.0  0.36283  0.33465  0.70051  1.0000
  H   H257      1.0  0.32554  0.31085  0.71278  1.0000
  H   H258      1.0  0.28311  0.34414  0.65955  1.0000
  H   H259      1.0  0.32034  0.36805  0.64742  1.0000
  H   H260      1.0  0.17641  0.10035  0.55505  1.0000
  C   C157      1.0  0.48511  0.41109  0.60123  1.0000
  C   C158      1.0  0.48395  0.40112  0.62345  1.0000
  C   C159      1.0  0.24439  0.38273  0.69442  1.0000
  H   H261      1.0  0.46616  0.39803  0.63178  1.0000
  H   H262      1.0  0.24517  0.40318  0.74831  1.0000
  C   C160      1.0  0.27806  0.17447  0.75483  1.0000
  N   N10       1.0  0.15421  0.05558  0.54077  1.0000
  H   H263      1.0  0.24692  0.33441  0.72153  1.0000
  C   C161      1.0  0.10765  0.06402  0.54593  1.0000
  C   C162      1.0  0.43343  0.35112  0.55087  1.0000
  C   C163      1.0  0.11633  0.12760  0.52390  1.0000
  H   H264      1.0  0.34930  0.50115  0.54926  1.0000
  C   C164      1.0  0.49178  0.40485  0.52972  1.0000
  H   H265      1.0  0.43804  0.34262  0.56767  1.0000
  H   H266      1.0  0.05032  0.13789  0.60856  1.0000
  H   H267      1.0  0.40609  0.49985  0.54605  1.0000
  H   H268      1.0  0.48031  0.41959  0.53448  1.0000
  H   H269      1.0  0.27376  0.39321  0.71763  1.0000
  C   C165      1.0  0.23426  0.38652  0.74647  1.0000
  H   H270      1.0  0.04084  0.04572  0.70471  1.0000
  H   H271      1.0  0.07318  0.07097  0.67406  1.0000
  C   C166      1.0  0.13495  0.06971  0.55238  1.0000
  H   H272      1.0  0.24205  0.19847  0.71630  1.0000
  H   H273      1.0  0.23518  0.36664  0.68794  1.0000
  H   H274      1.0  0.13644  0.06790  0.57149  1.0000
  H   H275      1.0  0.20703  0.09023  0.55405  1.0000
  H   H276      1.0  0.30508  0.35902  0.73399  1.0000
  H   H277      1.0  0.17855  0.05938  0.57026  1.0000
  C   C167      1.0  0.50830  0.41520  0.59073  1.0000
  C   C168      1.0  0.26206  0.37724  0.71451  1.0000
  H   H278      1.0  0.06090  0.00839  0.67191  1.0000
  H   H279      1.0  0.21536  0.18041  0.75600  1.0000
  H   H280      1.0  0.20642  0.33203  0.71175  1.0000
  H   H281      1.0  0.20453  0.36240  0.71521  1.0000
  H   H282      1.0  0.07541  0.01292  0.64537  1.0000
  N   N11       1.0  0.25037  0.36824  0.73677  1.0000
  H   H283      1.0  0.27110  0.18606  0.70860  1.0000
  N   N12       1.0  0.05498  0.04250  0.65595  1.0000
  C   C169      1.0  0.23651  0.34535  0.73335  1.0000
  H   H284      1.0  0.27472  0.36434  0.70746  1.0000
  H   H285      1.0  0.28522  0.33322  0.73764  1.0000
  H   H286      1.0  0.17936  0.01440  0.52815  1.0000
  H   H287      1.0  0.19613  0.34217  0.73848  1.0000
  H   H288      1.0  0.10411  0.06161  0.64331  1.0000
  C   C170      1.0  0.03245  0.13289  0.61592  1.0000
  H   H289      1.0  0.21889  0.39102  0.73474  1.0000
  C   C171      1.0  0.36935  0.35544  0.52338  1.0000
  H   H290      1.0  0.10808  0.03336  0.65709  1.0000
  H   H291      1.0  0.24328  0.17854  0.69334  1.0000
  H   H292      1.0  0.13283  0.02370  0.53436  1.0000
  H   H293      1.0  0.06352  0.07216  0.63326  1.0000
  H   H294      1.0  0.18972  0.09204  0.52785  1.0000
  C   C172      1.0  0.50598  0.39539  0.63506  1.0000
  H   H295      1.0  0.42785  0.33709  0.53897  1.0000
  N   N13       1.0  0.45319  0.37921  0.51978  1.0000
  C   C173      1.0  0.15230  0.01113  0.61776  1.0000
  C   C174      1.0  0.45640  0.36556  0.54215  1.0000
  H   H296      1.0  0.47184  0.35330  0.54071  1.0000
  H   H297      1.0  0.13799  0.08853  0.54849  1.0000
  H   H298      1.0  0.09556  0.07544  0.55578  1.0000
  H   H299      1.0  0.06990  0.04514  0.62127  1.0000
  C   C175      1.0  0.10235  0.05139  0.65969  1.0000
  H   H300      1.0  0.23060  0.39573  0.69874  1.0000
  H   H301      1.0  0.26083  0.12947  0.75750  1.0000
  N   N14       1.0  0.34973  0.30243  0.61955  1.0000
  C   C176      1.0  0.32828  0.29642  0.63557  1.0000
  C   C177      1.0  0.34749  0.32743  0.61158  1.0000
  C   C178      1.0  0.37351  0.29948  0.63311  1.0000
  C   C179      1.0  0.34813  0.28604  0.59968  1.0000
  C   C180      1.0  0.32821  0.27210  0.64742  1.0000
  C   C181      1.0  0.32301  0.33354  0.59942  1.0000
  C   C182      1.0  0.39613  0.31534  0.62629  1.0000
  C   C183      1.0  0.36653  0.29092  0.57975  1.0000
  H   H302      1.0  0.32783  0.30920  0.64954  1.0000
  H   H303      1.0  0.31017  0.29737  0.62647  1.0000
  H   H304      1.0  0.36262  0.33306  0.59956  1.0000
  H   H305      1.0  0.34976  0.33912  0.62644  1.0000
  H   H306      1.0  0.37061  0.30307  0.65174  1.0000
  H   H307      1.0  0.37945  0.28117  0.63272  1.0000
  H   H308      1.0  0.35116  0.26789  0.60573  1.0000
  H   H309      1.0  0.32916  0.28572  0.59209  1.0000
  H   H310      1.0  0.34524  0.26917  0.65764  1.0000
  H   H311      1.0  0.31241  0.27066  0.65976  1.0000
  H   H312      1.0  0.32526  0.25805  0.63488  1.0000
  H   H313      1.0  0.31903  0.32254  0.58436  1.0000
  H   H314      1.0  0.30711  0.33288  0.61154  1.0000
  H   H315      1.0  0.32466  0.35174  0.59269  1.0000
  H   H316      1.0  0.41296  0.30882  0.63500  1.0000
  H   H317      1.0  0.39368  0.33317  0.63256  1.0000
  H   H318      1.0  0.39988  0.31632  0.60757  1.0000
  H   H319      1.0  0.36414  0.30820  0.57136  1.0000
  H   H320      1.0  0.36297  0.27790  0.56620  1.0000
  H   H321      1.0  0.38594  0.28901  0.58542  1.0000
  H   H322      1.0  0.44023  0.40770  0.54013  1.0000
  H   H323      1.0  0.41741  0.36209  0.55407  1.0000
  C   C184      1.0  0.14788  0.03019  0.54595  1.0000
  H   H324      1.0  0.11601  0.05936  0.67177  1.0000
  C   C185      1.0  0.20952  0.34617  0.72426  1.0000
  H   H325      1.0  0.36863  0.47700  0.54824  1.0000
  H   H326      1.0  0.22483  0.15753  0.72547  1.0000
  C   C186      1.0  0.17900  0.06242  0.55119  1.0000
  C   C187      1.0  0.18819  0.08776  0.54655  1.0000
  H   H327      1.0  0.36945  0.31816  0.52674  1.0000
  C   C188      1.0  0.14221  0.12993  0.52461  1.0000
  H   H328      1.0  0.14043  0.02777  0.56377  1.0000
  C   C189      1.0  0.36665  0.49509  0.54155  1.0000
  H   H329      1.0  0.07721  0.04317  0.68729  1.0000
  H   H330      1.0  0.29529  0.15608  0.72607  1.0000
  C   C190      1.0  0.25089  0.18253  0.71068  1.0000
  C   C191      1.0  0.03119  0.04852  0.66770  1.0000
  C   C192      1.0  0.24506  0.16176  0.72729  1.0000
  C   C193      1.0  0.27107  0.36444  0.75395  1.0000
  C   C194      1.0  0.10042  0.18840  0.51969  1.0000
  C   C195      1.0  0.43528  0.39813  0.52423  1.0000
  C   C196      1.0  0.05641  0.05390  0.63219  1.0000
  H   H331      1.0  0.25439  0.14642  0.72046  1.0000
  C   C197      1.0  0.37190  0.33305  0.51513  1.0000
  H   H332      1.0  0.49890  0.46692  0.62914  1.0000
  H   H333      1.0  0.41660  0.39048  0.52838  1.0000
  C   C198      1.0  0.03214  0.05543  0.61818  1.0000
  H   H334      1.0  0.49751  0.39511  0.54546  1.0000
  H   H335      1.0  0.08368  0.01070  0.59812  1.0000
  H   H336      1.0  0.24018  0.20096  0.75490  1.0000
  H   H337      1.0  0.10981  0.18583  0.53661  1.0000
  H   H338      1.0  0.01178  0.14821  0.58792  1.0000
  C   C199      1.0  0.10286  0.01079  0.60362  1.0000
  H   H339      1.0  0.01457  0.04297  0.65771  1.0000
  H   H340      1.0  0.17142  0.01122  0.62343  1.0000
  H   H341      1.0  0.02775  0.01903  0.69276  1.0000
  H   H342      1.0  0.01862  0.00837  0.64535  1.0000
  H   H343      1.0  0.46172  0.37729  0.55648  1.0000
  H   H344      1.0  0.36970  0.39196  0.51413  1.0000
  H   H345      1.0  0.36499  0.49400  0.52258  1.0000
  S   S61       1.0  0.28189  0.28774  0.76083  1.0000
  H   H346      1.0  0.10387  0.06784  0.52745  1.0000
  C   C200      1.0  0.29826  0.15948  0.74460  1.0000
  C   C201      1.0  0.29226  0.34921  0.74597  1.0000
  C   C202      1.0  0.15307  0.06087  0.51519  1.0000
  H   H347      1.0  0.30001  0.14286  0.75443  1.0000
  H   H348      1.0  0.31643  0.16907  0.74608  1.0000
  C   C203      1.0  0.05799  0.01664  0.65460  1.0000
  H   H349      1.0  0.28049  0.19229  0.74708  1.0000
  N   N15       1.0  0.25166  0.16545  0.75224  1.0000
  H   H350      1.0  0.21982  0.11962  0.74991  1.0000
  H   H351      1.0  0.50905  0.41233  0.52167  1.0000
  C   C204      1.0  0.01059  0.13867  0.60421  1.0000
  H   H352      1.0  0.08654  0.17380  0.51833  1.0000
  H   H353      1.0  0.27982  0.38134  0.75916  1.0000
  H   H354      1.0  0.30343  0.34380  0.76117  1.0000
  H   H355      1.0  0.42632  0.43296  0.51250  1.0000
  H   H356      1.0  0.15255  0.07987  0.51149  1.0000
  Fe  Fe31      1.0  0.38371  0.09430  0.86892  1.0000
  S   S62       1.0  0.41177  0.09948  0.89698  1.0000
  S   S63       1.0  0.38536  0.06186  0.84778  1.0000
  Fe  Fe32      1.0  0.36003  0.14083  0.87650  1.0000
  S   S64       1.0  0.38601  0.14930  0.90600  1.0000
  S   S65       1.0  0.33008  0.16682  0.86757  1.0000
  Fe  Fe33      1.0  0.41566  0.13597  0.88322  1.0000
  S   S66       1.0  0.45238  0.15594  0.88271  1.0000
  Fe  Fe34      1.0  0.38019  0.11216  0.91776  1.0000
  S   S67       1.0  0.37956  0.09684  0.95418  1.0000
  S   S68       1.0  0.39041  0.13014  0.85291  1.0000
  S   S69       1.0  0.35145  0.10438  0.89048  1.0000
  Fe  Fe35      1.0  0.08277  0.39870  0.89684  1.0000
  S   S70       1.0  0.09545  0.40184  0.86009  1.0000
  S   S71       1.0  0.04406  0.39492  0.91161  1.0000
  Fe  Fe36      1.0  0.13488  0.40607  0.91579  1.0000
  S   S72       1.0  0.15231  0.41056  0.88044  1.0000
  S   S73       1.0  0.15682  0.40778  0.94905  1.0000
  Fe  Fe37      1.0  0.11912  0.43215  0.87229  1.0000
  S   S74       1.0  0.11665  0.46551  0.85101  1.0000
  Fe  Fe38      1.0  0.12763  0.37992  0.87084  1.0000
  S   S75       1.0  0.13769  0.34738  0.85128  1.0000
  S   S76       1.0  0.10427  0.43034  0.90832  1.0000
  S   S77       1.0  0.11245  0.37411  0.90691  1.0000
  C   C205      1.0  0.47977  0.09293  0.92497  1.0000
  H   H357      1.0  0.45436  0.05247  0.85603  1.0000
  H   H358      1.0  0.46899  0.01488  0.91923  1.0000
  Fe  Fe39      1.0  0.24198  0.28759  0.77288  1.0000
  S   S78       1.0  0.23435  0.31797  0.79661  1.0000
  S   S79       1.0  0.23996  0.24856  0.77854  1.0000
  H   H359      1.0  0.23646  0.38113  0.78421  1.0000
  H   H360      1.0  0.14273  0.47729  0.89337  1.0000
  C   C206      1.0  0.16410  0.34053  0.83459  1.0000
  C   C207      1.0  0.18553  0.35495  0.83349  1.0000
  C   C208      1.0  0.20676  0.34773  0.82180  1.0000
  C   C209      1.0  0.20672  0.32633  0.81053  1.0000
  C   C210      1.0  0.18511  0.31217  0.81116  1.0000
  C   C211      1.0  0.16403  0.31918  0.82325  1.0000
  H   H361      1.0  0.18593  0.37142  0.84208  1.0000
  H   H362      1.0  0.22340  0.35877  0.82159  1.0000
  H   H363      1.0  0.18473  0.29565  0.80265  1.0000
  H   H364      1.0  0.14760  0.30785  0.82398  1.0000
  C   C212      1.0  0.04857  0.46572  0.90866  1.0000
  H   H365      1.0  0.21267  0.33693  0.96337  1.0000
  C   C213      1.0  0.15236  0.40421  0.99629  1.0000
  C   C214      1.0  0.14033  0.40156  0.97495  1.0000
  C   C215      1.0  0.11550  0.39371  0.97459  1.0000
  H   H366      1.0  0.43555  0.13124  0.99055  1.0000
  H   H367      1.0  0.45267  0.16982  0.93443  1.0000
  H   H368      1.0  0.17156  0.41029  0.99670  1.0000
  H   H369      1.0  0.10600  0.39166  0.95828  1.0000
  H   H370      1.0  0.48078  0.00728  0.87394  1.0000
  S   S80       1.0  0.30976  0.22452  0.77432  1.0000
  H   H371      1.0  0.03696  0.48693  0.83002  1.0000
  C   C216      1.0  0.47845  0.13991  0.87589  1.0000
  H   H372      1.0  0.20568  0.39023  0.93145  1.0000
  H   H373      1.0  0.41953  0.03878  0.88152  1.0000
  H   H374      1.0  0.16907  0.37022  0.91160  1.0000
  C   C217      1.0  0.19732  0.32052  0.93231  1.0000
  C   C218      1.0  0.32304  0.18090  0.84080  1.0000
  C   C219      1.0  0.30431  0.19733  0.84012  1.0000
  C   C220      1.0  0.29951  0.21043  0.81979  1.0000
  C   C221      1.0  0.31357  0.20736  0.79993  1.0000
  C   C222      1.0  0.33180  0.19046  0.80040  1.0000
  C   C223      1.0  0.33632  0.17711  0.82061  1.0000
  H   H375      1.0  0.29378  0.20031  0.85557  1.0000
  H   H376      1.0  0.28537  0.22330  0.81969  1.0000
  H   H377      1.0  0.34262  0.18777  0.78506  1.0000
  H   H378      1.0  0.35036  0.16416  0.82066  1.0000
  C   C224      1.0  0.43841  0.03278  0.88600  1.0000
  C   C225      1.0  0.38297  0.11366  0.97910  1.0000
  C   C226      1.0  0.38332  0.13795  0.97795  1.0000
  H   H379      1.0  0.06694  0.48583  0.84216  1.0000
  H   H380      1.0  0.38104  0.14686  0.96149  1.0000
  C   C227      1.0  0.05608  0.46660  0.88293  1.0000
  H   H381      1.0  0.22193  0.36366  0.93103  1.0000
  H   H382      1.0  0.35182  0.22437  0.83709  1.0000
  C   C228      1.0  0.10288  0.38840  0.99538  1.0000
  C   C229      1.0  0.15558  0.32566  0.91491  1.0000
  H   H383      1.0  0.41406  0.26233  0.81667  1.0000
  C   C230      1.0  0.37059  0.01582  0.84659  1.0000
  H   H384      1.0  0.02449  0.32818  0.91577  1.0000
  H   H385      1.0  0.21265  0.34070  0.89227  1.0000
  H   H386      1.0  0.42436  0.17335  0.83681  1.0000
  H   H387      1.0  0.45142  0.16537  0.96530  1.0000
  H   H388      1.0  0.03430  0.44286  0.82924  1.0000
  H   H389      1.0  0.33891  0.23268  0.86367  1.0000
  H   H390      1.0  0.41168  0.23311  0.80740  1.0000
  C   C231      1.0  0.44995  0.13292  0.94510  1.0000
  H   H391      1.0  0.19221  0.30176  0.93039  1.0000
  C   C232      1.0  0.22232  0.13105  0.76497  1.0000
  H   H392      1.0  0.06545  0.46804  0.91949  1.0000
  H   H393      1.0  0.49393  0.13855  0.92541  1.0000
  H   H394      1.0  0.49396  0.15738  0.94883  1.0000
  C   C233      1.0  0.45730  0.05042  0.87490  1.0000
  H   H395      1.0  0.01808  0.44309  0.86532  1.0000
  H   H396      1.0  0.36166  0.25155  0.85010  1.0000
  H   H397      1.0  0.21937  0.12053  0.78112  1.0000
  H   H398      1.0  0.49763  0.10012  0.91796  1.0000
  H   H399      1.0  0.01147  0.33260  0.88728  1.0000
  C   C234      1.0  0.19192  0.31103  0.88054  1.0000
  H   H400      1.0  0.03387  0.41926  0.00267  1.0000
  H   H401      1.0  0.45444  0.06777  0.88218  1.0000
  H   H402      1.0  0.20739  0.14372  0.76458  1.0000
  H   H403      1.0  0.05982  0.44833  0.87867  1.0000
  H   H404      1.0  0.21727  0.32248  0.92739  1.0000
  H   H405      1.0  0.48031  0.07374  0.92374  1.0000
  H   H406      1.0  0.34437  0.01373  0.90878  1.0000
  H   H407      1.0  0.42414  0.16085  0.94892  1.0000
  C   C235      1.0  0.05204  0.45278  0.83176  1.0000
  N   N16       1.0  0.03747  0.47654  0.86634  1.0000
  H   H408      1.0  0.43360  0.12194  0.95095  1.0000
  H   H409      1.0  0.38659  0.16950  0.99725  1.0000
  H   H410      1.0  0.44978  0.13080  0.92613  1.0000
  H   H411      1.0  0.25546  0.14360  0.78322  1.0000
  H   H412      1.0  0.20832  0.39319  0.77418  1.0000
  C   C236      1.0  0.23452  0.18508  0.78830  1.0000
  C   C237      1.0  0.36169  0.03529  0.88198  1.0000
  H   H413      1.0  0.22215  0.19925  0.79296  1.0000
  C   C238      1.0  0.38558  0.10226  0.00061  1.0000
  C   C239      1.0  0.47466  0.12756  0.98109  1.0000
  C   C240      1.0  0.38637  0.15071  0.99822  1.0000
  H   H414      1.0  0.37769  0.01641  0.82914  1.0000
  C   C241      1.0  0.20719  0.37356  0.92237  1.0000
  H   H415      1.0  0.20340  0.31235  0.86462  1.0000
  H   H416      1.0  0.18323  0.34726  0.88065  1.0000
  H   H417      1.0  0.08374  0.38220  0.99491  1.0000
  C   C242      1.0  0.37120  0.03612  0.85954  1.0000
  H   H418      1.0  0.06062  0.45546  0.81445  1.0000
  H   H419      1.0  0.22680  0.16900  0.79687  1.0000
  N   N17       1.0  0.18192  0.33525  0.91630  1.0000
  H   H420      1.0  0.40331  0.01488  0.91594  1.0000
  C   C243      1.0  0.01184  0.32067  0.90257  1.0000
  H   H421      1.0  0.03621  0.47967  0.91350  1.0000
  H   H422      1.0  0.38493  0.24688  0.81845  1.0000
  H   H423      1.0  0.19803  0.30933  0.96848  1.0000
  H   H424      1.0  0.17426  0.36246  0.94057  1.0000
  C   C244      1.0  0.13992  0.32604  0.93708  1.0000
  H   H425      1.0  0.45743  0.11048  0.86304  1.0000
  C   C245      1.0  0.19637  0.32583  0.95836  1.0000
  H   H426      1.0  0.17282  0.30611  0.87486  1.0000
  C   C246      1.0  0.04837  0.47676  0.84237  1.0000
  H   H427      1.0  0.03481  0.39016  0.86232  1.0000
  C   C247      1.0  0.19278  0.33480  0.89231  1.0000
  H   H428      1.0  0.47888  0.14596  0.98560  1.0000
  C   C248      1.0  0.35176  0.01425  0.89143  1.0000
  C   C249      1.0  0.12400  0.49225  0.86407  1.0000
  H   H429      1.0  0.50448  0.16656  0.88713  1.0000
  H   H430      1.0  0.36203  0.05083  0.89210  1.0000
  H   H431      1.0  0.13876  0.34363  0.94426  1.0000
  C   C250      1.0  0.13706  0.49319  0.88489  1.0000
  H   H432      1.0  0.45865  0.08932  0.95625  1.0000
  H   H433      1.0  0.14528  0.33510  0.90112  1.0000
  H   H434      1.0  0.12058  0.32033  0.93287  1.0000
  H   H435      1.0  0.21277  0.37815  0.90436  1.0000
  H   H436      1.0  0.19948  0.29704  0.89164  1.0000
  C   C251      1.0  0.47575  0.11779  0.86658  1.0000
  H   H437      1.0  0.07463  0.47555  0.88117  1.0000
  C   C252      1.0  0.18179  0.36038  0.92306  1.0000
  C   C253      1.0  0.50228  0.14941  0.88005  1.0000
  H   H438      1.0  0.47673  0.04599  0.87867  1.0000
  H   H439      1.0  0.03932  0.44869  0.91330  1.0000
  H   H440      1.0  0.14657  0.31349  0.95029  1.0000
  H   H441      1.0  0.49473  0.08850  0.85354  1.0000
  H   H442      1.0  0.15509  0.30716  0.90982  1.0000
  N   N18       1.0  0.39989  0.21526  0.85512  1.0000
  C   C254      1.0  0.41699  0.20398  0.87236  1.0000
  C   C255      1.0  0.39368  0.19756  0.83707  1.0000
  C   C256      1.0  0.37639  0.22074  0.86767  1.0000
  C   C257      1.0  0.41267  0.23709  0.84526  1.0000
  C   C258      1.0  0.42340  0.21790  0.89411  1.0000
  C   C259      1.0  0.41614  0.18682  0.82538  1.0000
  C   C260      1.0  0.35635  0.23299  0.85346  1.0000
  C   C261      1.0  0.40511  0.24502  0.82063  1.0000
  H   H443      1.0  0.40909  0.18674  0.87829  1.0000
  H   H444      1.0  0.43513  0.20045  0.86427  1.0000
  H   H445      1.0  0.38191  0.20479  0.82314  1.0000
  H   H446      1.0  0.38234  0.18282  0.84484  1.0000
  H   H447      1.0  0.36767  0.20454  0.87548  1.0000
  H   H448      1.0  0.38032  0.23243  0.88229  1.0000
  H   H449      1.0  0.40990  0.25197  0.85678  1.0000
  H   H450      1.0  0.43315  0.23524  0.84459  1.0000
  H   H451      1.0  0.42904  0.23621  0.88993  1.0000
  H   H452      1.0  0.40775  0.21715  0.90656  1.0000
  H   H453      1.0  0.43923  0.20974  0.90309  1.0000
  H   H454      1.0  0.40984  0.17794  0.80949  1.0000
  H   H455      1.0  0.43079  0.19998  0.82052  1.0000
  H   H456      1.0  0.17925  0.33373  0.96434  1.0000
  C   C262      1.0  0.01827  0.40053  0.89408  1.0000
  H   H457      1.0  0.01906  0.50165  0.88731  1.0000
  H   H458      1.0  0.06496  0.44214  0.84200  1.0000
  H   H459      1.0  0.25313  0.18956  0.79540  1.0000
  C   C263      1.0  0.01403  0.46159  0.86782  1.0000
  C   C264      1.0  0.22247  0.38033  0.77018  1.0000
  C   C265      1.0  0.49686  0.10536  0.86123  1.0000
  H   H460      1.0  0.49111  0.09135  0.96058  1.0000
  C   C266      1.0  0.44452  0.15874  0.94865  1.0000
  H   H461      1.0  0.46445  0.09861  0.91372  1.0000
  N   N19       1.0  0.47389  0.12462  0.95529  1.0000
  C   C267      1.0  0.47578  0.09912  0.95046  1.0000
  H   H462      1.0  0.21302  0.36292  0.77062  1.0000
  H   H463      1.0  0.43984  0.03495  0.90488  1.0000
  H   H464      1.0  0.45332  0.01562  0.84417  1.0000
  C   C268      1.0  0.01819  0.39598  0.87049  1.0000
  H   H465      1.0  0.26375  0.35598  0.77016  1.0000
  H   H466      1.0  0.42086  0.01685  0.84794  1.0000
  H   H467      1.0  0.38525  0.08347  0.00162  1.0000
  C   C269      1.0  0.24869  0.14249  0.76510  1.0000
  H   H468      1.0  0.28286  0.17637  0.77335  1.0000
  Fe  Fe40      1.0  0.27850  0.24860  0.76381  1.0000
  C   C270      1.0  0.03152  0.50115  0.87210  1.0000
  N   N20       1.0  0.44078  0.00781  0.87926  1.0000
  H   H469      1.0  0.49017  0.11782  0.98892  1.0000
  H   H470      1.0  0.44498  0.10141  0.99043  1.0000
  C   C271      1.0  0.43732  0.00696  0.85340  1.0000
  H   H471      1.0  0.02010  0.30433  0.89700  1.0000
  C   C272      1.0  0.49510  0.13872  0.94452  1.0000
  C   C273      1.0  0.45097  0.11950  0.99429  1.0000
  C   C274      1.0  0.23487  0.18328  0.76180  1.0000
  Fe  Fe41      1.0  0.38108  0.87317  0.11308  1.0000
  S   S81       1.0  0.36737  0.89201  0.08102  1.0000
  S   S82       1.0  0.36468  0.83941  0.12976  1.0000
  Fe  Fe42      1.0  0.42753  0.90464  0.11606  1.0000
  S   S83       1.0  0.41742  0.92605  0.08505  1.0000
  S   S84       1.0  0.46224  0.91531  0.13546  1.0000
  Fe  Fe43      1.0  0.37905  0.92476  0.09941  1.0000
  S   S85       1.0  0.35609  0.95700  0.09702  1.0000
  Fe  Fe44      1.0  0.40691  0.89235  0.06860  1.0000
  S   S86       1.0  0.42354  0.89219  0.03261  1.0000
  S   S87       1.0  0.38974  0.90602  0.13224  1.0000
  S   S88       1.0  0.42002  0.87081  0.09882  1.0000
  Fe  Fe45      1.0  0.12005  0.59016  0.12253  1.0000
  S   S89       1.0  0.10190  0.60944  0.09333  1.0000
  S   S90       1.0  0.10353  0.55363  0.12843  1.0000
  Fe  Fe46      1.0  0.15413  0.63232  0.13439  1.0000
  S   S91       1.0  0.13862  0.65435  0.10567  1.0000
  S   S92       1.0  0.18776  0.64376  0.15610  1.0000
  Fe  Fe47      1.0  0.10151  0.63931  0.11716  1.0000
  S   S93       1.0  0.06778  0.66130  0.11511  1.0000
  Fe  Fe48      1.0  0.14002  0.62259  0.08403  1.0000
  S   S94       1.0  0.15396  0.62417  0.04717  1.0000
  S   S95       1.0  0.11657  0.61932  0.14757  1.0000
  S   S96       1.0  0.15863  0.60132  0.11159  1.0000
  Fe  Fe49      1.0  0.27688  0.79046  0.23688  1.0000
  C   C275      1.0  0.18186  0.56262  0.06127  1.0000
  S   S97       1.0  0.29088  0.82228  0.21552  1.0000
  Fe  Fe50      1.0  0.23949  0.74890  0.23722  1.0000
  S   S98       1.0  0.20740  0.73520  0.21495  1.0000
  S   S99       1.0  0.28038  0.75264  0.22931  1.0000
  C   C276      1.0  0.48980  0.90046  0.13139  1.0000
  C   C277      1.0  0.16215  0.78642  0.23151  1.0000
  H   H472      1.0  0.10160  0.61022  0.04297  1.0000
  C   C278      1.0  0.19283  0.66936  0.17231  1.0000
  C   C279      1.0  0.21529  0.67245  0.18448  1.0000
  C   C280      1.0  0.22009  0.69237  0.19772  1.0000
  C   C281      1.0  0.20244  0.70951  0.19889  1.0000
  C   C282      1.0  0.18010  0.70656  0.18655  1.0000
  C   C283      1.0  0.17529  0.68662  0.17335  1.0000
  H   H473      1.0  0.22896  0.65919  0.18383  1.0000
  H   H474      1.0  0.23733  0.69430  0.20714  1.0000
  H   H475      1.0  0.16631  0.71970  0.18727  1.0000
  H   H476      1.0  0.15795  0.68450  0.16411  1.0000
  H   H477      1.0  0.33620  0.98461  0.04415  1.0000
  H   H478      1.0  0.48766  0.87427  0.06946  1.0000
  C   C284      1.0  0.04007  0.64542  0.12169  1.0000
  H   H479      1.0  0.11488  0.50844  0.07262  1.0000
  H   H480      1.0  0.06502  0.71084  0.08236  1.0000
  H   H481      1.0  0.12450  0.55682  0.01398  1.0000
  H   H482      1.0  0.08920  0.56443  0.07079  1.0000
  C   C285      1.0  0.12007  0.52805  0.12461  1.0000
  C   C286      1.0  0.14570  0.52867  0.12077  1.0000
  C   C287      1.0  0.13333  0.62313  0.02352  1.0000
  H   H483      1.0  0.15602  0.54512  0.12071  1.0000
  H   H484      1.0  0.37271  0.89997  0.18454  1.0000
  H   H485      1.0  0.13339  0.57231  0.06541  1.0000
  H   H486      1.0  0.05858  0.53832  0.16010  1.0000
  C   C288      1.0  0.12640  0.55416  0.06247  1.0000
  H   H487      1.0  0.37653  0.86657  0.02563  1.0000
  C   C289      1.0  0.37183  0.98428  0.10005  1.0000
  H   H488      1.0  0.17950  0.52982  0.04324  1.0000
  C   C290      1.0  0.35660  0.97469  0.01317  1.0000
  H   H489      1.0  0.01075  0.55593  0.09579  1.0000
  C   C291      1.0  0.39731  0.98568  0.10441  1.0000
  C   C292      1.0  0.14267  0.55791  0.02311  1.0000
  H   H490      1.0  0.40755  0.97000  0.10655  1.0000
  C   C293      1.0  0.34389  0.83498  0.15345  1.0000
  C   C294      1.0  0.33050  0.85304  0.16242  1.0000
  C   C295      1.0  0.31435  0.84873  0.18130  1.0000
  C   C296      1.0  0.31139  0.82639  0.19157  1.0000
  C   C297      1.0  0.32483  0.80831  0.18264  1.0000
  C   C298      1.0  0.34087  0.81259  0.16363  1.0000
  H   H491      1.0  0.33248  0.87032  0.15474  1.0000
  H   H492      1.0  0.30404  0.86285  0.18802  1.0000
  H   H493      1.0  0.32298  0.79109  0.19044  1.0000
  H   H494      1.0  0.35115  0.79848  0.15687  1.0000
  H   H495      1.0  0.47190  0.86894  0.11954  1.0000
  C   C299      1.0  0.48934  0.87759  0.12378  1.0000
  H   H496      1.0  0.16665  0.52923  0.07089  1.0000
  C   C300      1.0  0.37375  0.88474  0.19660  1.0000
  H   H497      1.0  0.11361  0.52054  0.02923  1.0000
  H   H498      1.0  0.01928  0.59652  0.15059  1.0000
  C   C301      1.0  0.41023  0.96849  0.03054  1.0000
  N   N21       1.0  0.41610  0.86519  0.19408  1.0000
  C   C302      1.0  0.42840  0.84534  0.18265  1.0000
  C   C303      1.0  0.41764  0.86125  0.21988  1.0000
  C   C304      1.0  0.42883  0.88818  0.18777  1.0000
  C   C305      1.0  0.38956  0.86577  0.18606  1.0000
  C   C306      1.0  0.43187  0.84776  0.15630  1.0000
  C   C307      1.0  0.40009  0.84189  0.23007  1.0000
  C   C308      1.0  0.45693  0.88994  0.19279  1.0000
  H   H499      1.0  0.44702  0.84240  0.19025  1.0000
  H   H500      1.0  0.41754  0.82877  0.18576  1.0000
  H   H501      1.0  0.41421  0.87742  0.22931  1.0000
  H   H502      1.0  0.43677  0.85669  0.22509  1.0000
  H   H503      1.0  0.42600  0.89280  0.16924  1.0000
  H   H504      1.0  0.42037  0.90256  0.19714  1.0000
  H   H505      1.0  0.38869  0.86875  0.16709  1.0000
  H   H506      1.0  0.37973  0.84855  0.18855  1.0000
  H   H507      1.0  0.44182  0.83253  0.15015  1.0000
  H   H508      1.0  0.41392  0.84777  0.14709  1.0000
  H   H509      1.0  0.44319  0.86341  0.15111  1.0000
  H   H510      1.0  0.12793  0.54528  0.07957  1.0000
  H   H511      1.0  0.14395  0.51047  0.02661  1.0000
  H   H512      1.0  0.32918  0.91606  0.02795  1.0000
  H   H513      1.0  0.18689  0.76415  0.24885  1.0000
  N   N22       1.0  0.25247  0.75929  0.15681  1.0000
  C   C309      1.0  0.22485  0.75542  0.15332  1.0000
  C   C310      1.0  0.25583  0.77831  0.17413  1.0000
  C   C311      1.0  0.26243  0.73711  0.16698  1.0000
  C   C312      1.0  0.26428  0.76543  0.13374  1.0000
  C   C313      1.0  0.21664  0.73463  0.13842  1.0000
  C   C314      1.0  0.24474  0.80180  0.16720  1.0000
  C   C315      1.0  0.29063  0.73667  0.17096  1.0000
  C   C316      1.0  0.28949  0.77923  0.13403  1.0000
  H   H514      1.0  0.21516  0.75306  0.17017  1.0000
  H   H515      1.0  0.21666  0.77096  0.14494  1.0000
  H   H516      1.0  0.27556  0.78192  0.17844  1.0000
  H   H517      1.0  0.24721  0.77273  0.19093  1.0000
  H   H518      1.0  0.25313  0.73264  0.18375  1.0000
  H   H519      1.0  0.25832  0.72216  0.15567  1.0000
  H   H520      1.0  0.26685  0.74941  0.12375  1.0000
  H   H521      1.0  0.25165  0.77630  0.12317  1.0000
  H   H522      1.0  0.21845  0.71781  0.14796  1.0000
  H   H523      1.0  0.19658  0.73585  0.13433  1.0000
  H   H524      1.0  0.22678  0.73437  0.12184  1.0000
  H   H525      1.0  0.22424  0.80106  0.16896  1.0000
  H   H526      1.0  0.25183  0.81532  0.17913  1.0000
  H   H527      1.0  0.24992  0.80767  0.14948  1.0000
  H   H528      1.0  0.29781  0.75098  0.18176  1.0000
  H   H529      1.0  0.30082  0.73667  0.15436  1.0000
  H   H530      1.0  0.29494  0.72021  0.18031  1.0000
  H   H531      1.0  0.30114  0.77346  0.11961  1.0000
  H   H532      1.0  0.30062  0.77708  0.14983  1.0000
  H   H533      1.0  0.28691  0.79804  0.13051  1.0000
  C   C317      1.0  0.36294  0.93717  0.03531  1.0000
  H   H534      1.0  0.05861  0.63728  0.06781  1.0000
  H   H535      1.0  0.35464  0.87765  0.19989  1.0000
  H   H536      1.0  0.38068  0.89099  0.21336  1.0000
  H   H537      1.0  0.46749  0.87781  0.18234  1.0000
  H   H538      1.0  0.32311  0.94555  0.03592  1.0000
  H   H539      1.0  0.15954  0.74961  0.23887  1.0000
  H   H540      1.0  0.09772  0.67494  0.07469  1.0000
  H   H541      1.0  0.03342  0.55723  0.16173  1.0000
  H   H542      1.0  0.02318  0.51433  0.17197  1.0000
  C   C318      1.0  0.05383  0.67251  0.05343  1.0000
  H   H543      1.0  0.43055  0.96776  0.02772  1.0000
  C   C319      1.0  0.12499  0.68211  0.04770  1.0000
  H   H544      1.0  0.40569  0.98712  0.02960  1.0000
  H   H545      1.0  0.14522  0.57659  0.02714  1.0000
  C   C320      1.0  0.09858  0.55549  0.05665  1.0000
  H   H546      1.0  0.05989  0.71604  0.03886  1.0000
  C   C321      1.0  0.04047  0.54247  0.15211  1.0000
  C   C322      1.0  0.48842  0.89265  0.06327  1.0000
  C   C323      1.0  0.10977  0.77220  0.25983  1.0000
  H   H547      1.0  0.08540  0.66007  0.01522  1.0000
  H   H548      1.0  0.36954  0.94576  0.05111  1.0000
  C   C324      1.0  0.07996  0.71784  0.07078  1.0000
  N   N23       1.0  0.14206  0.54280  0.04477  1.0000
  H   H549      1.0  0.09916  0.65359  0.05373  1.0000
  H   H550      1.0  0.05886  0.63867  0.03677  1.0000
  H   H551      1.0  0.10827  0.76781  0.24131  1.0000
  H   H552      1.0  0.48198  0.89387  0.04513  1.0000
  N   N24       1.0  0.36893  0.95152  0.01379  1.0000
  H   H553      1.0  0.20207  0.56059  0.05878  1.0000
  C   C325      1.0  0.16763  0.53998  0.05469  1.0000
  C   C326      1.0  0.01860  0.61224  0.14011  1.0000
  H   H554      1.0  0.03709  0.68067  0.04605  1.0000
  H   H555      1.0  0.14244  0.79073  0.22985  1.0000
  H   H556      1.0  0.17779  0.50850  0.11406  1.0000
  N   N25       1.0  0.07749  0.68301  0.04327  1.0000
  H   H557      1.0  0.08938  0.53804  0.05560  1.0000
  C   C327      1.0  0.16637  0.76545  0.24792  1.0000
  S   S100      1.0  0.23558  0.78722  0.24271  1.0000
  H   H558      1.0  0.01072  0.51893  0.11045  1.0000
  H   H559      1.0  0.12745  0.70112  0.04973  1.0000
  H   H560      1.0  0.13945  0.67382  0.05839  1.0000
  H   H561      1.0  0.46401  0.90775  0.18788  1.0000
  C   C328      1.0  0.33520  0.93067  0.03903  1.0000
  C   C329      1.0  0.35486  0.98748  0.03630  1.0000
  C   C330      1.0  0.04075  0.62445  0.13426  1.0000
  H   H562      1.0  0.17705  0.57792  0.05051  1.0000
  H   H563      1.0  0.05250  0.67643  0.07198  1.0000
  H   H564      1.0  0.05832  0.61792  0.14002  1.0000
  H   H565      1.0  0.07865  0.73705  0.07041  1.0000
  H   H566      1.0  0.09245  0.71788  0.03555  1.0000
  C   C331      1.0  0.01712  0.65383  0.11449  1.0000
  H   H567      1.0  0.04471  0.54767  0.13396  1.0000
  H   H568      1.0  0.09546  0.56565  0.04049  1.0000
  H   H569      1.0  0.17841  0.56663  0.07959  1.0000
  H   H570      1.0  0.38038  0.84674  0.22902  1.0000
  C   C332      1.0  0.10850  0.61568  0.02617  1.0000
  H   H571      1.0  0.40442  0.83920  0.24867  1.0000
  H   H572      1.0  0.37308  0.92063  0.03528  1.0000
  H   H573      1.0  0.46109  0.88720  0.21135  1.0000
  H   H574      1.0  0.47473  0.90177  0.07378  1.0000
  H   H575      1.0  0.40232  0.82505  0.22160  1.0000
  C   C333      1.0  0.05047  0.64583  0.05229  1.0000
  H   H576      1.0  0.12881  0.67748  0.02962  1.0000
  C   C334      1.0  0.09918  0.67273  0.05575  1.0000
  H   H577      1.0  0.33903  0.00398  0.09438  1.0000
  C   C335      1.0  0.07738  0.70901  0.04590  1.0000
  H   H578      1.0  0.36909  0.98328  0.04928  1.0000
  H   H579      1.0  0.33225  0.92469  0.05722  1.0000
  H   H580      1.0  0.18158  0.55646  0.01174  1.0000
  H   H581      1.0  0.16882  0.78219  0.21403  1.0000
  H   H582      1.0  0.01648  0.67011  0.10487  1.0000
  C   C336      1.0  0.07956  0.67805  0.01792  1.0000
  C   C337      1.0  0.13146  0.51912  0.03872  1.0000
  H   H583      1.0  0.09823  0.71398  0.07849  1.0000
  H   H584      1.0  0.40669  0.96120  0.04811  1.0000
  H   H585      1.0  0.17328  0.80196  0.23693  1.0000
  H   H586      1.0  0.03039  0.64094  0.05150  1.0000
  C   C338      1.0  0.15798  0.50791  0.11704  1.0000
  C   C339      1.0  0.35876  0.00491  0.09773  1.0000
  C   C340      1.0  0.10693  0.50655  0.12487  1.0000
  H   H587      1.0  0.03291  0.50739  0.14370  1.0000
  H   H588      1.0  0.00983  0.56580  0.12441  1.0000
  C   C341      1.0  0.02320  0.52063  0.15362  1.0000
  C   C342      1.0  0.39672  0.95467  0.01159  1.0000
  Fe  Fe51      1.0  0.42633  0.62220  0.36350  1.0000
  S   S101      1.0  0.39123  0.61067  0.34556  1.0000
  S   S102      1.0  0.46135  0.62874  0.34272  1.0000
  Fe  Fe52      1.0  0.40369  0.61520  0.41129  1.0000
  S   S103      1.0  0.36688  0.60249  0.39722  1.0000
  S   S104      1.0  0.41708  0.61938  0.44819  1.0000
  Fe  Fe53      1.0  0.38946  0.58210  0.37271  1.0000
  S   S105      1.0  0.38352  0.54558  0.35961  1.0000
  Fe  Fe54      1.0  0.37159  0.63229  0.37104  1.0000
  S   S106      1.0  0.33758  0.65427  0.36401  1.0000
  S   S107      1.0  0.42578  0.59235  0.38888  1.0000
  S   S108      1.0  0.40707  0.64628  0.38695  1.0000
  Fe  Fe55      1.0  0.08920  0.89942  0.38505  1.0000
  S   S109      1.0  0.12191  0.91986  0.37031  1.0000
  S   S110      1.0  0.05199  0.90800  0.36955  1.0000
  Fe  Fe56      1.0  0.12080  0.87726  0.42217  1.0000
  S   S111      1.0  0.15602  0.89591  0.41034  1.0000
  S   S112      1.0  0.11624  0.85447  0.45432  1.0000
  Fe  Fe57      1.0  0.13222  0.92710  0.40687  1.0000
  S   S113      1.0  0.14524  0.96152  0.42172  1.0000
  Fe  Fe58      1.0  0.14321  0.88696  0.37443  1.0000
  S   S114      1.0  0.16962  0.88121  0.34415  1.0000
  S   S115      1.0  0.09809  0.90911  0.42132  1.0000
  S   S116      1.0  0.10935  0.86583  0.38649  1.0000
  H   H589      1.0  0.40116  0.66539  0.43539  1.0000
  H   H590      1.0  0.19956  0.97215  0.39196  1.0000
  S   S117      1.0  0.31946  0.72875  0.28237  1.0000
  Fe  Fe59      1.0  0.24385  0.77976  0.27998  1.0000
  S   S118      1.0  0.22185  0.78914  0.31207  1.0000
  H   H591      1.0  0.17873  0.93586  0.35802  1.0000
  C   C343      1.0  0.18394  0.85536  0.33557  1.0000
  C   C344      1.0  0.18307  0.83495  0.34919  1.0000
  C   C345      1.0  0.19511  0.81505  0.34185  1.0000
  C   C346      1.0  0.20792  0.81514  0.32070  1.0000
  C   C347      1.0  0.20877  0.83550  0.30703  1.0000
  C   C348      1.0  0.19695  0.85549  0.31450  1.0000
  H   H592      1.0  0.17321  0.83456  0.36545  1.0000
  H   H593      1.0  0.19423  0.79941  0.35258  1.0000
  H   H594      1.0  0.21851  0.83590  0.29073  1.0000
  H   H595      1.0  0.19780  0.87117  0.30383  1.0000
  C   C349      1.0  0.12115  0.98676  0.38798  1.0000
  C   C350      1.0  0.13596  0.98737  0.40778  1.0000
  H   H596      1.0  0.25474  0.72592  0.33328  1.0000
  H   H597      1.0  0.11395  0.97031  0.38176  1.0000
  H   H598      1.0  0.50668  0.52590  0.36289  1.0000
  C   C351      1.0  0.32788  0.68711  0.42092  1.0000
  C   C352      1.0  0.02413  0.89448  0.37987  1.0000
  C   C353      1.0  0.48754  0.64262  0.38099  1.0000
  H   H599      1.0  0.10697  0.94694  0.45673  1.0000
  H   H600      1.0  0.04158  0.86759  0.39980  1.0000
  H   H601      1.0  0.29885  0.82496  0.34000  1.0000
  C   C354      1.0  0.15100  0.87927  0.47956  1.0000
  C   C355      1.0  0.12921  0.86537  0.48000  1.0000
  C   C356      1.0  0.28396  0.81678  0.35097  1.0000
  C   C357      1.0  0.14807  0.79357  0.30568  1.0000
  H   H602      1.0  0.16037  0.88305  0.46335  1.0000
  H   H603      1.0  0.12237  0.75327  0.29015  1.0000
  C   C358      1.0  0.33265  0.67364  0.34010  1.0000
  C   C359      1.0  0.35226  0.68290  0.32661  1.0000
  C   C360      1.0  0.34775  0.69940  0.30882  1.0000
  C   C361      1.0  0.32359  0.70664  0.30400  1.0000
  C   C362      1.0  0.30388  0.69696  0.31712  1.0000
  C   C363      1.0  0.30846  0.68085  0.33527  1.0000
  H   H604      1.0  0.37097  0.67758  0.33007  1.0000
  H   H605      1.0  0.36314  0.70665  0.29874  1.0000
  H   H606      1.0  0.28517  0.70198  0.31336  1.0000
  H   H607      1.0  0.29311  0.67370  0.34547  1.0000
  C   C364      1.0  0.37377  0.60728  0.47171  1.0000
  C   C365      1.0  0.39821  0.61604  0.47293  1.0000
  H   H608      1.0  0.07730  0.93485  0.50897  1.0000
  H   H609      1.0  0.36637  0.60149  0.45541  1.0000
  N   N26       1.0  0.50770  0.55648  0.38413  1.0000
  C   C366      1.0  0.38899  0.52166  0.37816  1.0000
  H   H610      1.0  0.32636  0.68186  0.46432  1.0000
  C   C367      1.0  0.38236  0.52184  0.40145  1.0000
  S   S119      1.0  0.24518  0.74104  0.27513  1.0000
  H   H611      1.0  0.37556  0.53752  0.40872  1.0000
  H   H612      1.0  0.15836  0.78381  0.31908  1.0000
  H   H613      1.0  0.21909  0.97093  0.34081  1.0000
  C   C368      1.0  0.48852  0.63366  0.35884  1.0000
  H   H614      1.0  0.18977  0.75732  0.28928  1.0000
  H   H615      1.0  0.46987  0.64672  0.38838  1.0000
  H   H616      1.0  0.15309  0.93025  0.32949  1.0000
  H   H617      1.0  0.25743  0.78845  0.34933  1.0000
  H   H618      1.0  0.13921  0.96985  0.34346  1.0000
  H   H619      1.0  0.01992  0.88036  0.45760  1.0000
  C   C369      1.0  0.35894  0.60597  0.49167  1.0000
  H   H620      1.0  0.30608  0.71733  0.41304  1.0000
  C   C370      1.0  0.02415  0.87473  0.39441  1.0000
  C   C371      1.0  0.32463  0.71365  0.42036  1.0000
  C   C372      1.0  0.15865  0.79027  0.28132  1.0000
  N   N27       1.0  0.15561  0.76611  0.27194  1.0000
  C   C373      1.0  0.40795  0.62283  0.49431  1.0000
  C   C374      1.0  0.27434  0.77125  0.38937  1.0000
  H   H621      1.0  0.17009  0.99574  0.37190  1.0000
  H   H622      1.0  0.25630  0.76795  0.38084  1.0000
  H   H623      1.0  0.16259  0.74887  0.30504  1.0000
  Fe  Fe60      1.0  0.28586  0.74754  0.26790  1.0000
  H   H624      1.0  0.50881  0.65431  0.41031  1.0000
  C   C375      1.0  0.20186  0.96760  0.33071  1.0000
  H   H625      1.0  0.47892  0.54759  0.34237  1.0000
  C   C376      1.0  0.47072  0.55851  0.35563  1.0000
  H   H626      1.0  0.39298  0.57056  0.50727  1.0000
  H   H627      1.0  0.16634  0.94509  0.30436  1.0000
  H   H628      1.0  0.26777  0.82816  0.34939  1.0000
  C   C377      1.0  0.11733  0.86041  0.50117  1.0000
  S   S120      1.0  0.28496  0.78584  0.27489  1.0000
  H   H629      1.0  0.32101  0.64161  0.45496  1.0000
  H   H630      1.0  0.39895  0.55436  0.48200  1.0000
  H   H631      1.0  0.42328  0.55940  0.50245  1.0000
  C   C378      1.0  0.13771  0.94124  0.49199  1.0000
  C   C379      1.0  0.39773  0.68418  0.43575  1.0000
  H   H632      1.0  0.34214  0.75636  0.35756  1.0000
  C   C380      1.0  0.08830  0.91156  0.48266  1.0000
  C   C381      1.0  0.19951  0.95555  0.38265  1.0000
  C   C382      1.0  0.16097  0.88791  0.50019  1.0000
  C   C383      1.0  0.49257  0.54321  0.40223  1.0000
  H   H633      1.0  0.47900  0.53094  0.39409  1.0000
  H   H634      1.0  0.34758  0.65523  0.48539  1.0000
  H   H635      1.0  0.48109  0.55515  0.41220  1.0000
  H   H636      1.0  0.21533  0.97239  0.29550  1.0000
  H   H637      1.0  0.06425  0.95904  0.48134  1.0000
  C   C384      1.0  0.15547  0.96877  0.33173  1.0000
  H   H638      1.0  0.32714  0.51788  0.35634  1.0000
  N   N28       1.0  0.34978  0.67838  0.43448  1.0000
  H   H639      1.0  0.35713  0.77107  0.33362  1.0000
  C   C385      1.0  0.36025  0.66887  0.47760  1.0000
  C   C386      1.0  0.18119  0.99555  0.35576  1.0000
  H   H640      1.0  0.07942  0.89568  0.49076  1.0000
  C   C387      1.0  0.35087  0.65267  0.43039  1.0000
  H   H641      1.0  0.27429  0.78843  0.39769  1.0000
  C   C388      1.0  0.27628  0.79238  0.34251  1.0000
  H   H642      1.0  0.10048  0.84964  0.50161  1.0000
  C   C389      1.0  0.20510  0.98240  0.30832  1.0000
  H   H643      1.0  0.35426  0.64964  0.41179  1.0000
  H   H644      1.0  0.13381  0.94549  0.30991  1.0000
  H   H645      1.0  0.17800  0.89841  0.49975  1.0000
  H   H646      1.0  0.42688  0.62959  0.49534  1.0000
  H   H647      1.0  0.48055  0.58332  0.38122  1.0000
  H   H648      1.0  0.24438  0.75324  0.34182  1.0000
  H   H649      1.0  0.32875  0.68164  0.40265  1.0000
  H   H650      1.0  0.37713  0.66084  0.47132  1.0000
  H   H651      1.0  0.31217  0.64059  0.42473  1.0000
  C   C390      1.0  0.07723  0.96800  0.46905  1.0000
  H   H652      1.0  0.28987  0.81658  0.36927  1.0000
  H   H653      1.0  0.27365  0.79401  0.32351  1.0000
  C   C391      1.0  0.17846  0.95383  0.36462  1.0000
  H   H654      1.0  0.17632  0.95141  0.48627  1.0000
  H   H655      1.0  0.06976  0.96450  0.45154  1.0000
  C   C392      1.0  0.32742  0.63800  0.43731  1.0000
  H   H656      1.0  0.35175  0.70241  0.46265  1.0000
  H   H657      1.0  0.21796  0.95288  0.37502  1.0000
  H   H658      1.0  0.25986  0.73400  0.36230  1.0000
  H   H659      1.0  0.27538  0.75825  0.40378  1.0000
  H   H660      1.0  0.12798  0.78893  0.30672  1.0000
  C   C393      1.0  0.34636  0.68390  0.45960  1.0000
  H   H661      1.0  0.45952  0.57158  0.34627  1.0000
  H   H662      1.0  0.07485  0.91865  0.47008  1.0000
  H   H663      1.0  0.13908  0.92894  0.47756  1.0000
  H   H664      1.0  0.37425  0.68720  0.40579  1.0000
  H   H665      1.0  0.14996  0.80351  0.27008  1.0000
  C   C394      1.0  0.32237  0.50961  0.33971  1.0000
  H   H666      1.0  0.31015  0.67934  0.42787  1.0000
  H   H667      1.0  0.21585  0.99880  0.31164  1.0000
  H   H668      1.0  0.20290  0.94892  0.32628  1.0000
  H   H669      1.0  0.49450  0.52071  0.43280  1.0000
  H   H670      1.0  0.19630  0.94151  0.39593  1.0000
  H   H671      1.0  0.12096  0.98425  0.50580  1.0000
  H   H672      1.0  0.16041  0.97187  0.50275  1.0000
  C   C395      1.0  0.09500  0.92914  0.50149  1.0000
  H   H673      1.0  0.45760  0.54781  0.36649  1.0000
  C   C396      1.0  0.15237  0.94603  0.31828  1.0000
  C   C397      1.0  0.37284  0.69047  0.42465  1.0000
  H   H674      1.0  0.15436  0.71548  0.27877  1.0000
  H   H675      1.0  0.36673  0.64472  0.43925  1.0000
  H   H676      1.0  0.50355  0.59929  0.40816  1.0000
  H   H677      1.0  0.20061  0.99986  0.36113  1.0000
  C   C398      1.0  0.17259  0.72495  0.27925  1.0000
  H   H678      1.0  0.14296  0.93115  0.50774  1.0000
  H   H679      1.0  0.15301  0.98294  0.31877  1.0000
  H   H680      1.0  0.11620  0.97463  0.46560  1.0000
  H   H681      1.0  0.36621  0.67990  0.49221  1.0000
  C   C399      1.0  0.40303  0.55567  0.50073  1.0000
  H   H682      1.0  0.33995  0.59937  0.49062  1.0000
  H   H683      1.0  0.32550  0.72110  0.43779  1.0000
  C   C400      1.0  0.49068  0.57146  0.37003  1.0000
  C   C401      1.0  0.10401  0.95942  0.47076  1.0000
  H   H684      1.0  0.33844  0.72268  0.40879  1.0000
  H   H685      1.0  0.18744  0.98652  0.29974  1.0000
  C   C402      1.0  0.12902  0.75714  0.27223  1.0000
  N   N29       1.0  0.29396  0.77335  0.34822  1.0000
  C   C403      1.0  0.31867  0.78052  0.33747  1.0000
  C   C404      1.0  0.28508  0.75124  0.33692  1.0000
  C   C405      1.0  0.29753  0.76948  0.37385  1.0000
  C   C406      1.0  0.33933  0.76268  0.33959  1.0000
  C   C407      1.0  0.25951  0.74094  0.34431  1.0000
  H   H686      1.0  0.37798  0.52609  0.50499  1.0000
  H   H687      1.0  0.31643  0.78475  0.31871  1.0000
  H   H688      1.0  0.32647  0.79664  0.34531  1.0000
  H   H689      1.0  0.28468  0.75373  0.31779  1.0000
  H   H690      1.0  0.29812  0.73711  0.34047  1.0000
  H   H691      1.0  0.30547  0.75216  0.37741  1.0000
  H   H692      1.0  0.31141  0.78251  0.38044  1.0000
  H   H693      1.0  0.33579  0.74776  0.32819  1.0000
  H   H694      1.0  0.10490  0.90614  0.47332  1.0000
  H   H695      1.0  0.33159  0.61928  0.43688  1.0000
  H   H696      1.0  0.37210  0.70960  0.42628  1.0000
  N   N30       1.0  0.17934  0.97179  0.34516  1.0000
  H   H697      1.0  0.15024  0.81224  0.31001  1.0000
  H   H698      1.0  0.50153  0.58304  0.35792  1.0000
  C   C408      1.0  0.15838  0.96012  0.48798  1.0000
  H   H699      1.0  0.40940  0.51976  0.50921  1.0000
  H   H700      1.0  0.16082  0.95481  0.37440  1.0000
  N   N31       1.0  0.11163  0.94959  0.49393  1.0000
  H   H701      1.0  0.18429  0.71537  0.29179  1.0000
  C   C409      1.0  0.17045  0.75019  0.28732  1.0000
  H   H702      1.0  0.39933  0.69055  0.45360  1.0000
  H   H703      1.0  0.17866  0.79580  0.28161  1.0000
  H   H704      1.0  0.41304  0.69299  0.42572  1.0000
  H   H705      1.0  0.32757  0.52270  0.32598  1.0000
  H   H706      1.0  0.15577  0.97031  0.47176  1.0000
  H   H707      1.0  0.07693  0.98699  0.47196  1.0000
  H   H708      1.0  0.30209  0.50607  0.33854  1.0000
  H   H709      1.0  0.09135  0.76882  0.26804  1.0000
  H   H710      1.0  0.12739  0.73994  0.26393  1.0000
  H   H711      1.0  0.18190  0.72405  0.26226  1.0000
  C   C410      1.0  0.50741  0.52828  0.41949  1.0000
  H   H712      1.0  0.11336  0.79109  0.26140  1.0000
  Fe  Fe61      1.0  0.36593  0.61932  0.57261  1.0000
  S   S121      1.0  0.34549  0.60556  0.60409  1.0000
  S   S122      1.0  0.34946  0.61122  0.53761  1.0000
  Fe  Fe62      1.0  0.40771  0.64041  0.60104  1.0000
  S   S123      1.0  0.39071  0.62867  0.63491  1.0000
  S   S124      1.0  0.44481  0.65963  0.59708  1.0000
  Fe  Fe63      1.0  0.38264  0.59502  0.61691  1.0000
  S   S125      1.0  0.39100  0.56110  0.63528  1.0000
  Fe  Fe64      1.0  0.35463  0.64036  0.61980  1.0000
  S   S126      1.0  0.32180  0.65542  0.63888  1.0000
  S   S127      1.0  0.40248  0.60592  0.58426  1.0000
  S   S128      1.0  0.37224  0.65495  0.58696  1.0000
  Fe  Fe65      1.0  0.11070  0.92785  0.60873  1.0000
  S   S129      1.0  0.09665  0.89920  0.63279  1.0000
  S   S130      1.0  0.09524  0.96400  0.60910  1.0000
  Fe  Fe66      1.0  0.13735  0.89435  0.57879  1.0000
  S   S131      1.0  0.12529  0.86267  0.59999  1.0000
  S   S132      1.0  0.16084  0.89621  0.54647  1.0000
  Fe  Fe67      1.0  0.08811  0.87930  0.60093  1.0000
  S   S133      1.0  0.05189  0.85874  0.59643  1.0000
  Fe  Fe68      1.0  0.13477  0.88438  0.63079  1.0000
  S   S134      1.0  0.14852  0.87008  0.66575  1.0000
  S   S135      1.0  0.09944  0.90871  0.57695  1.0000
  S   S136      1.0  0.14970  0.91529  0.60945  1.0000
  Fe  Fe69      1.0  0.27594  0.73832  0.73845  1.0000
  S   S137      1.0  0.27336  0.77724  0.73522  1.0000
  S   S138      1.0  0.31105  0.72216  0.72467  1.0000
  C   C411      1.0  0.24840  0.83620  0.73262  1.0000
  Fe  Fe70      1.0  0.23384  0.77047  0.72404  1.0000
  S   S139      1.0  0.22255  0.78858  0.69012  1.0000
  H   H713      1.0  0.28287  0.78463  0.60896  1.0000
  S   S140      1.0  0.23743  0.73155  0.72523  1.0000
  H   H714      1.0  0.23673  0.89474  0.73457  1.0000
  H   H715      1.0  0.16131  0.99500  0.54642  1.0000
  H   H716      1.0  0.11724  0.86628  0.53788  1.0000
  C   C412      1.0  0.20092  0.81050  0.68373  1.0000
  C   C413      1.0  0.19859  0.81862  0.66075  1.0000
  C   C414      1.0  0.18233  0.83650  0.65484  1.0000
  C   C415      1.0  0.16836  0.84667  0.67193  1.0000
  C   C416      1.0  0.17049  0.83838  0.69489  1.0000
  C   C417      1.0  0.18652  0.82030  0.70076  1.0000
  H   H717      1.0  0.20954  0.81114  0.64740  1.0000
  H   H718      1.0  0.18091  0.84266  0.63712  1.0000
  H   H719      1.0  0.15968  0.84605  0.70823  1.0000
  H   H720      1.0  0.18783  0.81406  0.71845  1.0000
  H   H721      1.0  0.13779  0.95604  0.53690  1.0000
  C   C418      1.0  0.02491  0.87294  0.60462  1.0000
  C   C419      1.0  0.02655  0.89502  0.61413  1.0000
  C   C420      1.0  0.38924  0.50990  0.54947  1.0000
  H   H722      1.0  0.04440  0.90393  0.61585  1.0000
  C   C421      1.0  0.11389  0.98971  0.60924  1.0000
  H   H723      1.0  0.35214  0.55392  0.69358  1.0000
  H   H724      1.0  0.29428  0.75878  0.69166  1.0000
  H   H725      1.0  0.14752  0.97365  0.62015  1.0000
  C   C422      1.0  0.33963  0.58561  0.71038  1.0000
  C   C423      1.0  0.46343  0.61185  0.55616  1.0000
  H   H726      1.0  0.38965  0.60723  0.68138  1.0000
  C   C424      1.0  0.34790  0.54873  0.52990  1.0000
  H   H727      1.0  0.32572  0.75936  0.68245  1.0000
  H   H728      1.0  0.40078  0.62686  0.53065  1.0000
  C   C425      1.0  0.31959  0.67364  0.66310  1.0000
  C   C426      1.0  0.29607  0.67682  0.67277  1.0000
  C   C427      1.0  0.29317  0.69130  0.69179  1.0000
  C   C428      1.0  0.31378  0.70302  0.70125  1.0000
  C   C429      1.0  0.33736  0.69955  0.69182  1.0000
  C   C430      1.0  0.34028  0.68499  0.67284  1.0000
  H   H729      1.0  0.27995  0.66795  0.66554  1.0000
  H   H730      1.0  0.27500  0.69334  0.69920  1.0000
  H   H731      1.0  0.35346  0.70842  0.69909  1.0000
  H   H732      1.0  0.35850  0.68276  0.66562  1.0000
  C   C431      1.0  0.35763  0.53413  0.61043  1.0000
  C   C432      1.0  0.37886  0.53474  0.62430  1.0000
  C   C433      1.0  0.34824  0.51283  0.60208  1.0000
  H   H733      1.0  0.34829  0.55002  0.60633  1.0000
  C   C434      1.0  0.13884  0.98985  0.61584  1.0000
  C   C435      1.0  0.46693  0.62607  0.62396  1.0000
  C   C436      1.0  0.47016  0.64670  0.61093  1.0000
  H   H734      1.0  0.33167  0.51244  0.59154  1.0000
  H   H735      1.0  0.44862  0.61801  0.62595  1.0000
  C   C437      1.0  0.05293  0.79217  0.63759  1.0000
  C   C438      1.0  0.14871  0.88354  0.52126  1.0000
  H   H736      1.0  0.37726  0.57268  0.70294  1.0000
  H   H737      1.0  0.30538  0.58391  0.65290  1.0000
  H   H738      1.0  0.27761  0.80880  0.62667  1.0000
  H   H739      1.0  0.26294  0.70252  0.63729  1.0000
  C   C439      1.0  0.50503  0.64634  0.54727  1.0000
  H   H740      1.0  0.03462  0.78601  0.63084  1.0000
  H   H741      1.0  0.31345  0.75396  0.64168  1.0000
  C   C440      1.0  0.48743  0.61595  0.63469  1.0000
  H   H742      1.0  0.48475  0.60016  0.64503  1.0000
  H   H743      1.0  0.40113  0.55311  0.58296  1.0000
  H   H744      1.0  0.29751  0.59858  0.68971  1.0000
  H   H745      1.0  0.29515  0.70846  0.62981  1.0000
  H   H746      1.0  0.48534  0.59099  0.53452  1.0000
  H   H747      1.0  0.36010  0.58570  0.66633  1.0000
  C   C441      1.0  0.03754  0.00259  0.64195  1.0000
  N   N32       1.0  0.33760  0.60351  0.69101  1.0000
  H   H748      1.0  0.35212  0.63292  0.71038  1.0000
  C   C442      1.0  0.30467  0.62663  0.71250  1.0000
  H   H749      1.0  0.10603  0.94740  0.54360  1.0000
  H   H750      1.0  0.10374  0.91905  0.51583  1.0000
  H   H751      1.0  0.44781  0.59952  0.55219  1.0000
  H   H752      1.0  0.30382  0.73069  0.66027  1.0000
  C   C443      1.0  0.35827  0.56613  0.70712  1.0000
  H   H753      1.0  0.35190  0.55795  0.51325  1.0000
  N   N33       1.0  0.07157  0.82466  0.66350  1.0000
  C   C444      1.0  0.06325  0.84534  0.67674  1.0000
  C   C445      1.0  0.08133  0.80753  0.68110  1.0000
  C   C446      1.0  0.04912  0.81416  0.65156  1.0000
  C   C447      1.0  0.09096  0.83306  0.64620  1.0000
  H   H754      1.0  0.06021  0.77759  0.64803  1.0000
  C   C448      1.0  0.10452  0.81603  0.69454  1.0000
  C   C449      1.0  0.21955  0.85727  0.75624  1.0000
  C   C450      1.0  0.10789  0.81470  0.63595  1.0000
  H   H755      1.0  0.05172  0.83961  0.69191  1.0000
  H   H756      1.0  0.07951  0.85527  0.68388  1.0000
  H   H757      1.0  0.08599  0.79084  0.67351  1.0000
  H   H758      1.0  0.06666  0.80255  0.69401  1.0000
  H   H759      1.0  0.46975  0.60786  0.57396  1.0000
  C   C451      1.0  0.48408  0.60969  0.53801  1.0000
  H   H760      1.0  0.08215  0.84224  0.63148  1.0000
  H   H761      1.0  0.10352  0.84654  0.65384  1.0000
  H   H762      1.0  0.38775  0.60952  0.71253  1.0000
  H   H763      1.0  0.05662  0.86815  0.64635  1.0000
  H   H764      1.0  0.03410  0.80999  0.66434  1.0000
  H   H765      1.0  0.11995  0.82167  0.68287  1.0000
  H   H766      1.0  0.10038  0.83033  0.70623  1.0000
  H   H767      1.0  0.11130  0.80150  0.70552  1.0000
  H   H768      1.0  0.20700  0.87130  0.71027  1.0000
  H   H769      1.0  0.26230  0.88403  0.72008  1.0000
  H   H770      1.0  0.49626  0.65421  0.53164  1.0000
  H   H771      1.0  0.10653  0.81540  0.61682  1.0000
  H   H772      1.0  0.10377  0.79650  0.64133  1.0000
  H   H773      1.0  0.12761  0.81894  0.64023  1.0000
  H   H774      1.0  0.25602  0.75037  0.68040  1.0000
  H   H775      1.0  0.30888  0.62444  0.67571  1.0000
  C   C452      1.0  0.11829  0.96147  0.53612  1.0000
  C   C453      1.0  0.39321  0.62134  0.51430  1.0000
  H   H776      1.0  0.03747  0.98424  0.64838  1.0000
  H   H777      1.0  0.30349  0.79128  0.63285  1.0000
  C   C454      1.0  0.24343  0.87881  0.72645  1.0000
  C   C455      1.0  0.37084  0.54894  0.54588  1.0000
  H   H778      1.0  0.20452  0.85175  0.74417  1.0000
  H   H779      1.0  0.34448  0.59424  0.72685  1.0000
  H   H780      1.0  0.32140  0.57644  0.71374  1.0000
  H   H781      1.0  0.22722  0.89044  0.69393  1.0000
  H   H782      1.0  0.04136  0.82678  0.63884  1.0000
  H   H783      1.0  0.32981  0.56537  0.64535  1.0000
  C   C456      1.0  0.31179  0.61291  0.69109  1.0000
  C   C457      1.0  0.35579  0.62372  0.69419  1.0000
  H   H784      1.0  0.31343  0.64439  0.71206  1.0000
  H   H785      1.0  0.27234  0.70498  0.60786  1.0000
  H   H786      1.0  0.35374  0.63688  0.67995  1.0000
  C   C458      1.0  0.04804  0.86327  0.66312  1.0000
  H   H787      1.0  0.26889  0.82229  0.70401  1.0000
  H   H788      1.0  0.39473  0.63448  0.69468  1.0000
  C   C459      1.0  0.38342  0.61798  0.69567  1.0000
  H   H789      1.0  0.36412  0.54394  0.56348  1.0000
  H   H790      1.0  0.49190  0.64897  0.56164  1.0000
  H   H791      1.0  0.30631  0.78232  0.67324  1.0000
  H   H792      1.0  0.28432  0.62902  0.71239  1.0000
  H   H793      1.0  0.30937  0.61746  0.72887  1.0000
  H   H794      1.0  0.11674  0.97659  0.54750  1.0000
  C   C460      1.0  0.34175  0.59363  0.66755  1.0000
  H   H795      1.0  0.31653  0.56280  0.67369  1.0000
  C   C461      1.0  0.12679  0.86981  0.52171  1.0000
  H   H796      1.0  0.22649  0.72389  0.64308  1.0000
  H   H797      1.0  0.21809  0.72884  0.67221  1.0000
  H   H798      1.0  0.04697  0.87940  0.67314  1.0000
  H   H799      1.0  0.22026  0.75292  0.65248  1.0000
  C   C462      1.0  0.32211  0.57534  0.65970  1.0000
  H   H800      1.0  0.34219  0.60781  0.65415  1.0000
  C   C463      1.0  0.27211  0.83514  0.71780  1.0000
  N   N34       1.0  0.27357  0.75077  0.64686  1.0000
  C   C464      1.0  0.27135  0.73857  0.62422  1.0000
  C   C465      1.0  0.26680  0.77578  0.64323  1.0000
  C   C466      1.0  0.25623  0.73974  0.66467  1.0000
  C   C467      1.0  0.29984  0.74900  0.65549  1.0000
  C   C468      1.0  0.27569  0.71219  0.62523  1.0000
  C   C469      1.0  0.28394  0.79064  0.62697  1.0000
  C   C470      1.0  0.22885  0.73629  0.65729  1.0000
  C   C471      1.0  0.30658  0.76336  0.67687  1.0000
  H   H801      1.0  0.25291  0.74132  0.61613  1.0000
  H   H802      1.0  0.28510  0.74606  0.61158  1.0000
  H   H803      1.0  0.26596  0.78479  0.65998  1.0000
  H   H804      1.0  0.24781  0.77693  0.63590  1.0000
  H   H805      1.0  0.26274  0.72257  0.67069  1.0000
  H   H806      1.0  0.33299  0.55834  0.53828  1.0000
  H   H807      1.0  0.23294  0.86015  0.69466  1.0000
  C   C472      1.0  0.22664  0.87459  0.70526  1.0000
  H   H808      1.0  0.37689  0.56758  0.54709  1.0000
  H   H809      1.0  0.23218  0.83033  0.72217  1.0000
  H   H810      1.0  0.47705  0.61742  0.52153  1.0000
  H   H811      1.0  0.02867  0.85679  0.66023  1.0000
  H   H812      1.0  0.35945  0.55570  0.72343  1.0000
  N   N35       1.0  0.24420  0.85899  0.74393  1.0000
  C   C473      1.0  0.49403  0.65702  0.60853  1.0000
  H   H813      1.0  0.28810  0.82983  0.72857  1.0000
  H   H814      1.0  0.43233  0.53550  0.54254  1.0000
  H   H815      1.0  0.27723  0.85165  0.70864  1.0000
  H   H816      1.0  0.38755  0.51028  0.56855  1.0000
  H   H817      1.0  0.28321  0.86575  0.75093  1.0000
  H   H818      1.0  0.06467  0.79604  0.62220  1.0000
  H   H819      1.0  0.49658  0.67308  0.59862  1.0000
  C   C474      1.0  0.41778  0.54573  0.57525  1.0000
  C   C475      1.0  0.39072  0.51397  0.62958  1.0000
  H   H820      1.0  0.45573  0.62949  0.55555  1.0000
  H   H821      1.0  0.24990  0.82206  0.74591  1.0000
  H   H822      1.0  0.40714  0.51431  0.64032  1.0000
  H   H823      1.0  0.09065  0.97407  0.51295  1.0000
  C   C476      1.0  0.39524  0.53267  0.51339  1.0000
  C   C477      1.0  0.41595  0.54487  0.54870  1.0000
  N   N36       1.0  0.39220  0.53418  0.53917  1.0000
  H   H824      1.0  0.43393  0.55710  0.58011  1.0000
  H   H825      1.0  0.34026  0.53111  0.52652  1.0000
  C   C478      1.0  0.36858  0.61309  0.51299  1.0000
  H   H826      1.0  0.42093  0.52834  0.58317  1.0000
  H   H827      1.0  0.41867  0.56322  0.54243  1.0000
  S   S141      1.0  0.21858  0.77114  0.76007  1.0000
  H   H828      1.0  0.04106  0.00279  0.62307  1.0000
  H   H829      1.0  0.50119  0.58057  0.58335  1.0000
  C   C479      1.0  0.26531  0.86358  0.76042  1.0000
  N   N37       1.0  0.50894  0.62076  0.54408  1.0000
  C   C480      1.0  0.11008  0.96836  0.51145  1.0000
  Fe  Fe71      1.0  0.37200  0.88971  0.90967  1.0000
  S   S142      1.0  0.38833  0.92580  0.91055  1.0000
  S   S143      1.0  0.36326  0.86791  0.94179  1.0000
  Fe  Fe72      1.0  0.36797  0.89023  0.85718  1.0000
  S   S144      1.0  0.38438  0.92697  0.85376  1.0000
  S   S145      1.0  0.36005  0.86732  0.82602  1.0000
  Fe  Fe73      1.0  0.41169  0.91572  0.88077  1.0000
  S   S146      1.0  0.45074  0.93113  0.88312  1.0000
  Fe  Fe74      1.0  0.36004  0.93463  0.88382  1.0000
  S   S147      1.0  0.34039  0.96751  0.89153  1.0000
  S   S148      1.0  0.39770  0.87848  0.88201  1.0000
  S   S149      1.0  0.34134  0.89904  0.88519  1.0000
  Fe  Fe75      1.0  0.12136  0.59294  0.89285  1.0000
  S   S150      1.0  0.11082  0.61364  0.86122  1.0000
  S   S151      1.0  0.14656  0.56243  0.89484  1.0000
  Fe  Fe76      1.0  0.09457  0.62430  0.92572  1.0000
  S   S152      1.0  0.08220  0.64805  0.89685  1.0000
  S   S153      1.0  0.07978  0.62596  0.96227  1.0000
  Fe  Fe77      1.0  0.07335  0.61508  0.87819  1.0000
  S   S154      1.0  0.03730  0.60541  0.86043  1.0000
  Fe  Fe78      1.0  0.12080  0.64507  0.88209  1.0000
  S   S155      1.0  0.14565  0.67640  0.87071  1.0000
  S   S156      1.0  0.08321  0.59155  0.90789  1.0000
  S   S157      1.0  0.13376  0.62411  0.91298  1.0000
  C   C481      1.0  0.47578  0.91383  0.87637  1.0000
  C   C482      1.0  0.16261  0.55243  0.00521  1.0000
  S   S158      1.0  0.26534  0.80375  0.79855  1.0000
  S   S159      1.0  0.26438  0.73726  0.77600  1.0000
  C   C483      1.0  0.15977  0.68359  0.84355  1.0000
  C   C484      1.0  0.17717  0.70238  0.84202  1.0000
  C   C485      1.0  0.18896  0.70869  0.82092  1.0000
  C   C486      1.0  0.18345  0.69626  0.80101  1.0000
  C   C487      1.0  0.16611  0.67741  0.80256  1.0000
  C   C488      1.0  0.15429  0.67113  0.82364  1.0000
  H   H830      1.0  0.18152  0.71220  0.85726  1.0000
  H   H831      1.0  0.20223  0.72322  0.82005  1.0000
  H   H832      1.0  0.16159  0.66775  0.78726  1.0000
  H   H833      1.0  0.14073  0.65684  0.82441  1.0000
  S   S160      1.0  0.19775  0.70324  0.77388  1.0000
  H   H834      1.0  0.36599  0.79367  0.89653  1.0000
  C   C489      1.0  0.32861  0.77655  0.86351  1.0000
  C   C490      1.0  0.14361  0.51483  0.89434  1.0000
  C   C491      1.0  0.12611  0.62970  0.98235  1.0000
  C   C492      1.0  0.10111  0.62306  0.98515  1.0000
  H   H835      1.0  0.19777  0.58212  0.88599  1.0000
  H   H836      1.0  0.32593  0.78232  0.90918  1.0000
  H   H837      1.0  0.13295  0.63552  0.96558  1.0000
  H   H838      1.0  0.27965  0.88643  0.78690  1.0000
  H   H839      1.0  0.36834  0.82303  0.90427  1.0000
  C   C493      1.0  0.47200  0.89176  0.86722  1.0000
  C   C494      1.0  0.13634  0.53558  0.88353  1.0000
  C   C495      1.0  0.12263  0.53461  0.86307  1.0000
  C   C496      1.0  0.01964  0.65667  0.94757  1.0000
  H   H840      1.0  0.22029  0.82197  0.77209  1.0000
  H   H841      1.0  0.11718  0.55052  0.85448  1.0000
  H   H842      1.0  0.32120  0.82904  0.93382  1.0000
  C   C497      1.0  0.32079  0.80088  0.90836  1.0000
  H   H843      1.0  0.31279  0.76561  0.87042  1.0000
  C   C498      1.0  0.35181  0.99382  0.87873  1.0000
  C   C499      1.0  0.32375  0.80261  0.86624  1.0000
  C   C500      1.0  0.47441  0.99920  0.91019  1.0000
  C   C501      1.0  0.40554  0.88639  0.00787  1.0000
  H   H844      1.0  0.47518  0.88377  0.98745  1.0000
  H   H845      1.0  0.06486  0.51238  0.89183  1.0000
  H   H846      1.0  0.42527  0.97401  0.89042  1.0000
  H   H847      1.0  0.39639  0.81747  0.87306  1.0000
  H   H848      1.0  0.36160  0.96603  0.96707  1.0000
  H   H849      1.0  0.36097  0.97906  0.84621  1.0000
  C   C502      1.0  0.33332  0.85021  0.81828  1.0000
  C   C503      1.0  0.31009  0.85314  0.82827  1.0000
  C   C504      1.0  0.28959  0.83871  0.82203  1.0000
  C   C505      1.0  0.29195  0.82131  0.80562  1.0000
  C   C506      1.0  0.31505  0.81866  0.79529  1.0000
  C   C507      1.0  0.33558  0.83304  0.80161  1.0000
  H   H850      1.0  0.30789  0.86663  0.84068  1.0000
  H   H851      1.0  0.27172  0.84112  0.82990  1.0000
  H   H852      1.0  0.31717  0.80546  0.78255  1.0000
  H   H853      1.0  0.35342  0.83073  0.79362  1.0000
  C   C508      1.0  0.37926  0.87580  0.96714  1.0000
  C   C509      1.0  0.40108  0.88965  0.96604  1.0000
  H   H854      1.0  0.39942  0.98450  0.92169  1.0000
  H   H855      1.0  0.40807  0.89599  0.94951  1.0000
  H   H856      1.0  0.26791  0.84835  0.77221  1.0000
  H   H857      1.0  0.45341  0.88537  0.86327  1.0000
  C   C510      1.0  0.01259  0.64246  0.87746  1.0000
  H   H858      1.0  0.36605  0.98682  0.00047  1.0000
  C   C511      1.0  0.01376  0.58159  0.93067  1.0000
  C   C512      1.0  0.35975  0.93752  0.99355  1.0000
  H   H859      1.0  0.44226  0.87544  0.92723  1.0000
  H   H860      1.0  0.16004  0.56367  0.98959  1.0000
  C   C513      1.0  0.43414  0.98250  0.84313  1.0000
  C   C514      1.0  0.47123  0.86581  0.98165  1.0000
  C   C515      1.0  0.44868  0.85738  0.92736  1.0000
  H   H861      1.0  0.35352  0.85692  0.98968  1.0000
  Fe  Fe79      1.0  0.25865  0.77580  0.77144  1.0000
  C   C516      1.0  0.05403  0.51774  0.87644  1.0000
  H   H862      1.0  0.43956  0.84903  0.91233  1.0000
  H   H863      1.0  0.33713  0.97245  0.00692  1.0000
  H   H864      1.0  0.15440  0.51547  0.91008  1.0000
  H   H865      1.0  0.33917  0.93531  0.99385  1.0000
  H   H866      1.0  0.02846  0.61527  0.97352  1.0000
  H   H867      1.0  0.33080  0.81235  0.85064  1.0000
  H   H868      1.0  0.29121  0.83882  0.90537  1.0000
  H   H869      1.0  0.33708  0.84813  0.90169  1.0000
  H   H870      1.0  0.46680  0.98014  0.88002  1.0000
  H   H871      1.0  0.33092  0.77295  0.84490  1.0000
  C   C517      1.0  0.41425  0.89476  0.98632  1.0000
  H   H872      1.0  0.35546  0.93764  0.95622  1.0000
  C   C518      1.0  0.37040  0.86763  0.98872  1.0000
  C   C519      1.0  0.21773  0.84015  0.77711  1.0000
  C   C520      1.0  0.36632  0.94754  0.96928  1.0000
  C   C521      1.0  0.49997  0.92209  0.88115  1.0000
  H   H873      1.0  0.38614  0.94527  0.96509  1.0000
  C   C522      1.0  0.36115  0.99467  0.85622  1.0000
  H   H874      1.0  0.02398  0.57777  0.91462  1.0000
  H   H875      1.0  0.37306  0.80472  0.85498  1.0000
  H   H876      1.0  0.06634  0.51939  0.86119  1.0000
  H   H877      1.0  0.03153  0.65276  0.96265  1.0000
  C   C523      1.0  0.26321  0.88521  0.77534  1.0000
  C   C524      1.0  0.32750  0.83879  0.88746  1.0000
  C   C525      1.0  0.42054  0.99266  0.89054  1.0000
  H   H878      1.0  0.37251  0.83514  0.86184  1.0000
  C   C526      1.0  0.11689  0.51301  0.85316  1.0000
  H   H879      1.0  0.04737  0.53541  0.87970  1.0000
  H   H880      1.0  0.01601  0.67552  0.94771  1.0000
  H   H881      1.0  0.03047  0.65148  0.87830  1.0000
  H   H882      1.0  0.43199  0.98438  0.82412  1.0000
  H   H883      1.0  0.10700  0.51240  0.83694  1.0000
  H   H884      1.0  0.07323  0.61007  0.00917  1.0000
  H   H885      1.0  0.31684  0.80036  0.94574  1.0000
  H   H886      1.0  0.49501  0.99969  0.91084  1.0000
  H   H887      1.0  0.43130  0.90518  0.98529  1.0000
  H   H888      1.0  0.29814  0.86369  0.88748  1.0000
  H   H889      1.0  0.34705  0.81004  0.93633  1.0000
  H   H890      1.0  0.28883  0.83729  0.87426  1.0000
  H   H891      1.0  0.48083  0.83709  0.92495  1.0000
  C   C527      1.0  0.36098  0.81140  0.89057  1.0000
  C   C528      1.0  0.32701  0.81088  0.93224  1.0000
  N   N38       1.0  0.33325  0.81335  0.88815  1.0000
  C   C529      1.0  0.37633  0.81755  0.86871  1.0000
  H   H892      1.0  0.23097  0.84474  0.79105  1.0000
  C   C530      1.0  0.38335  0.87313  0.00909  1.0000
  H   H893      1.0  0.24663  0.88411  0.78663  1.0000
  C   C531      1.0  0.41300  0.99820  0.91541  1.0000
  H   H894      1.0  0.45047  0.97173  0.84629  1.0000
  H   H895      1.0  0.44185  0.84740  0.94277  1.0000
  H   H896      1.0  0.34582  0.77098  0.87204  1.0000
  H   H897      1.0  0.30025  0.80028  0.90626  1.0000
  H   H898      1.0  0.30331  0.80401  0.86478  1.0000
  H   H899      1.0  0.04887  0.69932  0.00517  1.0000
  C   C532      1.0  0.29978  0.84453  0.88873  1.0000
  H   H900      1.0  0.03111  0.61529  0.93294  1.0000
  N   N39       1.0  0.19442  0.60797  0.84484  1.0000
  C   C533      1.0  0.17850  0.58826  0.83535  1.0000
  C   C534      1.0  0.21723  0.59751  0.85525  1.0000
  C   C535      1.0  0.20204  0.62391  0.82481  1.0000
  C   C536      1.0  0.17943  0.62058  0.86230  1.0000
  C   C537      1.0  0.15659  0.59537  0.81987  1.0000
  C   C538      1.0  0.21218  0.57777  0.87336  1.0000
  C   C539      1.0  0.21868  0.64531  0.83030  1.0000
  C   C540      1.0  0.19392  0.63322  0.88163  1.0000
  H   H901      1.0  0.18989  0.57648  0.82507  1.0000
  H   H902      1.0  0.17029  0.57713  0.84959  1.0000
  H   H903      1.0  0.22938  0.61082  0.86354  1.0000
  H   H904      1.0  0.22892  0.59027  0.84152  1.0000
  H   H905      1.0  0.21167  0.61399  0.81142  1.0000
  H   H906      1.0  0.18557  0.63122  0.81610  1.0000
  H   H907      1.0  0.16771  0.63358  0.85353  1.0000
  H   H908      1.0  0.16600  0.60845  0.87144  1.0000
  H   H909      1.0  0.14710  0.61056  0.82648  1.0000
  H   H910      1.0  0.16295  0.59944  0.80197  1.0000
  H   H911      1.0  0.14273  0.58066  0.81902  1.0000
  H   H912      1.0  0.20630  0.56133  0.86499  1.0000
  H   H913      1.0  0.22948  0.57434  0.88307  1.0000
  H   H914      1.0  0.20809  0.65844  0.83944  1.0000
  H   H915      1.0  0.22474  0.65395  0.81379  1.0000
  H   H916      1.0  0.23570  0.64096  0.83992  1.0000
  H   H917      1.0  0.20166  0.62080  0.89440  1.0000
  H   H918      1.0  0.18095  0.64393  0.89127  1.0000
  H   H919      1.0  0.20891  0.64520  0.87524  1.0000
  H   H920      1.0  0.33498  0.84736  0.87142  1.0000
  Fe  Fe80      1.0  0.22530  0.73266  0.76255  1.0000
  C   C541      1.0  0.14217  0.62965  0.00148  1.0000
  H   H921      1.0  0.47061  0.85447  0.99745  1.0000
  H   H922      1.0  0.41718  0.97299  0.84953  1.0000
  C   C542      1.0  0.01167  0.60819  0.93205  1.0000
  H   H923      1.0  0.02078  0.50936  0.85785  1.0000
  H   H924      1.0  0.46735  0.98337  0.91978  1.0000
  C   C543      1.0  0.46599  0.99867  0.88481  1.0000
  H   H925      1.0  0.48889  0.83837  0.96405  1.0000
  C   C544      1.0  0.47698  0.85595  0.92454  1.0000
  H   H926      1.0  0.02991  0.65376  0.93137  1.0000
  H   H927      1.0  0.45251  0.86483  0.97399  1.0000
  H   H928      1.0  0.46762  0.89634  0.94863  1.0000
  H   H929      1.0  0.36682  0.91959  0.99459  1.0000
  H   H930      1.0  0.19884  0.84065  0.78465  1.0000
  H   H931      1.0  0.06071  0.67957  0.98487  1.0000
  H   H932      1.0  0.16143  0.63515  0.99924  1.0000
  H   H933      1.0  0.16113  0.53415  0.99968  1.0000
  H   H934      1.0  0.48139  0.86222  0.90667  1.0000
  H   H935      1.0  0.40186  0.96405  0.99522  1.0000
  H   H936      1.0  0.42876  0.99846  0.92757  1.0000
  C   C545      1.0  0.49155  0.85756  0.96533  1.0000
  H   H937      1.0  0.02470  0.57447  0.94526  1.0000
  H   H938      1.0  0.48502  0.90089  0.92319  1.0000
  H   H939      1.0  0.40309  0.99376  0.88052  1.0000
  C   C546      1.0  0.01076  0.62001  0.86874  1.0000
  C   C547      1.0  0.48634  0.89410  0.94128  1.0000
  H   H940      1.0  0.09460  0.68911  0.00968  1.0000
  C   C548      1.0  0.49238  0.87783  0.86325  1.0000
  N   N40       1.0  0.49319  0.86892  0.94154  1.0000
  C   C549      1.0  0.09248  0.61554  0.00700  1.0000
  H   H941      1.0  0.48941  0.86066  0.85637  1.0000
  H   H942      1.0  0.21416  0.87455  0.76236  1.0000
  H   H943      1.0  0.04129  0.66836  0.00770  1.0000
  H   H944      1.0  0.26322  0.90145  0.76468  1.0000
  H   H945      1.0  0.50300  0.93920  0.88816  1.0000
  H   H946      1.0  0.49542  0.92742  0.95681  1.0000
  C   C550      1.0  0.05604  0.68167  0.00335  1.0000
  C   C551      1.0  0.50446  0.91067  0.95407  1.0000
  H   H947      1.0  0.40538  0.93743  0.01091  1.0000
  Fe  Fe81      1.0  0.59474  0.12896  0.10670  1.0000
  S   S161      1.0  0.63406  0.13808  0.09618  1.0000
  S   S162      1.0  0.56336  0.15056  0.09351  1.0000
  Fe  Fe82      1.0  0.60788  0.08123  0.12559  1.0000
  S   S163      1.0  0.64815  0.08669  0.11672  1.0000
  S   S164      1.0  0.58737  0.04739  0.13530  1.0000
  Fe  Fe83      1.0  0.64450  0.12277  0.13090  1.0000
  S   S165      1.0  0.67887  0.13900  0.14861  1.0000
  Fe  Fe84      1.0  0.63465  0.10180  0.08310  1.0000
  S   S166      1.0  0.65062  0.09102  0.04897  1.0000
  S   S167      1.0  0.60463  0.11601  0.14240  1.0000
  S   S168      1.0  0.59488  0.09395  0.09102  1.0000
  Fe  Fe85      1.0  0.87989  0.40050  0.08571  1.0000
  S   S169      1.0  0.88417  0.36695  0.10613  1.0000
  S   S170      1.0  0.85962  0.40757  0.05204  1.0000
  Fe  Fe86      1.0  0.90800  0.42976  0.12051  1.0000
  S   S171      1.0  0.91497  0.39912  0.14399  1.0000
  S   S172      1.0  0.92584  0.46566  0.12411  1.0000
  Fe  Fe87      1.0  0.92345  0.38038  0.11180  1.0000
  S   S173      1.0  0.95662  0.35761  0.11026  1.0000
  Fe  Fe88      1.0  0.87523  0.38763  0.13734  1.0000
  S   S174      1.0  0.85409  0.37573  0.16997  1.0000
  S   S175      1.0  0.91986  0.41175  0.08870  1.0000
  S   S176      1.0  0.86764  0.42029  0.11654  1.0000
  Fe  Fe89      1.0  0.77312  0.26631  0.22676  1.0000
  S   S177      1.0  0.73381  0.27017  0.23937  1.0000
  S   S178      1.0  0.78966  0.28270  0.19348  1.0000
  Fe  Fe90      1.0  0.73169  0.23085  0.24127  1.0000
  S   S179      1.0  0.69701  0.20904  0.23169  1.0000
  S   S180      1.0  0.76966  0.22712  0.22655  1.0000
  H   H948      1.0  0.61629  0.19931  0.02797  1.0000
  H   H949      1.0  0.60474  0.04447  0.08578  1.0000
  H   H950      1.0  0.90412  0.48193  0.05045  1.0000
  C   C552      1.0  0.90104  0.33472  0.19790  1.0000
  C   C553      1.0  0.89595  0.38920  0.02497  1.0000
  H   H951      1.0  0.81547  0.45119  0.07676  1.0000
  H   H952      1.0  0.87455  0.47273  0.13799  1.0000
  C   C554      1.0  0.98426  0.37047  0.12111  1.0000
  C   C555      1.0  0.98494  0.39338  0.12860  1.0000
  H   H953      1.0  0.96827  0.40325  0.12833  1.0000
  H   H954      1.0  0.91911  0.29542  0.22114  1.0000
  C   C556      1.0  0.83534  0.35023  0.17589  1.0000
  C   C557      1.0  0.82754  0.33514  0.15857  1.0000
  C   C558      1.0  0.81343  0.31468  0.16431  1.0000
  C   C559      1.0  0.80690  0.30906  0.18735  1.0000
  C   C560      1.0  0.81463  0.32421  0.20464  1.0000
  C   C561      1.0  0.82869  0.34469  0.19891  1.0000
  H   H955      1.0  0.83240  0.33916  0.14079  1.0000
  H   H956      1.0  0.80750  0.30312  0.15079  1.0000
  H   H957      1.0  0.80974  0.32017  0.22241  1.0000
  H   H958      1.0  0.83453  0.35628  0.21243  1.0000
  H   H959      1.0  0.62679  0.04291  0.04854  1.0000
  C   C562      1.0  0.92774  0.30314  0.18361  1.0000
  H   H960      1.0  0.64432  0.22830  0.02111  1.0000
  H   H961      1.0  0.90512  0.38449  0.04093  1.0000
  C   C563      1.0  0.83198  0.48696  0.07899  1.0000
  C   C564      1.0  0.60425  0.02183  0.13865  1.0000
  C   C565      1.0  0.62904  0.02269  0.14571  1.0000
  N   N41       1.0  0.64714  0.17629  0.02505  1.0000
  H   H962      1.0  0.63825  0.03926  0.14906  1.0000
  H   H963      1.0  0.64002  0.03344  0.09992  1.0000
  H   H964      1.0  0.85588  0.27833  0.19885  1.0000
  H   H965      1.0  0.60136  0.10858  0.04099  1.0000
  H   H966      1.0  0.92115  0.30030  0.13698  1.0000
  C   C566      1.0  0.68293  0.15954  0.17097  1.0000
  C   C567      1.0  0.66386  0.16459  0.18619  1.0000
  C   C568      1.0  0.66845  0.17996  0.20446  1.0000
  C   C569      1.0  0.69202  0.19074  0.20762  1.0000
  C   C570      1.0  0.71101  0.18596  0.19221  1.0000
  C   C571      1.0  0.70651  0.17034  0.17414  1.0000
  H   H967      1.0  0.64568  0.15638  0.18410  1.0000
  H   H968      1.0  0.65362  0.18348  0.21627  1.0000
  H   H969      1.0  0.72918  0.19421  0.19426  1.0000
  H   H970      1.0  0.72140  0.16661  0.16247  1.0000
  H   H971      1.0  0.00739  0.35855  0.07521  1.0000
  C   C572      1.0  0.53484  0.14902  0.10832  1.0000
  H   H972      1.0  0.73356  0.12163  0.25798  1.0000
  H   H973      1.0  0.98160  0.49598  0.16832  1.0000
  H   H974      1.0  0.55081  0.14574  0.14224  1.0000
  C   C573      1.0  0.99467  0.47858  0.13840  1.0000
  H   H975      1.0  0.83925  0.49762  0.09346  1.0000
  H   H976      1.0  0.90816  0.45627  0.06714  1.0000
  C   C574      1.0  0.87373  0.28804  0.20196  1.0000
  H   H977      1.0  0.91176  0.32458  0.11998  1.0000
  H   H978      1.0  0.89961  0.32710  0.21555  1.0000
  H   H979      1.0  0.70651  0.11902  0.22527  1.0000
  C   C575      1.0  0.92140  0.35417  0.19864  1.0000
  H   H980      1.0  0.59623  0.15913  0.02478  1.0000
  H   H981      1.0  0.79473  0.18424  0.23127  1.0000
  H   H982      1.0  0.77757  0.13634  0.21293  1.0000
  H   H983      1.0  0.80377  0.46810  0.09959  1.0000
  H   H984      1.0  0.96401  0.50031  0.14280  1.0000
  C   C576      1.0  0.85334  0.47672  0.01671  1.0000
  H   H985      1.0  0.65765  0.04932  0.07861  1.0000
  H   H986      1.0  0.72619  0.13707  0.20733  1.0000
  C   C577      1.0  0.68112  0.14577  0.03055  1.0000
  C   C578      1.0  0.65778  0.15707  0.03972  1.0000
  H   H987      1.0  0.88842  0.30532  0.13200  1.0000
  H   H988      1.0  0.82083  0.47934  0.03744  1.0000
  H   H989      1.0  0.94915  0.30924  0.21531  1.0000
  C   C579      1.0  0.88263  0.48905  0.13145  1.0000
  C   C580      1.0  0.62460  0.18454  0.03755  1.0000
  H   H990      1.0  0.99808  0.48129  0.11968  1.0000
  C   C581      1.0  0.74188  0.12810  0.24153  1.0000
  H   H991      1.0  0.94035  0.34737  0.19835  1.0000
  H   H992      1.0  0.94405  0.31332  0.17641  1.0000
  H   H993      1.0  0.76474  0.18238  0.25783  1.0000
  H   H994      1.0  0.88713  0.27491  0.20754  1.0000
  C   C582      1.0  0.53381  0.14673  0.13238  1.0000
  H   H995      1.0  0.83375  0.45655  0.10250  1.0000
  C   C583      1.0  0.90689  0.31363  0.13546  1.0000
  N   N42       1.0  0.90447  0.31660  0.17993  1.0000
  H   H996      1.0  0.68734  0.13283  0.04367  1.0000
  H   H997      1.0  0.00771  0.42136  0.14224  1.0000
  H   H998      1.0  0.54007  0.09749  0.15633  1.0000
  H   H999      1.0  0.99029  0.41596  0.05405  1.0000
  H   H1000     1.0  0.66855  0.03211  0.04229  1.0000
  H   H1001     1.0  0.88306  0.34325  0.19522  1.0000
  H   H1002     1.0  0.94343  0.27960  0.20925  1.0000
  H   H1003     1.0  0.67452  0.00864  0.10985  1.0000
  H   H1004     1.0  0.53703  0.05591  0.14832  1.0000
  C   C584      1.0  0.61017  0.10644  0.02449  1.0000
  H   H1005     1.0  0.98541  0.39381  0.07541  1.0000
  H   H1006     1.0  0.69691  0.15831  0.02774  1.0000
  N   N43       1.0  0.85172  0.48438  0.06083  1.0000
  C   C585      1.0  0.89451  0.46557  0.05634  1.0000
  C   C586      1.0  0.66359  0.01423  0.04906  1.0000
  H   H1007     1.0  0.53782  0.09893  0.07798  1.0000
  C   C587      1.0  0.90624  0.32919  0.15675  1.0000
  H   H1008     1.0  0.54695  0.07532  0.11287  1.0000
  H   H1009     1.0  0.86556  0.31016  0.17303  1.0000
  H   H1010     1.0  0.98132  0.46349  0.14033  1.0000
  C   C588      1.0  0.93471  0.29680  0.20884  1.0000
  H   H1011     1.0  0.67124  0.20190  0.04132  1.0000
  C   C589      1.0  0.99138  0.39695  0.05715  1.0000
  H   H1012     1.0  0.95338  0.39422  0.04480  1.0000
  H   H1013     1.0  0.67698  0.13586  0.01476  1.0000
  H   H1014     1.0  0.68279  0.03864  0.11142  1.0000
  C   C590      1.0  0.87348  0.40056  0.02559  1.0000
  C   C591      1.0  0.87146  0.46941  0.07116  1.0000
  H   H1015     1.0  0.89039  0.34095  0.15429  1.0000
  H   H1016     1.0  0.91924  0.36685  0.18413  1.0000
  C   C592      1.0  0.72007  0.13400  0.22543  1.0000
  H   H1017     1.0  0.92669  0.28672  0.17386  1.0000
  H   H1018     1.0  0.92329  0.34067  0.15559  1.0000
  C   C593      1.0  0.79676  0.16820  0.22148  1.0000
  H   H1019     1.0  0.62985  0.19120  0.05486  1.0000
  H   H1020     1.0  0.64271  0.00872  0.01683  1.0000
  C   C594      1.0  0.88180  0.30049  0.17926  1.0000
  C   C595      1.0  0.65406  0.03154  0.08621  1.0000
  N   N44       1.0  0.76097  0.14753  0.24484  1.0000
  H   H1021     1.0  0.88997  0.45411  0.04170  1.0000
  H   H1022     1.0  0.69385  0.02314  0.08762  1.0000
  H   H1023     1.0  0.88423  0.28644  0.16671  1.0000
  H   H1024     1.0  0.80151  0.17357  0.20344  1.0000
  H   H1025     1.0  0.86381  0.45170  0.07554  1.0000
  C   C596      1.0  0.90726  0.49023  0.12384  1.0000
  C   C597      1.0  0.52440  0.08661  0.16352  1.0000
  H   H1026     1.0  0.91942  0.36402  0.21473  1.0000
  C   C598      1.0  0.63397  0.09766  0.02351  1.0000
  H   H1027     1.0  0.86988  0.30023  0.21589  1.0000
  H   H1028     1.0  0.52224  0.07116  0.07600  1.0000
  H   H1029     1.0  0.70995  0.14917  0.23138  1.0000
  H   H1030     1.0  0.75962  0.16143  0.20960  1.0000
  H   H1031     1.0  0.87815  0.47673  0.08763  1.0000
  H   H1032     1.0  0.96762  0.36695  0.04672  1.0000
  C   C599      1.0  0.77279  0.15271  0.22152  1.0000
  C   C600      1.0  0.98334  0.49992  0.14945  1.0000
  H   H1033     1.0  0.53139  0.10084  0.11880  1.0000
  C   C601      1.0  0.52853  0.08334  0.11148  1.0000
  H   H1034     1.0  0.53459  0.02524  0.12602  1.0000
  C   C602      1.0  0.67772  0.02469  0.09917  1.0000
  C   C603      1.0  0.97114  0.38554  0.04188  1.0000
  H   H1035     1.0  0.75081  0.11260  0.23454  1.0000
  H   H1036     1.0  0.81603  0.49656  0.07184  1.0000
  C   C604      1.0  0.83991  0.47298  0.04014  1.0000
  H   H1037     1.0  0.74006  0.17864  0.23855  1.0000
  H   H1038     1.0  0.64404  0.14246  0.04225  1.0000
  H   H1039     1.0  0.00563  0.34011  0.11592  1.0000
  H   H1040     1.0  0.66229  0.16338  0.05731  1.0000
  H   H1041     1.0  0.83748  0.45386  0.04331  1.0000
  C   C605      1.0  0.66574  0.19646  0.02364  1.0000
  C   C606      1.0  0.82077  0.46421  0.08982  1.0000
  H   H1042     1.0  0.68334  0.19168  0.01556  1.0000
  H   H1043     1.0  0.53010  0.08098  0.18114  1.0000
  H   H1044     1.0  0.58388  0.03574  0.06372  1.0000
  C   C607      1.0  0.51914  0.06484  0.14902  1.0000
  H   H1045     1.0  0.58703  0.17531  0.04894  1.0000
  H   H1046     1.0  0.60756  0.15238  0.05356  1.0000
  C   C608      1.0  0.60294  0.16654  0.04120  1.0000
  C   C609      1.0  0.00608  0.35791  0.12151  1.0000
  H   H1047     1.0  0.81273  0.15868  0.22853  1.0000
  H   H1048     1.0  0.51914  0.01504  0.10088  1.0000
  H   H1049     1.0  0.00602  0.35358  0.04521  1.0000
  N   N45       1.0  0.64449  0.01529  0.06795  1.0000
  C   C610      1.0  0.52279  0.08752  0.08567  1.0000
  H   H1050     1.0  0.79275  0.12677  0.25258  1.0000
  H   H1051     1.0  0.53994  0.03972  0.09833  1.0000
  C   C611      1.0  0.60015  0.03016  0.07393  1.0000
  C   C612      1.0  0.51076  0.14637  0.14373  1.0000
  C   C613      1.0  0.62179  0.02591  0.05732  1.0000
  C   C614      1.0  0.52576  0.03101  0.10967  1.0000
  C   C615      1.0  0.00732  0.40367  0.13637  1.0000
  C   C616      1.0  0.74984  0.16959  0.25292  1.0000
  H   H1052     1.0  0.51345  0.15247  0.07709  1.0000
  C   C617      1.0  0.51274  0.15057  0.09569  1.0000
  H   H1053     1.0  0.59429  0.01431  0.08401  1.0000
  H   H1054     1.0  0.61373  0.01465  0.04372  1.0000
  H   H1055     1.0  0.97534  0.38754  0.02323  1.0000
  H   H1056     1.0  0.87339  0.48096  0.01777  1.0000
  H   H1057     1.0  0.68135  0.00752  0.05545  1.0000
  H   H1058     1.0  0.51007  0.14490  0.16235  1.0000
  C   C618      1.0  0.78107  0.13965  0.26111  1.0000
  N   N46       1.0  0.50920  0.06931  0.12506  1.0000
  H   H1059     1.0  0.00862  0.42612  0.02083  1.0000
  Fe  Fe91      1.0  0.63782  0.41341  0.38146  1.0000
  S   S181      1.0  0.62266  0.40810  0.41706  1.0000
  S   S182      1.0  0.64915  0.44837  0.36559  1.0000
  Fe  Fe92      1.0  0.64118  0.36145  0.37332  1.0000
  S   S183      1.0  0.62629  0.35170  0.40877  1.0000
  S   S184      1.0  0.64692  0.33631  0.34401  1.0000
  Fe  Fe93      1.0  0.59875  0.37957  0.40235  1.0000
  S   S185      1.0  0.56075  0.37407  0.41827  1.0000
  Fe  Fe94      1.0  0.65098  0.38098  0.42140  1.0000
  S   S186      1.0  0.67306  0.38266  0.45452  1.0000
  S   S187      1.0  0.61131  0.38719  0.36592  1.0000
  S   S188      1.0  0.66841  0.38831  0.38659  1.0000
  Fe  Fe95      1.0  0.89107  0.12604  0.42660  1.0000
  S   S189      1.0  0.89518  0.14520  0.39232  1.0000
  S   S190      1.0  0.89895  0.14337  0.46065  1.0000
  Fe  Fe96      1.0  0.88078  0.07914  0.40444  1.0000
  S   S191      1.0  0.88357  0.09413  0.36835  1.0000
  S   S192      1.0  0.87732  0.04182  0.41776  1.0000
  Fe  Fe97      1.0  0.91679  0.11443  0.38190  1.0000
  S   S193      1.0  0.95298  0.11497  0.36225  1.0000
  Fe  Fe98      1.0  0.86152  0.12388  0.38131  1.0000
  S   S194      1.0  0.82665  0.13863  0.36440  1.0000
  S   S195      1.0  0.91545  0.09732  0.41683  1.0000
  S   S196      1.0  0.85595  0.10688  0.41669  1.0000
  H   H1060     1.0  0.56763  0.35607  0.31823  1.0000
  C   C619      1.0  0.54568  0.27325  0.36630  1.0000
  H   H1061     1.0  0.57781  0.31577  0.41224  1.0000
  H   H1062     1.0  0.00128  0.13805  0.43050  1.0000
  S   S197      1.0  0.74502  0.29037  0.30697  1.0000
  C   C620      1.0  0.71194  0.41250  0.34279  1.0000
  C   C621      1.0  0.98051  0.12012  0.37815  1.0000
  C   C622      1.0  0.65863  0.44345  0.49383  1.0000
  C   C623      1.0  0.97975  0.12757  0.40090  1.0000
  H   H1063     1.0  0.99090  0.04592  0.32480  1.0000
  H   H1064     1.0  0.96209  0.13061  0.40887  1.0000
  C   C624      1.0  0.82383  0.15668  0.33926  1.0000
  C   C625      1.0  0.84429  0.16379  0.32574  1.0000
  C   C626      1.0  0.84112  0.17827  0.30604  1.0000
  C   C627      1.0  0.81758  0.18612  0.29980  1.0000
  C   C628      1.0  0.79710  0.17904  0.31332  1.0000
  C   C629      1.0  0.80021  0.16428  0.33282  1.0000
  H   H1065     1.0  0.86256  0.15805  0.33041  1.0000
  H   H1066     1.0  0.85709  0.18354  0.29565  1.0000
  H   H1067     1.0  0.77890  0.18486  0.30871  1.0000
  H   H1068     1.0  0.78424  0.15879  0.34311  1.0000
  H   H1069     1.0  0.69583  0.41917  0.35205  1.0000
  C   C630      1.0  0.98491  0.15065  0.48887  1.0000
  C   C631      1.0  0.88410  0.01840  0.40014  1.0000
  C   C632      1.0  0.88047  0.01941  0.37626  1.0000
  H   H1070     1.0  0.88336  0.04062  0.49473  1.0000
  H   H1071     1.0  0.61529  0.29419  0.33725  1.0000
  H   H1072     1.0  0.87464  0.03536  0.36798  1.0000
  H   H1073     1.0  0.73356  0.40856  0.29282  1.0000
  C   C633      1.0  0.55387  0.29418  0.35069  1.0000
  C   C634      1.0  0.88690  0.13022  0.48629  1.0000
  C   C635      1.0  0.87189  0.10992  0.48595  1.0000
  H   H1074     1.0  0.93835  0.11972  0.49076  1.0000
  H   H1075     1.0  0.66667  0.43032  0.48244  1.0000
  H   H1076     1.0  0.86717  0.10212  0.46967  1.0000
  C   C636      1.0  0.53341  0.37778  0.40216  1.0000
  H   H1077     1.0  0.54570  0.33227  0.32092  1.0000
  C   C637      1.0  0.53414  0.38384  0.37868  1.0000
  H   H1078     1.0  0.51250  0.39032  0.34797  1.0000
  H   H1079     1.0  0.55179  0.38715  0.37020  1.0000
  C   C638      1.0  0.65691  0.37516  0.48020  1.0000
  C   C639      1.0  0.63444  0.36232  0.47976  1.0000
  C   C640      1.0  0.59521  0.48999  0.38796  1.0000
  C   C641      1.0  0.70498  0.39150  0.32773  1.0000
  H   H1080     1.0  0.76168  0.13975  0.29479  1.0000
  H   H1081     1.0  0.62678  0.35671  0.46348  1.0000
  N   N47       1.0  0.96384  0.03941  0.36757  1.0000
  H   H1082     1.0  0.95201  0.06679  0.32613  1.0000
  C   C642      1.0  0.67433  0.32307  0.33462  1.0000
  C   C643      1.0  0.67322  0.30959  0.31469  1.0000
  C   C644      1.0  0.69458  0.29934  0.30607  1.0000
  C   C645      1.0  0.71736  0.30240  0.31734  1.0000
  C   C646      1.0  0.71842  0.31573  0.33740  1.0000
  C   C647      1.0  0.69706  0.32605  0.34599  1.0000
  H   H1083     1.0  0.65576  0.30718  0.30571  1.0000
  H   H1084     1.0  0.69345  0.28917  0.29063  1.0000
  H   H1085     1.0  0.73594  0.31820  0.34627  1.0000
  H   H1086     1.0  0.69823  0.33626  0.36139  1.0000
  S   S198      1.0  0.74504  0.22885  0.27828  1.0000
  C   C648      1.0  0.63236  0.47279  0.37332  1.0000
  C   C649      1.0  0.60879  0.47023  0.38329  1.0000
  H   H1087     1.0  0.99440  0.14525  0.47302  1.0000
  H   H1088     1.0  0.60076  0.45304  0.38681  1.0000
  H   H1089     1.0  0.52913  0.27733  0.37663  1.0000
  C   C650      1.0  0.60844  0.28482  0.35301  1.0000
  H   H1090     1.0  0.96089  0.17991  0.49530  1.0000
  C   C651      1.0  0.73160  0.16770  0.27352  1.0000
  C   C652      1.0  0.69344  0.41696  0.29394  1.0000
  C   C653      1.0  0.59524  0.30075  0.36978  1.0000
  H   H1091     1.0  0.64916  0.47689  0.43803  1.0000
  C   C654      1.0  0.67702  0.46461  0.49206  1.0000
  H   H1092     1.0  0.78974  0.12479  0.29473  1.0000
  H   H1093     1.0  0.59806  0.45745  0.50475  1.0000
  N   N48       1.0  0.68634  0.39594  0.30882  1.0000
  H   H1094     1.0  0.99940  0.16058  0.49865  1.0000
  S   S199      1.0  0.81474  0.20441  0.27486  1.0000
  H   H1095     1.0  0.59045  0.43621  0.45702  1.0000
  H   H1096     1.0  0.67004  0.36152  0.30360  1.0000
  H   H1097     1.0  0.97077  0.07398  0.40792  1.0000
  H   H1098     1.0  0.54081  0.25819  0.35535  1.0000
  H   H1099     1.0  0.56042  0.26704  0.37792  1.0000
  H   H1100     1.0  0.67256  0.37901  0.27805  1.0000
  H   H1101     1.0  0.79726  0.00693  0.40270  1.0000
  H   H1102     1.0  0.94789  0.15939  0.47523  1.0000
  H   H1103     1.0  0.68010  0.41889  0.27945  1.0000
  H   H1104     1.0  0.69806  0.37701  0.33940  1.0000
  H   H1105     1.0  0.99070  0.01985  0.38753  1.0000
  H   H1106     1.0  0.92484  0.04956  0.31994  1.0000
  H   H1107     1.0  0.69163  0.43335  0.30354  1.0000
  H   H1108     1.0  0.95804  0.12787  0.45375  1.0000
  N   N49       1.0  0.79835  0.23904  0.35000  1.0000
  C   C655      1.0  0.80089  0.24390  0.32437  1.0000
  C   C656      1.0  0.77315  0.22747  0.35416  1.0000
  C   C657      1.0  0.81860  0.22284  0.35742  1.0000
  C   C658      1.0  0.80113  0.26201  0.36184  1.0000
  C   C659      1.0  0.82690  0.25252  0.31595  1.0000
  C   C660      1.0  0.75062  0.24141  0.34628  1.0000
  C   C661      1.0  0.81314  0.20584  0.37801  1.0000
  C   C662      1.0  0.79650  0.26163  0.38801  1.0000
  H   H1109     1.0  0.79571  0.22811  0.31456  1.0000
  H   H1110     1.0  0.78786  0.25735  0.31834  1.0000
  H   H1111     1.0  0.77011  0.22309  0.37270  1.0000
  H   H1112     1.0  0.77186  0.21053  0.34525  1.0000
  H   H1113     1.0  0.82345  0.21127  0.34311  1.0000
  H   H1114     1.0  0.83610  0.23281  0.36138  1.0000
  H   H1115     1.0  0.82014  0.26973  0.35931  1.0000
  H   H1116     1.0  0.78850  0.27488  0.35392  1.0000
  H   H1117     1.0  0.83208  0.26993  0.32252  1.0000
  H   H1118     1.0  0.84158  0.24012  0.32021  1.0000
  H   H1119     1.0  0.82667  0.25421  0.29685  1.0000
  H   H1120     1.0  0.73333  0.23174  0.35167  1.0000
  H   H1121     1.0  0.75023  0.25873  0.35415  1.0000
  H   H1122     1.0  0.74973  0.24333  0.32725  1.0000
  H   H1123     1.0  0.80666  0.21438  0.39362  1.0000
  H   H1124     1.0  0.83041  0.19682  0.38266  1.0000
  H   H1125     1.0  0.79933  0.19202  0.37327  1.0000
  H   H1126     1.0  0.77754  0.25507  0.39258  1.0000
  H   H1127     1.0  0.79826  0.27971  0.39422  1.0000
  H   H1128     1.0  0.81058  0.25159  0.39742  1.0000
  H   H1129     1.0  0.59425  0.34137  0.34811  1.0000
  H   H1130     1.0  0.56080  0.28744  0.33412  1.0000
  H   H1131     1.0  0.72114  0.42685  0.33256  1.0000
  H   H1132     1.0  0.54042  0.32914  0.37473  1.0000
  C   C663      1.0  0.93702  0.05570  0.33417  1.0000
  C   C664      1.0  0.94702  0.03436  0.34735  1.0000
  H   H1133     1.0  0.67083  0.48000  0.50116  1.0000
  H   H1134     1.0  0.58842  0.40644  0.46595  1.0000
  H   H1135     1.0  0.97776  0.07344  0.35604  1.0000
  C   C665      1.0  0.55912  0.34321  0.33073  1.0000
  N   N50       1.0  0.57200  0.31169  0.36072  1.0000
  C   C666      1.0  0.63907  0.40208  0.30463  1.0000
  H   H1136     1.0  0.72535  0.40696  0.35623  1.0000
  H   H1137     1.0  0.54915  0.35328  0.34358  1.0000
  C   C667      1.0  0.00194  0.13175  0.41313  1.0000
  H   H1138     1.0  0.99733  0.05945  0.37582  1.0000
  H   H1139     1.0  0.63434  0.38526  0.29649  1.0000
  H   H1140     1.0  0.53640  0.30268  0.34561  1.0000
  C   C668      1.0  0.62214  0.35616  0.50050  1.0000
  H   H1141     1.0  0.74064  0.17429  0.28938  1.0000
  H   H1142     1.0  0.60907  0.47029  0.46703  1.0000
  H   H1143     1.0  0.55220  0.29618  0.40471  1.0000
  H   H1144     1.0  0.62474  0.45549  0.43361  1.0000
  C   C669      1.0  0.68239  0.37459  0.29440  1.0000
  C   C670      1.0  0.63975  0.46101  0.44561  1.0000
  C   C671      1.0  0.98483  0.05614  0.36085  1.0000
  H   H1145     1.0  0.62512  0.27796  0.36173  1.0000
  C   C672      1.0  0.66657  0.38246  0.50143  1.0000
  C   C673      1.0  0.00145  0.04855  0.34099  1.0000
  Fe  Fe99      1.0  0.78325  0.22767  0.26330  1.0000
  C   C674      1.0  0.95784  0.11410  0.48963  1.0000
  H   H1146     1.0  0.97779  0.04399  0.41288  1.0000
  H   H1147     1.0  0.71837  0.41024  0.26508  1.0000
  C   C675      1.0  0.71934  0.41756  0.28263  1.0000
  C   C676      1.0  0.55922  0.31440  0.40400  1.0000
  N   N51       1.0  0.63176  0.44753  0.48781  1.0000
  H   H1148     1.0  0.60896  0.31449  0.37518  1.0000
  C   C677      1.0  0.96275  0.05591  0.40872  1.0000
  C   C678      1.0  0.70548  0.36123  0.28764  1.0000
  C   C679      1.0  0.51191  0.38569  0.36616  1.0000
  Fe  Fe100     1.0  0.74995  0.26783  0.27530  1.0000
  H   H1149     1.0  0.65385  0.44746  0.44635  1.0000
  H   H1150     1.0  0.71392  0.35250  0.30283  1.0000
  H   H1151     1.0  0.59650  0.26963  0.34821  1.0000
  H   H1152     1.0  0.92547  0.06641  0.34523  1.0000
  C   C680      1.0  0.55992  0.32527  0.37940  1.0000
  H   H1153     1.0  0.79386  0.15453  0.26547  1.0000
  H   H1154     1.0  0.66070  0.49729  0.36094  1.0000
  H   H1155     1.0  0.93043  0.02373  0.35307  1.0000
  C   C681      1.0  0.61758  0.45358  0.50913  1.0000
  H   H1156     1.0  0.72274  0.38542  0.32098  1.0000
  C   C682      1.0  0.57988  0.32877  0.34168  1.0000
  H   H1157     1.0  0.59178  0.29006  0.38565  1.0000
  H   H1158     1.0  0.65748  0.38683  0.33383  1.0000
  H   H1159     1.0  0.95077  0.09764  0.45686  1.0000
  H   H1160     1.0  0.62241  0.41099  0.49365  1.0000
  H   H1161     1.0  0.57675  0.48789  0.39514  1.0000
  H   H1162     1.0  0.64121  0.41611  0.29129  1.0000
  C   C683      1.0  0.96292  0.11190  0.46358  1.0000
  H   H1163     1.0  0.63720  0.48320  0.47493  1.0000
  H   H1164     1.0  0.95631  0.02354  0.33452  1.0000
  H   H1165     1.0  0.69499  0.45973  0.49986  1.0000
  H   H1166     1.0  0.54661  0.32441  0.41481  1.0000
  C   C684      1.0  0.66202  0.40058  0.32049  1.0000
  H   H1167     1.0  0.71550  0.17873  0.26983  1.0000
  H   H1168     1.0  0.62283  0.40636  0.31530  1.0000
  H   H1169     1.0  0.93162  0.03983  0.39027  1.0000
  H   H1170     1.0  0.94167  0.06713  0.37978  1.0000
  H   H1171     1.0  0.00433  0.11108  0.35017  1.0000
  H   H1172     1.0  0.76310  0.11122  0.28212  1.0000
  H   H1173     1.0  0.56961  0.34255  0.38122  1.0000
  H   H1174     1.0  0.98221  0.10766  0.45953  1.0000
  C   C685      1.0  0.94885  0.05028  0.38609  1.0000
  H   H1175     1.0  0.66313  0.41721  0.32981  1.0000
  H   H1176     1.0  0.68085  0.46964  0.47378  1.0000
  C   C686      1.0  0.64250  0.49520  0.36867  1.0000
  C   C687      1.0  0.96530  0.16811  0.48112  1.0000
  H   H1177     1.0  0.58868  0.31991  0.32716  1.0000
  C   C688      1.0  0.77287  0.12828  0.28433  1.0000
  H   H1178     1.0  0.68393  0.39244  0.50187  1.0000
  C   C689      1.0  0.62091  0.42458  0.47972  1.0000
  C   C690      1.0  0.97455  0.01683  0.37589  1.0000
  H   H1179     1.0  0.63180  0.41796  0.46518  1.0000
  C   C691      1.0  0.59355  0.42420  0.47189  1.0000
  C   C692      1.0  0.62894  0.46627  0.46951  1.0000
  H   H1180     1.0  0.58075  0.42778  0.48619  1.0000
  H   H1181     1.0  0.60510  0.34569  0.50009  1.0000
  C   C693      1.0  0.00357  0.11661  0.36784  1.0000
  H   H1182     1.0  0.94954  0.05419  0.42340  1.0000
  H   H1183     1.0  0.97271  0.17914  0.46653  1.0000
  H   H1184     1.0  0.72642  0.43589  0.28099  1.0000
  S   S200      1.0  0.78943  0.26655  0.26241  1.0000
  H   H1185     1.0  0.00575  0.09176  0.48628  1.0000
  H   H1186     1.0  0.72358  0.15020  0.27741  1.0000
  C   C694      1.0  0.51042  0.37391  0.41313  1.0000
  H   H1187     1.0  0.87207  0.01171  0.50073  1.0000
  H   H1188     1.0  0.95739  0.09620  0.49736  1.0000
  N   N52       1.0  0.97518  0.12998  0.50305  1.0000
  C   C695      1.0  0.86250  0.09999  0.50671  1.0000
  H   H1189     1.0  0.85029  0.08472  0.50624  1.0000
  H   H1190     1.0  0.90380  0.15626  0.50783  1.0000
  C   C696      1.0  0.89279  0.14023  0.50753  1.0000
  H   H1191     1.0  0.80299  0.01809  0.43110  1.0000
  C   C697      1.0  0.88127  0.02704  0.50864  1.0000
  H   H1192     1.0  0.98230  0.00736  0.36117  1.0000
  H   H1193     1.0  0.71966  0.37213  0.27842  1.0000
  H   H1194     1.0  0.69967  0.34710  0.27586  1.0000
  H   H1195     1.0  0.50978  0.36917  0.43129  1.0000
  H   H1196     1.0  0.94917  0.00638  0.40455  1.0000
  Fe  Fe101     1.0  0.63237  0.42447  0.59718  1.0000
  S   S201      1.0  0.62686  0.41314  0.63422  1.0000
  S   S202      1.0  0.63753  0.46044  0.58094  1.0000
  Fe  Fe102     1.0  0.62201  0.37569  0.57944  1.0000
  S   S203      1.0  0.61487  0.36032  0.61503  1.0000
  S   S204      1.0  0.61647  0.35446  0.54746  1.0000
  Fe  Fe103     1.0  0.59363  0.39267  0.62085  1.0000
  S   S205      1.0  0.55658  0.39233  0.63950  1.0000
  Fe  Fe104     1.0  0.64859  0.38165  0.62548  1.0000
  S   S206      1.0  0.68225  0.36864  0.64544  1.0000
  S   S207      1.0  0.59799  0.40592  0.58449  1.0000
  S   S208      1.0  0.65697  0.39505  0.58921  1.0000
  Fe  Fe105     1.0  0.87644  0.12009  0.63725  1.0000
  S   S209      1.0  0.86248  0.08713  0.62033  1.0000
  S   S210      1.0  0.86018  0.13500  0.67007  1.0000
  Fe  Fe106     1.0  0.92423  0.12223  0.60879  1.0000
  S   S211      1.0  0.91409  0.09007  0.58971  1.0000
  S   S212      1.0  0.96024  0.14121  0.59919  1.0000
  Fe  Fe107     1.0  0.87624  0.10443  0.58716  1.0000
  S   S213      1.0  0.85617  0.09724  0.55367  1.0000
  Fe  Fe108     1.0  0.90138  0.07504  0.62381  1.0000
  S   S214      1.0  0.91415  0.03895  0.63304  1.0000
  S   S215      1.0  0.88713  0.13836  0.60360  1.0000
  S   S216      1.0  0.91463  0.10629  0.64333  1.0000
  Fe  Fe109     1.0  0.73120  0.26856  0.73108  1.0000
  S   S217      1.0  0.77114  0.27580  0.72166  1.0000
  S   S218      1.0  0.69525  0.28300  0.71640  1.0000
  C   C698      1.0  0.95087  0.12064  0.54091  1.0000
  H   H1197     1.0  0.77679  0.16193  0.68761  1.0000
  C   C699      1.0  0.93362  0.17460  0.68806  1.0000
  Fe  Fe110     1.0  0.77497  0.23704  0.71938  1.0000
  S   S219      1.0  0.79099  0.22084  0.68702  1.0000
  H   H1198     1.0  0.80880  0.02746  0.55555  1.0000
  S   S220      1.0  0.73440  0.23031  0.72620  1.0000
  H   H1199     1.0  0.88370  0.01026  0.71248  1.0000
  H   H1200     1.0  0.88865  0.13779  0.54461  1.0000
  H   H1201     1.0  0.53548  0.44949  0.64540  1.0000
  H   H1202     1.0  0.89578  0.04197  0.58251  1.0000
  C   C700      1.0  0.73612  0.13776  0.72737  1.0000
  H   H1203     1.0  0.96817  0.11527  0.64217  1.0000
  H   H1204     1.0  0.56174  0.44275  0.67497  1.0000
  H   H1205     1.0  0.68397  0.20781  0.73960  1.0000
  H   H1206     1.0  0.86075  0.03213  0.62937  1.0000
  H   H1207     1.0  0.77912  0.11321  0.68893  1.0000
  H   H1208     1.0  0.78533  0.12662  0.73963  1.0000
  C   C701      1.0  0.98730  0.13233  0.61356  1.0000
  H   H1209     1.0  0.91218  0.24112  0.67431  1.0000
  H   H1210     1.0  0.66112  0.38305  0.53831  1.0000
  H   H1211     1.0  0.55532  0.50330  0.61004  1.0000
  H   H1212     1.0  0.90940  0.19135  0.61916  1.0000
  C   C702      1.0  0.84210  0.15982  0.67413  1.0000
  C   C703      1.0  0.83918  0.16802  0.69660  1.0000
  C   C704      1.0  0.82425  0.18709  0.70086  1.0000
  C   C705      1.0  0.81183  0.19807  0.68265  1.0000
  C   C706      1.0  0.81522  0.19017  0.66011  1.0000
  C   C707      1.0  0.83030  0.17121  0.65584  1.0000
  H   H1213     1.0  0.84843  0.15949  0.71086  1.0000
  H   H1214     1.0  0.82227  0.19322  0.71822  1.0000
  H   H1215     1.0  0.80579  0.19858  0.64588  1.0000
  H   H1216     1.0  0.83236  0.16516  0.63845  1.0000
  C   C708      1.0  0.52918  0.39910  0.62432  1.0000
  C   C709      1.0  0.53015  0.40889  0.60203  1.0000
  C   C710      1.0  0.88524  0.01323  0.55963  1.0000
  H   H1217     1.0  0.54774  0.41192  0.59354  1.0000
  C   C711      1.0  0.65374  0.37710  0.52209  1.0000
  C   C712      1.0  0.68510  0.34513  0.66569  1.0000
  C   C713      1.0  0.70861  0.34077  0.67508  1.0000
  C   C714      1.0  0.71212  0.32174  0.69039  1.0000
  C   C715      1.0  0.69204  0.30694  0.69674  1.0000
  C   C716      1.0  0.66848  0.31136  0.68744  1.0000
  C   C717      1.0  0.66502  0.33026  0.67192  1.0000
  H   H1218     1.0  0.72429  0.35215  0.67041  1.0000
  H   H1219     1.0  0.73033  0.31865  0.69744  1.0000
  H   H1220     1.0  0.65278  0.30008  0.69226  1.0000
  H   H1221     1.0  0.64683  0.33335  0.66484  1.0000
  H   H1222     1.0  0.74559  0.19188  0.69775  1.0000
  H   H1223     1.0  0.59860  0.47891  0.65260  1.0000
  H   H1224     1.0  0.55178  0.47079  0.58599  1.0000
  C   C718      1.0  0.63649  0.48562  0.59758  1.0000
  C   C719      1.0  0.64012  0.48471  0.62145  1.0000
  H   H1225     1.0  0.56537  0.44141  0.61892  1.0000
  H   H1226     1.0  0.64401  0.46835  0.63004  1.0000
  N   N53       1.0  0.69404  0.32380  0.58939  1.0000
  C   C720      1.0  0.66764  0.33096  0.58557  1.0000
  C   C721      1.0  0.71018  0.34578  0.58911  1.0000
  C   C722      1.0  0.69515  0.31159  0.61276  1.0000
  C   C723      1.0  0.70054  0.30767  0.57042  1.0000
  C   C724      1.0  0.64737  0.31139  0.58783  1.0000
  C   C725      1.0  0.66823  0.21894  0.74367  1.0000
  C   C726      1.0  0.72060  0.31088  0.62487  1.0000
  C   C727      1.0  0.72771  0.30032  0.56910  1.0000
  H   H1227     1.0  0.66282  0.34448  0.59805  1.0000
  N   N54       1.0  0.86119  0.02080  0.54898  1.0000
  H   H1228     1.0  0.72961  0.34251  0.59399  1.0000
  H   H1229     1.0  0.70376  0.35783  0.60241  1.0000
  H   H1230     1.0  0.68279  0.31997  0.62522  1.0000
  H   H1231     1.0  0.68794  0.29329  0.61176  1.0000
  H   H1232     1.0  0.68931  0.29114  0.57203  1.0000
  H   H1233     1.0  0.69510  0.31477  0.55315  1.0000
  H   H1234     1.0  0.64928  0.29800  0.57463  1.0000
  H   H1235     1.0  0.61444  0.47820  0.53657  1.0000
  H   H1236     1.0  0.62898  0.31904  0.58482  1.0000
  H   H1237     1.0  0.93995  0.10649  0.53257  1.0000
  C   C728      1.0  0.53714  0.46835  0.64067  1.0000
  H   H1238     1.0  0.84760  0.04116  0.51995  1.0000
  H   H1239     1.0  0.73512  0.30347  0.61419  1.0000
  H   H1240     1.0  0.71872  0.29979  0.64079  1.0000
  H   H1241     1.0  0.72680  0.32840  0.63061  1.0000
  H   H1242     1.0  0.73050  0.28428  0.57968  1.0000
  H   H1243     1.0  0.74142  0.31393  0.57421  1.0000
  H   H1244     1.0  0.73231  0.29675  0.55088  1.0000
  H   H1245     1.0  0.61662  0.43855  0.52168  1.0000
  C   C729      1.0  0.88411  0.12986  0.52835  1.0000
  C   C730      1.0  0.74025  0.17555  0.68910  1.0000
  H   H1246     1.0  0.58593  0.50434  0.62091  1.0000
  H   H1247     1.0  0.87434  0.05343  0.53320  1.0000
  H   H1248     1.0  0.52018  0.46127  0.60696  1.0000
  C   C731      1.0  0.86867  0.10985  0.52797  1.0000
  C   C732      1.0  0.89642  0.19237  0.63388  1.0000
  C   C733      1.0  0.94968  0.17665  0.64779  1.0000
  H   H1249     1.0  0.64253  0.50443  0.65260  1.0000
  C   C734      1.0  0.00783  0.11488  0.64672  1.0000
  C   C735      1.0  0.57086  0.46656  0.59096  1.0000
  H   H1250     1.0  0.62255  0.23387  0.75398  1.0000
  H   H1251     1.0  0.64448  0.30325  0.75893  1.0000
  H   H1252     1.0  0.89338  0.21079  0.63784  1.0000
  H   H1253     1.0  0.82221  0.05529  0.54564  1.0000
  C   C736      1.0  0.57976  0.44818  0.66697  1.0000
  C   C737      1.0  0.56631  0.50024  0.62594  1.0000
  S   S221      1.0  0.78518  0.23211  0.75671  1.0000
  H   H1254     1.0  0.65121  0.20762  0.74300  1.0000
  H   H1255     1.0  0.58349  0.48161  0.58643  1.0000
  C   C738      1.0  0.78161  0.13217  0.72157  1.0000
  H   H1256     1.0  0.97326  0.15165  0.53315  1.0000
  C   C739      1.0  0.51739  0.47230  0.62198  1.0000
  C   C740      1.0  0.57908  0.47289  0.65605  1.0000
  H   H1257     1.0  0.74099  0.17964  0.67027  1.0000
  H   H1258     1.0  0.98077  0.16806  0.67116  1.0000
  H   H1259     1.0  0.71883  0.34898  0.55183  1.0000
  C   C741      1.0  0.82157  0.04218  0.55998  1.0000
  H   H1260     1.0  0.64670  0.30325  0.60536  1.0000
  H   H1261     1.0  0.64551  0.47077  0.53117  1.0000
  H   H1262     1.0  0.57646  0.45210  0.58003  1.0000
  C   C742      1.0  0.89516  0.01490  0.62532  1.0000
  C   C743      1.0  0.71156  0.35948  0.56591  1.0000
  H   H1263     1.0  0.90442  0.15986  0.65041  1.0000
  H   H1264     1.0  0.76106  0.09973  0.71252  1.0000
  H   H1265     1.0  0.90839  0.04538  0.55356  1.0000
  H   H1266     1.0  0.65205  0.26483  0.74377  1.0000
  H   H1267     1.0  0.80025  0.16278  0.75361  1.0000
  H   H1268     1.0  0.98901  0.17266  0.64169  1.0000
  H   H1269     1.0  0.98315  0.19721  0.65847  1.0000
  C   C744      1.0  0.90524  0.17845  0.65523  1.0000
  H   H1270     1.0  0.51639  0.49082  0.61654  1.0000
  H   H1271     1.0  0.74948  0.17964  0.73734  1.0000
  H   H1272     1.0  0.93520  0.14202  0.70767  1.0000
  H   H1273     1.0  0.77841  0.18300  0.72334  1.0000
  H   H1274     1.0  0.58498  0.43502  0.65448  1.0000
  H   H1275     1.0  0.88498  0.02375  0.68446  1.0000
  N   N55       1.0  0.56359  0.47530  0.63446  1.0000
  H   H1276     1.0  0.71929  0.11387  0.75294  1.0000
  C   C745      1.0  0.86550  0.03656  0.52809  1.0000
  H   H1277     1.0  0.72144  0.15086  0.72672  1.0000
  H   H1278     1.0  0.81338  0.05087  0.57493  1.0000
  C   C746      1.0  0.88052  0.00706  0.69389  1.0000
  H   H1279     1.0  0.94506  0.14893  0.51749  1.0000
  H   H1280     1.0  0.59389  0.44804  0.68093  1.0000
  H   H1281     1.0  0.85841  0.05048  0.57125  1.0000
  H   H1282     1.0  0.72920  0.12441  0.71513  1.0000
  C   C747      1.0  0.84775  0.03435  0.56678  1.0000
  H   H1283     1.0  0.79924  0.14106  0.71566  1.0000
  H   H1284     1.0  0.92215  0.22449  0.69930  1.0000
  H   H1285     1.0  0.75209  0.14114  0.68404  1.0000
  H   H1286     1.0  0.91398  0.14067  0.68413  1.0000
  H   H1287     1.0  0.95136  0.18072  0.69610  1.0000
  C   C748      1.0  0.98598  0.12014  0.63473  1.0000
  H   H1288     1.0  0.57234  0.48404  0.66994  1.0000
  H   H1289     1.0  0.69345  0.36647  0.56087  1.0000
  H   H1290     1.0  0.94713  0.14001  0.67914  1.0000
  H   H1291     1.0  0.72078  0.17039  0.69333  1.0000
  C   C749      1.0  0.76664  0.17027  0.73355  1.0000
  H   H1292     1.0  0.96571  0.11334  0.55188  1.0000
  H   H1293     1.0  0.92068  0.02497  0.57385  1.0000
  C   C750      1.0  0.75837  0.15604  0.69468  1.0000
  C   C751      1.0  0.57365  0.45926  0.61666  1.0000
  H   H1294     1.0  0.93804  0.12913  0.55281  1.0000
  C   C752      1.0  0.90327  0.03278  0.56765  1.0000
  H   H1295     1.0  0.89660  0.21455  0.68180  1.0000
  H   H1296     1.0  0.87821  0.18486  0.62824  1.0000
  H   H1297     1.0  0.99039  0.10190  0.52369  1.0000
  H   H1298     1.0  0.84576  0.02400  0.58315  1.0000
  H   H1299     1.0  0.75130  0.11788  0.75734  1.0000
  C   C753      1.0  0.62769  0.47459  0.52255  1.0000
  H   H1300     1.0  0.93450  0.21998  0.64855  1.0000
  H   H1301     1.0  0.89081  0.17954  0.66879  1.0000
  H   H1302     1.0  0.94858  0.18595  0.63079  1.0000
  H   H1303     1.0  0.72452  0.37475  0.56780  1.0000
  N   N56       1.0  0.93064  0.18526  0.66427  1.0000
  H   H1304     1.0  0.50944  0.42341  0.57380  1.0000
  H   H1305     1.0  0.66777  0.23275  0.73002  1.0000
  C   C754      1.0  0.86932  0.01597  0.62551  1.0000
  C   C755      1.0  0.93404  0.21124  0.66591  1.0000
  H   H1306     1.0  0.95255  0.21591  0.67325  1.0000
  H   H1307     1.0  0.94586  0.15805  0.64386  1.0000
  C   C756      1.0  0.91519  0.22330  0.68130  1.0000
  H   H1308     1.0  0.66519  0.33898  0.56810  1.0000
  C   C757      1.0  0.97702  0.17896  0.65561  1.0000
  C   C758      1.0  0.93242  0.14780  0.68946  1.0000
  H   H1309     1.0  0.91884  0.18042  0.69978  1.0000
  H   H1310     1.0  0.53124  0.47760  0.65625  1.0000
  C   C759      1.0  0.77835  0.10968  0.70782  1.0000
  H   H1311     1.0  0.79407  0.09832  0.71192  1.0000
  C   C760      1.0  0.63173  0.36352  0.52172  1.0000
  C   C761      1.0  0.96132  0.13909  0.52338  1.0000
  H   H1312     1.0  0.59396  0.45714  0.61905  1.0000
  N   N57       1.0  0.76063  0.14879  0.71980  1.0000
  H   H1313     1.0  0.00667  0.10597  0.66334  1.0000
  C   C762      1.0  0.73464  0.12725  0.75204  1.0000
  H   H1314     1.0  0.90025  0.02301  0.51446  1.0000
  Fe  Fe111     1.0  0.77894  0.27061  0.75983  1.0000
  C   C763      1.0  0.78055  0.16678  0.75662  1.0000
  H   H1315     1.0  0.00830  0.12838  0.52411  1.0000
  C   C764      1.0  0.63932  0.50515  0.63417  1.0000
  C   C765      1.0  0.99686  0.11696  0.51264  1.0000
  H   H1316     1.0  0.00862  0.04289  0.69842  1.0000
  H   H1317     1.0  0.66010  0.43552  0.51151  1.0000
  H   H1318     1.0  0.62956  0.49064  0.51168  1.0000
  Fe  Fe112     1.0  0.58363  0.10875  0.87481  1.0000
  S   S222      1.0  0.59501  0.14093  0.89360  1.0000
  S   S223      1.0  0.54676  0.09895  0.85823  1.0000
  Fe  Fe113     1.0  0.63180  0.08520  0.88645  1.0000
  S   S224      1.0  0.64710  0.11559  0.90660  1.0000
  S   S225      1.0  0.65180  0.05219  0.87890  1.0000
  Fe  Fe114     1.0  0.60854  0.11653  0.92141  1.0000
  S   S226      1.0  0.59456  0.12238  0.95773  1.0000
  Fe  Fe115     1.0  0.63266  0.13771  0.87706  1.0000
  S   S227      1.0  0.65276  0.17153  0.86449  1.0000
  S   S228      1.0  0.59459  0.08456  0.90353  1.0000
  S   S229      1.0  0.61996  0.10720  0.85599  1.0000
  Fe  Fe116     1.0  0.86082  0.37481  0.87876  1.0000
  S   S230      1.0  0.87315  0.40690  0.85829  1.0000
  S   S231      1.0  0.83052  0.34817  0.86834  1.0000
  Fe  Fe117     1.0  0.89096  0.39033  0.92175  1.0000
  S   S232      1.0  0.90487  0.42353  0.90440  1.0000
  S   S233      1.0  0.90740  0.38045  0.95654  1.0000
  Fe  Fe118     1.0  0.86611  0.42615  0.89078  1.0000
  S   S234      1.0  0.84308  0.45807  0.89293  1.0000
  Fe  Fe119     1.0  0.91089  0.40134  0.87382  1.0000
  S   S235      1.0  0.94620  0.40420  0.85277  1.0000
  S   S236      1.0  0.85155  0.39458  0.91061  1.0000
  S   S237      1.0  0.89922  0.36771  0.89178  1.0000
  H   H1319     1.0  0.81942  0.37898  0.82986  1.0000
  C   C766      1.0  0.78462  0.39503  0.87501  1.0000
  C   C767      1.0  0.87890  0.48555  0.87062  1.0000
  C   C768      1.0  0.85594  0.48453  0.88182  1.0000
  S   S238      1.0  0.73839  0.26557  0.76948  1.0000
  H   H1320     1.0  0.88860  0.46974  0.86776  1.0000
  H   H1321     1.0  0.97734  0.45549  0.85317  1.0000
  C   C769      1.0  0.97418  0.40435  0.86841  1.0000
  C   C770      1.0  0.60804  0.04368  0.83313  1.0000
  H   H1322     1.0  0.96120  0.38045  0.93403  1.0000
  H   H1323     1.0  0.62128  0.05865  0.83549  1.0000
  C   C771      1.0  0.97464  0.40982  0.89177  1.0000
  H   H1324     1.0  0.98621  0.48560  0.85415  1.0000
  C   C772      1.0  0.80040  0.38464  0.82560  1.0000
  H   H1325     1.0  0.95789  0.41489  0.90017  1.0000
  C   C773      1.0  0.89420  0.38889  0.98283  1.0000
  C   C774      1.0  0.87198  0.40067  0.98342  1.0000
  H   H1326     1.0  0.61905  0.02788  0.83536  1.0000
  C   C775      1.0  0.81543  0.42482  0.82039  1.0000
  H   H1327     1.0  0.86251  0.40490  0.96748  1.0000
  H   H1328     1.0  0.84407  0.49012  0.00604  1.0000
  C   C776      1.0  0.81487  0.30945  0.80059  1.0000
  C   C777      1.0  0.83652  0.32362  0.80290  1.0000
  C   C778      1.0  0.84182  0.33531  0.82355  1.0000
  C   C779      1.0  0.82547  0.33297  0.84224  1.0000
  C   C780      1.0  0.80378  0.31886  0.83993  1.0000
  C   C781      1.0  0.79848  0.30716  0.81926  1.0000
  C   C782      1.0  0.55498  0.02626  0.82653  1.0000
  H   H1329     1.0  0.85852  0.34613  0.82497  1.0000
  H   H1330     1.0  0.79097  0.31695  0.85424  1.0000
  H   H1331     1.0  0.78177  0.29636  0.81779  1.0000
  C   C783      1.0  0.63907  0.02543  0.88971  1.0000
  C   C784      1.0  0.62203  0.02471  0.90784  1.0000
  C   C785      1.0  0.62146  0.21140  0.78495  1.0000
  H   H1332     1.0  0.61753  0.04055  0.91626  1.0000
  C   C786      1.0  0.84342  0.50511  0.88525  1.0000
  C   C787      1.0  0.67382  0.17685  0.84114  1.0000
  C   C788      1.0  0.68654  0.19859  0.83920  1.0000
  C   C789      1.0  0.70302  0.20384  0.82075  1.0000
  C   C790      1.0  0.70668  0.18753  0.80372  1.0000
  C   C791      1.0  0.69404  0.16575  0.80568  1.0000
  C   C792      1.0  0.67776  0.16040  0.82428  1.0000
  H   H1333     1.0  0.68385  0.21136  0.85225  1.0000
  H   H1334     1.0  0.71317  0.22034  0.81991  1.0000
  H   H1335     1.0  0.69672  0.15294  0.79269  1.0000
  H   H1336     1.0  0.66814  0.14360  0.82552  1.0000
  H   H1337     1.0  0.61953  0.28333  0.76609  1.0000
  H   H1338     1.0  0.82161  0.40183  0.86237  1.0000
  C   C793      1.0  0.60938  0.11104  0.98250  1.0000
  C   C794      1.0  0.63292  0.10169  0.98145  1.0000
  N   N58       1.0  0.65321  0.24518  0.77607  1.0000
  H   H1339     1.0  0.64195  0.10016  0.96493  1.0000
  H   H1340     1.0  0.95833  0.36249  0.96000  1.0000
  C   C795      1.0  0.65698  0.24891  0.80150  1.0000
  H   H1341     1.0  0.76766  0.41690  0.80977  1.0000
  H   H1342     1.0  0.92335  0.37416  0.00335  1.0000
  H   H1343     1.0  0.00217  0.35841  0.92708  1.0000
  H   H1344     1.0  0.91717  0.49660  0.96156  1.0000
  H   H1345     1.0  0.82552  0.50437  0.89369  1.0000
  C   C796      1.0  0.94634  0.32813  0.92878  1.0000
  H   H1346     1.0  0.83387  0.45906  0.81830  1.0000
  C   C797      1.0  0.89715  0.49362  0.95754  1.0000
  C   C798      1.0  0.89464  0.47222  0.94204  1.0000
  H   H1347     1.0  0.99913  0.46722  0.83257  1.0000
  H   H1348     1.0  0.57996  0.06243  0.85040  1.0000
  H   H1349     1.0  0.69774  0.25359  0.80189  1.0000
  H   H1350     1.0  0.97622  0.30340  0.90008  1.0000
  H   H1351     1.0  0.88839  0.48819  0.97426  1.0000
  H   H1352     1.0  0.99591  0.39382  0.83955  1.0000
  H   H1353     1.0  0.64123  0.25817  0.80896  1.0000
  H   H1354     1.0  0.80784  0.45818  0.83728  1.0000
  H   H1355     1.0  0.80811  0.42908  0.80288  1.0000
  H   H1356     1.0  0.64200  0.29213  0.78783  1.0000
  H   H1357     1.0  0.63073  0.14989  0.00353  1.0000
  H   H1358     1.0  0.61431  0.21391  0.80265  1.0000
  H   H1359     1.0  0.87500  0.46700  0.93870  1.0000
  H   H1360     1.0  0.90452  0.47490  0.92539  1.0000
  H   H1361     1.0  0.99212  0.33854  0.94934  1.0000
  H   H1362     1.0  0.98789  0.30405  0.92833  1.0000
  H   H1363     1.0  0.62429  0.17860  0.99443  1.0000
  C   C799      1.0  0.95955  0.33910  0.87375  1.0000
  C   C800      1.0  0.99325  0.46814  0.85081  1.0000
  H   H1364     1.0  0.65701  0.23191  0.81112  1.0000
  H   H1365     1.0  0.98360  0.36171  0.89267  1.0000
  H   H1366     1.0  0.85060  0.50309  0.96266  1.0000
  H   H1367     1.0  0.53636  0.04752  0.80073  1.0000
  H   H1368     1.0  0.95208  0.36395  0.90007  1.0000
  H   H1369     1.0  0.84932  0.32553  0.78858  1.0000
  H   H1370     1.0  0.77079  0.44316  0.85510  1.0000
  H   H1371     1.0  0.80054  0.36235  0.79593  1.0000
  H   H1372     1.0  0.55989  0.06337  0.81598  1.0000
  H   H1373     1.0  0.67471  0.21414  0.78002  1.0000
  H   H1374     1.0  0.53039  0.05597  0.82957  1.0000
  N   N59       1.0  0.79717  0.40908  0.83371  1.0000
  C   C801      1.0  0.92918  0.31147  0.91520  1.0000
  N   N60       1.0  0.56680  0.02631  0.85007  1.0000
  H   H1375     1.0  0.68158  0.28052  0.80170  1.0000
  H   H1376     1.0  0.67864  0.16652  0.98884  1.0000
  H   H1377     1.0  0.92149  0.32015  0.89964  1.0000
  C   C802      1.0  0.65930  0.16699  0.98270  1.0000
  C   C803      1.0  0.99615  0.39800  0.85765  1.0000
  C   C804      1.0  0.59789  0.11298  0.00406  1.0000
  H   H1378     1.0  0.77176  0.15330  0.76807  1.0000
  H   H1379     1.0  0.52944  0.02219  0.86419  1.0000
  H   H1380     1.0  0.90312  0.45715  0.95099  1.0000
  H   H1381     1.0  0.94980  0.31956  0.94589  1.0000
  C   C805      1.0  0.63939  0.28746  0.76956  1.0000
  S   S239      1.0  0.72613  0.19363  0.77932  1.0000
  C   C806      1.0  0.76256  0.43887  0.83820  1.0000
  H   H1382     1.0  0.76564  0.40170  0.87392  1.0000
  H   H1383     1.0  0.00586  0.46194  0.88543  1.0000
  Fe  Fe120     1.0  0.74399  0.22738  0.76382  1.0000
  H   H1384     1.0  0.78745  0.37199  0.83456  1.0000
  H   H1385     1.0  0.95348  0.32066  0.87526  1.0000
  H   H1386     1.0  0.93484  0.34333  0.93229  1.0000
  C   C807      1.0  0.64513  0.09496  0.00191  1.0000
  H   H1387     1.0  0.74223  0.43772  0.84134  1.0000
  S   S240      1.0  0.80926  0.29543  0.77392  1.0000
  C   C808      1.0  0.68114  0.26223  0.80813  1.0000
  C   C809      1.0  0.96646  0.35115  0.89660  1.0000
  H   H1388     1.0  0.54284  0.05022  0.86674  1.0000
  C   C810      1.0  0.67253  0.22901  0.76780  1.0000
  H   H1389     1.0  0.60094  0.04523  0.81526  1.0000
  H   H1390     1.0  0.93803  0.29512  0.91080  1.0000
  H   H1391     1.0  0.57145  0.03591  0.89823  1.0000
  H   H1392     1.0  0.97531  0.34077  0.86143  1.0000
  H   H1393     1.0  0.64804  0.21421  0.99380  1.0000
  C   C811      1.0  0.54736  0.03154  0.86773  1.0000
  C   C812      1.0  0.79668  0.38075  0.79954  1.0000
  H   H1394     1.0  0.59671  0.04380  0.86844  1.0000
  C   C813      1.0  0.52336  0.13674  0.87525  1.0000
  C   C814      1.0  0.98525  0.34997  0.93509  1.0000
  N   N61       1.0  0.97063  0.33589  0.91766  1.0000
  C   C815      1.0  0.62738  0.23509  0.77261  1.0000
  H   H1395     1.0  0.83309  0.41582  0.81741  1.0000
  C   C816      1.0  0.55424  0.02635  0.89312  1.0000
  H   H1396     1.0  0.99668  0.41165  0.92272  1.0000
  H   H1397     1.0  0.66354  0.08816  0.00101  1.0000
  H   H1398     1.0  0.61342  0.24700  0.77925  1.0000
  C   C817      1.0  0.82348  0.44806  0.83129  1.0000
  H   H1399     1.0  0.78423  0.37617  0.87162  1.0000
  H   H1400     1.0  0.94417  0.34844  0.86528  1.0000
  H   H1401     1.0  0.65597  0.15105  0.97251  1.0000
  C   C818      1.0  0.99662  0.40794  0.90453  1.0000
  C   C819      1.0  0.86163  0.40641  0.00474  1.0000
  H   H1402     1.0  0.75734  0.40162  0.83452  1.0000
  H   H1403     1.0  0.77728  0.38340  0.79403  1.0000
  H   H1404     1.0  0.80970  0.39163  0.78875  1.0000
  H   H1405     1.0  0.68256  0.26259  0.82724  1.0000
  H   H1406     1.0  0.54167  0.14421  0.87847  1.0000
  H   H1407     1.0  0.63752  0.20003  0.78632  1.0000
  C   C820      1.0  0.54496  0.04973  0.81800  1.0000
  C   C821      1.0  0.90621  0.38334  0.00367  1.0000
  C   C822      1.0  0.77088  0.41561  0.82870  1.0000
  H   H1408     1.0  0.83649  0.44511  0.84580  1.0000
  H   H1409     1.0  0.91290  0.30645  0.92620  1.0000
  C   C823      1.0  0.58736  0.04468  0.85140  1.0000
  H   H1410     1.0  0.80441  0.42672  0.86620  1.0000
  C   C824      1.0  0.97141  0.36961  0.94662  1.0000
  C   C825      1.0  0.80304  0.40898  0.85920  1.0000
  H   H1411     1.0  0.65741  0.18168  0.97012  1.0000
  C   C826      1.0  0.52071  0.11478  0.86561  1.0000
  C   C827      1.0  0.63919  0.16766  0.00170  1.0000
  H   H1412     1.0  0.84414  0.41499  0.00510  1.0000
  H   H1413     1.0  0.76667  0.45339  0.82566  1.0000
  H   H1414     1.0  0.56807  0.02026  0.81329  1.0000
  H   H1415     1.0  0.52477  0.13380  0.97039  1.0000
  H   H1416     1.0  0.53922  0.03222  0.90444  1.0000
  H   H1417     1.0  0.79086  0.39681  0.89318  1.0000
  H   H1418     1.0  0.73085  0.14086  0.76473  1.0000
  H   H1419     1.0  0.98503  0.38122  0.95553  1.0000
  H   H1420     1.0  0.55618  0.00749  0.89673  1.0000
  H   H1421     1.0  0.57968  0.12020  0.00500  1.0000
  C   C828      1.0  0.52133  0.13139  0.95172  1.0000
  H   H1422     1.0  0.85342  0.49894  0.93278  1.0000
  H   H1423     1.0  0.85145  0.46041  0.00689  1.0000
  H   H1424     1.0  0.52503  0.11325  0.94725  1.0000
  H   H1425     1.0  0.53533  0.14261  0.94228  1.0000
  C   C829      1.0  0.98565  0.31506  0.91243  1.0000
  H   H1426     1.0  0.60727  0.20149  0.77491  1.0000
  H   H1427     1.0  0.53906  0.01342  0.82615  1.0000
  H   H1428     1.0  0.69117  0.23788  0.76726  1.0000
  H   H1429     1.0  0.78061  0.18314  0.76629  1.0000
  H   H1430     1.0  0.67343  0.23007  0.00660  1.0000
  H   H1431     1.0  0.67563  0.27453  0.76274  1.0000
  C   C830      1.0  0.65708  0.21833  0.01044  1.0000
  C   C831      1.0  0.65606  0.26768  0.76233  1.0000
  Fe  Fe121     1.0  0.59806  0.88231  0.12189  1.0000
  S   S241      1.0  0.62712  0.88664  0.14957  1.0000
  S   S242      1.0  0.56181  0.86150  0.12457  1.0000
  Fe  Fe122     1.0  0.63144  0.90285  0.08385  1.0000
  S   S243      1.0  0.66366  0.90816  0.10798  1.0000
  S   S244      1.0  0.63113  0.91740  0.04723  1.0000
  Fe  Fe123     1.0  0.65333  0.87290  0.12359  1.0000
  S   S245      1.0  0.67957  0.84313  0.13030  1.0000
  Fe  Fe124     1.0  0.63526  0.92161  0.13214  1.0000
  S   S246      1.0  0.64653  0.95480  0.15003  1.0000
  S   S247      1.0  0.62367  0.86645  0.09682  1.0000
  S   S248      1.0  0.60372  0.91848  0.10712  1.0000
  Fe  Fe125     1.0  0.88252  0.64041  0.13526  1.0000
  S   S249      1.0  0.91753  0.64894  0.11497  1.0000
  S   S250      1.0  0.86930  0.67232  0.15432  1.0000
  Fe  Fe126     1.0  0.88119  0.59015  0.11829  1.0000
  S   S251      1.0  0.91536  0.59549  0.09656  1.0000
  S   S252      1.0  0.86048  0.55518  0.12038  1.0000
  Fe  Fe127     1.0  0.93078  0.61431  0.12712  1.0000
  S   S253      1.0  0.96848  0.60404  0.14025  1.0000
  Fe  Fe128     1.0  0.89927  0.62944  0.08609  1.0000
  S   S254      1.0  0.90335  0.64579  0.05029  1.0000
  S   S255      1.0  0.89745  0.60699  0.14981  1.0000
  S   S256      1.0  0.86342  0.62291  0.10528  1.0000
  Fe  Fe129     1.0  0.73736  0.77140  0.23951  1.0000
  S   S257      1.0  0.77670  0.76254  0.23108  1.0000
  S   S258      1.0  0.71659  0.80374  0.22794  1.0000
  Fe  Fe130     1.0  0.76334  0.72513  0.23500  1.0000
  S   S259      1.0  0.77251  0.69443  0.21242  1.0000
  H   H1432     1.0  0.62288  0.98292  0.06729  1.0000
  C   C832      1.0  0.89212  0.63046  0.02626  1.0000
  C   C833      1.0  0.87830  0.60957  0.02897  1.0000
  N   N62       1.0  0.85213  0.70281  0.25565  1.0000
  H   H1433     1.0  0.86481  0.67053  0.24206  1.0000
  H   H1434     1.0  0.87462  0.60237  0.04610  1.0000
  C   C834      1.0  0.88703  0.71209  0.09883  1.0000
  C   C835      1.0  0.99565  0.62041  0.13275  1.0000
  C   C836      1.0  0.64842  0.77317  0.18651  1.0000
  H   H1435     1.0  0.65472  0.96439  0.09843  1.0000
  C   C837      1.0  0.51152  0.86568  0.12216  1.0000
  C   C838      1.0  0.84161  0.67806  0.16950  1.0000
  C   C839      1.0  0.83728  0.70108  0.17565  1.0000
  C   C840      1.0  0.81608  0.70647  0.18844  1.0000
  C   C841      1.0  0.79908  0.68883  0.19551  1.0000
  C   C842      1.0  0.80317  0.66589  0.18898  1.0000
  C   C843      1.0  0.82429  0.66051  0.17606  1.0000
  H   H1436     1.0  0.85047  0.71483  0.17055  1.0000
  H   H1437     1.0  0.81280  0.72425  0.19276  1.0000
  H   H1438     1.0  0.79001  0.65212  0.19415  1.0000
  H   H1439     1.0  0.82731  0.64273  0.17147  1.0000
  C   C844      1.0  0.87886  0.53045  0.12242  1.0000
  H   H1440     1.0  0.91168  0.54770  0.10846  1.0000
  H   H1441     1.0  0.59273  0.85134  0.17113  1.0000
  C   C845      1.0  0.69089  0.83319  0.15747  1.0000
  C   C846      1.0  0.68645  0.84485  0.17786  1.0000
  C   C847      1.0  0.69469  0.83564  0.19919  1.0000
  C   C848      1.0  0.70738  0.81470  0.20044  1.0000
  C   C849      1.0  0.71199  0.80314  0.18004  1.0000
  C   C850      1.0  0.70387  0.81240  0.15869  1.0000
  H   H1442     1.0  0.67657  0.86087  0.17721  1.0000
  H   H1443     1.0  0.69106  0.84475  0.21486  1.0000
  H   H1444     1.0  0.72178  0.78706  0.18072  1.0000
  H   H1445     1.0  0.70749  0.80330  0.14302  1.0000
  H   H1446     1.0  0.98576  0.53617  0.17809  1.0000
  H   H1447     1.0  0.58079  0.77211  0.13040  1.0000
  H   H1448     1.0  0.97729  0.64769  0.11418  1.0000
  H   H1449     1.0  0.62072  0.86754  0.04342  1.0000
  H   H1450     1.0  0.83193  0.52001  0.03329  1.0000
  C   C851      1.0  0.62999  0.98035  0.14507  1.0000
  C   C852      1.0  0.60531  0.97951  0.13760  1.0000
  H   H1451     1.0  0.83830  0.75865  0.23652  1.0000
  H   H1452     1.0  0.59599  0.96291  0.13471  1.0000
  H   H1453     1.0  0.65671  0.96057  0.06839  1.0000
  S   S260      1.0  0.72319  0.73407  0.24078  1.0000
  C   C853      1.0  0.53491  0.89990  0.13422  1.0000
  H   H1454     1.0  0.81320  0.70864  0.06721  1.0000
  N   N63       1.0  0.99693  0.52306  0.14513  1.0000
  N   N64       1.0  0.53548  0.89431  0.05361  1.0000
  C   C854      1.0  0.95639  0.54371  0.15414  1.0000
  H   H1455     1.0  0.63700  0.77190  0.13979  1.0000
  H   H1456     1.0  0.88831  0.69994  0.11392  1.0000
  H   H1457     1.0  0.55243  0.90861  0.13827  1.0000
  C   C855      1.0  0.57756  0.78432  0.14453  1.0000
  H   H1458     1.0  0.87986  0.71070  0.06237  1.0000
  H   H1459     1.0  0.63474  0.75842  0.18805  1.0000
  C   C856      1.0  0.77099  0.86952  0.25621  1.0000
  H   H1460     1.0  0.86983  0.68333  0.03538  1.0000
  H   H1461     1.0  0.56088  0.90297  0.08110  1.0000
  H   H1462     1.0  0.60945  0.79612  0.11154  1.0000
  H   H1463     1.0  0.55655  0.83706  0.05838  1.0000
  H   H1464     1.0  0.81524  0.74476  0.08337  1.0000
  H   H1465     1.0  0.83263  0.73123  0.10503  1.0000
  N   N65       1.0  0.84769  0.69380  0.07904  1.0000
  C   C857      1.0  0.88210  0.69718  0.22104  1.0000
  H   H1466     1.0  0.80117  0.84319  0.22923  1.0000
  H   H1467     1.0  0.67254  0.99647  0.01756  1.0000
  H   H1468     1.0  0.90639  0.71776  0.09442  1.0000
  H   H1469     1.0  0.87718  0.72765  0.10387  1.0000
  C   C858      1.0  0.83281  0.71408  0.07088  1.0000
  H   H1470     1.0  0.54834  0.94222  0.06720  1.0000
  C   C859      1.0  0.81296  0.67843  0.10685  1.0000
  H   H1471     1.0  0.60474  0.82741  0.14058  1.0000
  C   C860      1.0  0.53436  0.87684  0.12723  1.0000
  H   H1472     1.0  0.85155  0.67007  0.10801  1.0000
  C   C861      1.0  0.85979  0.68820  0.23573  1.0000
  H   H1473     1.0  0.82058  0.71549  0.23663  1.0000
  H   H1474     1.0  0.88595  0.68369  0.07624  1.0000
  H   H1475     1.0  0.65861  0.77404  0.20318  1.0000
  C   C862      1.0  0.84056  0.68533  0.10302  1.0000
  H   H1476     1.0  0.57390  0.86123  0.06922  1.0000
  H   H1477     1.0  0.84941  0.50819  0.13655  1.0000
  H   H1478     1.0  0.80057  0.69273  0.10211  1.0000
  H   H1479     1.0  0.65111  0.81019  0.18196  1.0000
  H   H1480     1.0  0.88368  0.68595  0.20581  1.0000
  H   H1481     1.0  0.82239  0.66892  0.06267  1.0000
  N   N66       1.0  0.62066  0.79856  0.16017  1.0000
  C   C863      1.0  0.63598  0.79660  0.18195  1.0000
  C   C864      1.0  0.61430  0.82377  0.15714  1.0000
  C   C865      1.0  0.59800  0.78267  0.16310  1.0000
  H   H1482     1.0  0.53062  0.86517  0.07774  1.0000
  C   C866      1.0  0.59783  0.83340  0.17616  1.0000
  C   C867      1.0  0.83271  0.73548  0.08635  1.0000
  C   C868      1.0  0.84247  0.67393  0.06296  1.0000
  H   H1483     1.0  0.84861  0.74764  0.08219  1.0000
  C   C869      1.0  0.90350  0.53151  0.11498  1.0000
  H   H1484     1.0  0.63162  0.83489  0.15612  1.0000
  H   H1485     1.0  0.60337  0.76420  0.16355  1.0000
  H   H1486     1.0  0.58915  0.78467  0.18025  1.0000
  H   H1487     1.0  0.88015  0.71508  0.21428  1.0000
  C   C870      1.0  0.84848  0.74256  0.23346  1.0000
  H   H1488     1.0  0.83275  0.53243  0.06176  1.0000
  H   H1489     1.0  0.80148  0.68460  0.25292  1.0000
  C   C871      1.0  0.99988  0.55465  0.11205  1.0000
  H   H1490     1.0  0.58014  0.82322  0.17831  1.0000
  H   H1491     1.0  0.78787  0.87733  0.24759  1.0000
  H   H1492     1.0  0.57531  0.80199  0.13716  1.0000
  H   H1493     1.0  0.56811  0.85899  0.03858  1.0000
  C   C872      1.0  0.62430  0.89956  0.02359  1.0000
  C   C873      1.0  0.59240  0.00019  0.13468  1.0000
  H   H1494     1.0  0.60778  0.83460  0.19287  1.0000
  H   H1495     1.0  0.85212  0.65812  0.06905  1.0000
  C   C874      1.0  0.84417  0.52657  0.04722  1.0000
  H   H1496     1.0  0.73918  0.84957  0.23966  1.0000
  H   H1497     1.0  0.52607  0.91703  0.02453  1.0000
  C   C875      1.0  0.98419  0.54073  0.15936  1.0000
  H   H1498     1.0  0.58060  0.93861  0.06281  1.0000
  C   C876      1.0  0.80112  0.82733  0.24043  1.0000
  C   C877      1.0  0.65589  0.99946  0.02819  1.0000
  H   H1499     1.0  0.76302  0.82160  0.24995  1.0000
  H   H1500     1.0  0.57594  0.89847  0.05484  1.0000
  H   H1501     1.0  0.64772  0.98219  0.03338  1.0000
  H   H1502     1.0  0.67698  0.98146  0.08248  1.0000
  H   H1503     1.0  0.81001  0.67443  0.12553  1.0000
  H   H1504     1.0  0.99314  0.55828  0.15762  1.0000
  C   C878      1.0  0.62911  0.79977  0.11583  1.0000
  C   C879      1.0  0.55911  0.90602  0.06212  1.0000
  H   H1505     1.0  0.81959  0.82561  0.24869  1.0000
  H   H1506     1.0  0.95289  0.54705  0.13557  1.0000
  H   H1507     1.0  0.84681  0.66194  0.02799  1.0000
  H   H1508     1.0  0.64049  0.79095  0.10297  1.0000
  H   H1509     1.0  0.62807  0.99372  0.09534  1.0000
  H   H1510     1.0  0.65596  0.79745  0.14249  1.0000
  C   C880      1.0  0.63636  0.79119  0.14024  1.0000
  C   C881      1.0  0.61969  0.87560  0.02643  1.0000
  H   H1511     1.0  0.57087  0.89613  0.01845  1.0000
  H   H1512     1.0  0.84783  0.73920  0.21472  1.0000
  C   C882      1.0  0.65788  0.97403  0.08179  1.0000
  C   C883      1.0  0.87523  0.69975  0.07797  1.0000
  C   C884      1.0  0.99493  0.64120  0.11979  1.0000
  H   H1513     1.0  0.80740  0.66240  0.09769  1.0000
  H   H1514     1.0  0.83976  0.72079  0.05384  1.0000
  H   H1515     1.0  0.55930  0.77961  0.15253  1.0000
  H   H1516     1.0  0.84537  0.69827  0.11627  1.0000
  C   C885      1.0  0.56183  0.93243  0.05723  1.0000
  H   H1517     1.0  0.89979  0.69584  0.23071  1.0000
  C   C886      1.0  0.53551  0.86854  0.05928  1.0000
  H   H1518     1.0  0.74115  0.87977  0.23313  1.0000
  H   H1519     1.0  0.98173  0.56227  0.10784  1.0000
  H   H1520     1.0  0.63351  0.81863  0.11349  1.0000
  H   H1521     1.0  0.76244  0.86163  0.21998  1.0000
  H   H1522     1.0  0.94987  0.55898  0.16345  1.0000
  H   H1523     1.0  0.62466  0.79977  0.19751  1.0000
  H   H1524     1.0  0.94481  0.52854  0.16039  1.0000
  C   C887      1.0  0.83601  0.72229  0.24755  1.0000
  H   H1525     1.0  0.79830  0.81213  0.22920  1.0000
  H   H1526     1.0  0.51448  0.88848  0.02235  1.0000
  H   H1527     1.0  0.83833  0.69154  0.02887  1.0000
  H   H1528     1.0  0.66248  0.76965  0.17322  1.0000
  H   H1529     1.0  0.84399  0.68529  0.22367  1.0000
  H   H1530     1.0  0.51101  0.84783  0.11675  1.0000
  H   H1531     1.0  0.57317  0.99938  0.12940  1.0000
  C   C888      1.0  0.63713  0.99171  0.07832  1.0000
  H   H1532     1.0  0.85460  0.54226  0.04040  1.0000
  C   C889      1.0  0.53110  0.89871  0.02819  1.0000
  C   C890      1.0  0.84991  0.67835  0.03745  1.0000
  H   H1533     1.0  0.66077  0.00274  0.15515  1.0000
  H   H1534     1.0  0.56045  0.93684  0.03857  1.0000
  C   C891      1.0  0.75246  0.86428  0.23640  1.0000
  C   C892      1.0  0.56005  0.85608  0.05593  1.0000
  H   H1535     1.0  0.86774  0.74691  0.23862  1.0000
  H   H1536     1.0  0.51309  0.92920  0.14265  1.0000
  C   C893      1.0  0.64175  0.00199  0.14918  1.0000
  C   C894      1.0  0.86272  0.50840  0.05558  1.0000
  C   C895      1.0  0.78041  0.82701  0.25876  1.0000
  C   C896      1.0  0.99642  0.52875  0.11955  1.0000
  H   H1537     1.0  0.52102  0.85900  0.04917  1.0000
  H   H1538     1.0  0.87210  0.51546  0.07125  1.0000
  H   H1539     1.0  0.97829  0.52287  0.11215  1.0000
  H   H1540     1.0  0.88798  0.72149  0.25745  1.0000
  H   H1541     1.0  0.82128  0.66036  0.24888  1.0000
  H   H1542     1.0  0.87754  0.50834  0.04247  1.0000
  C   C897      1.0  0.55208  0.89283  0.01147  1.0000
  H   H1543     1.0  0.51811  0.90402  0.08556  1.0000
  C   C898      1.0  0.91755  0.51148  0.11557  1.0000
  H   H1544     1.0  0.93636  0.51239  0.10925  1.0000
  C   C899      1.0  0.86844  0.50913  0.13065  1.0000
  C   C900      1.0  0.51263  0.91153  0.13667  1.0000
  C   C901      1.0  0.51432  0.90445  0.06666  1.0000
  H   H1545     1.0  0.51224  0.92311  0.06190  1.0000
  H   H1546     1.0  0.85791  0.58218  0.01169  1.0000
  C   C902      1.0  0.81506  0.67324  0.26136  1.0000
  Fe  Fe131     1.0  0.60589  0.57242  0.39051  1.0000
  S   S261      1.0  0.59965  0.60171  0.36495  1.0000
  S   S262      1.0  0.58717  0.53676  0.38812  1.0000
  Fe  Fe132     1.0  0.63402  0.60378  0.42397  1.0000
  S   S263      1.0  0.63022  0.63567  0.40143  1.0000
  S   S264      1.0  0.65567  0.60434  0.45737  1.0000
  Fe  Fe133     1.0  0.59105  0.62234  0.39609  1.0000
  S   S265      1.0  0.55973  0.64678  0.39991  1.0000
  Fe  Fe134     1.0  0.63945  0.61287  0.37208  1.0000
  S   S266      1.0  0.66735  0.62232  0.34355  1.0000
  S   S267      1.0  0.59408  0.59238  0.42114  1.0000
  S   S268      1.0  0.64632  0.58158  0.39505  1.0000
  Fe  Fe135     1.0  0.87345  0.89646  0.42374  1.0000
  S   S269      1.0  0.85203  0.90556  0.39178  1.0000
  S   S270      1.0  0.86084  0.90981  0.45814  1.0000
  Fe  Fe136     1.0  0.91468  0.87618  0.39594  1.0000
  S   S271      1.0  0.89664  0.88376  0.36155  1.0000
  S   S272      1.0  0.95081  0.85865  0.40339  1.0000
  Fe  Fe137     1.0  0.88852  0.91827  0.37708  1.0000
  S   S273      1.0  0.89083  0.95294  0.35762  1.0000
  Fe  Fe138     1.0  0.86134  0.87032  0.37881  1.0000
  S   S274      1.0  0.82795  0.85006  0.36372  1.0000
  S   S275      1.0  0.90940  0.91162  0.40981  1.0000
  S   S276      1.0  0.87997  0.86025  0.41238  1.0000
  H   H1547     1.0  0.77082  0.92587  0.41740  1.0000
  S   S277      1.0  0.77206  0.72252  0.27308  1.0000
  S   S278      1.0  0.70691  0.72288  0.30840  1.0000
  H   H1548     1.0  0.57937  0.65441  0.29694  1.0000
  S   S279      1.0  0.81926  0.77603  0.28346  1.0000
  S   S280      1.0  0.74462  0.77175  0.27780  1.0000
  C   C903      1.0  0.97882  0.87277  0.39424  1.0000
  C   C904      1.0  0.97880  0.89282  0.38018  1.0000
  H   H1549     1.0  0.59790  0.68352  0.27991  1.0000
  H   H1550     1.0  0.96140  0.89986  0.37457  1.0000
  H   H1551     1.0  0.80780  0.93482  0.39526  1.0000
  C   C905      1.0  0.88960  0.97829  0.37397  1.0000
  H   H1552     1.0  0.89955  0.96161  0.40610  1.0000
  H   H1553     1.0  0.98330  0.89988  0.46574  1.0000
  C   C906      1.0  0.82658  0.82851  0.34224  1.0000
  C   C907      1.0  0.84719  0.82319  0.32898  1.0000
  C   C908      1.0  0.84479  0.80670  0.31140  1.0000
  C   C909      1.0  0.82180  0.79539  0.30684  1.0000
  C   C910      1.0  0.80131  0.80041  0.32035  1.0000
  C   C911      1.0  0.80369  0.81694  0.33785  1.0000
  H   H1554     1.0  0.86491  0.83194  0.33213  1.0000
  H   H1555     1.0  0.86079  0.80294  0.30110  1.0000
  H   H1556     1.0  0.78357  0.79169  0.31723  1.0000
  H   H1557     1.0  0.78767  0.82081  0.34808  1.0000
  C   C912      1.0  0.86903  0.87007  0.48443  1.0000
  C   C913      1.0  0.86567  0.89404  0.48414  1.0000
  C   C914      1.0  0.89171  0.99768  0.41067  1.0000
  H   H1558     1.0  0.78398  0.81234  0.27106  1.0000
  H   H1559     1.0  0.86884  0.86081  0.46841  1.0000
  H   H1560     1.0  0.91820  0.87725  0.47528  1.0000
  C   C915      1.0  0.53246  0.64105  0.38416  1.0000
  C   C916      1.0  0.53337  0.63146  0.36228  1.0000
  H   H1561     1.0  0.97318  0.85979  0.50732  1.0000
  H   H1562     1.0  0.55091  0.62672  0.35521  1.0000
  C   C917      1.0  0.80609  0.95374  0.39832  1.0000
  H   H1563     1.0  0.54275  0.56170  0.40223  1.0000
  C   C918      1.0  0.97983  0.88134  0.46140  1.0000
  H   H1564     1.0  0.63701  0.53216  0.36995  1.0000
  H   H1565     1.0  0.80492  0.66331  0.27527  1.0000
  C   C919      1.0  0.67772  0.65050  0.33387  1.0000
  C   C920      1.0  0.67261  0.67044  0.34604  1.0000
  C   C921      1.0  0.68166  0.69241  0.33795  1.0000
  C   C922      1.0  0.69615  0.69471  0.31778  1.0000
  C   C923      1.0  0.70145  0.67474  0.30575  1.0000
  C   C924      1.0  0.69228  0.65277  0.31378  1.0000
  H   H1566     1.0  0.66200  0.66895  0.36184  1.0000
  H   H1567     1.0  0.67764  0.70776  0.34747  1.0000
  H   H1568     1.0  0.71257  0.67623  0.29023  1.0000
  H   H1569     1.0  0.69653  0.63743  0.30434  1.0000
  H   H1570     1.0  0.75784  0.86114  0.30129  1.0000
  C   C925      1.0  0.63775  0.60864  0.48231  1.0000
  C   C926      1.0  0.61338  0.61592  0.48036  1.0000
  H   H1571     1.0  0.54339  0.53545  0.33905  1.0000
  H   H1572     1.0  0.60547  0.61924  0.46353  1.0000
  H   H1573     1.0  0.70417  0.59912  0.37973  1.0000
  H   H1574     1.0  0.69213  0.58897  0.42212  1.0000
  N   N67       1.0  0.77800  0.84926  0.27165  1.0000
  H   H1575     1.0  0.70934  0.66773  0.42266  1.0000
  H   H1576     1.0  0.54047  0.66529  0.30925  1.0000
  H   H1577     1.0  0.73550  0.59479  0.38792  1.0000
  H   H1578     1.0  0.62016  0.63032  0.32420  1.0000
  H   H1579     1.0  0.60762  0.62386  0.29676  1.0000
  H   H1580     1.0  0.72729  0.64412  0.45222  1.0000
  H   H1581     1.0  0.69581  0.67250  0.39442  1.0000
  N   N68       1.0  0.59203  0.67333  0.32721  1.0000
  C   C927      1.0  0.60225  0.66661  0.35059  1.0000
  C   C928      1.0  0.58852  0.65132  0.31379  1.0000
  C   C929      1.0  0.56731  0.68429  0.33105  1.0000
  C   C930      1.0  0.61031  0.69043  0.31588  1.0000
  C   C931      1.0  0.60545  0.68652  0.36790  1.0000
  C   C932      1.0  0.61230  0.63838  0.30845  1.0000
  C   C933      1.0  0.54831  0.68325  0.31117  1.0000
  C   C934      1.0  0.60519  0.69780  0.29064  1.0000
  H   H1582     1.0  0.59013  0.65287  0.35901  1.0000
  H   H1583     1.0  0.62073  0.65890  0.34905  1.0000
  H   H1584     1.0  0.59246  0.71253  0.28975  1.0000
  H   H1585     1.0  0.57569  0.63883  0.32320  1.0000
  H   H1586     1.0  0.55746  0.67588  0.34617  1.0000
  H   H1587     1.0  0.57002  0.70292  0.33549  1.0000
  H   H1588     1.0  0.61133  0.70693  0.32547  1.0000
  H   H1589     1.0  0.62967  0.68436  0.31705  1.0000
  H   H1590     1.0  0.72191  0.83416  0.30006  1.0000
  H   H1591     1.0  0.62012  0.69945  0.36239  1.0000
  H   H1592     1.0  0.58786  0.69523  0.37122  1.0000
  Fe  Fe139     1.0  0.78277  0.76061  0.26961  1.0000
  H   H1593     1.0  0.62663  0.64963  0.29962  1.0000
  C   C935      1.0  0.95538  0.84558  0.46877  1.0000
  H   H1594     1.0  0.51212  0.57783  0.42973  1.0000
  H   H1595     1.0  0.62305  0.70343  0.28233  1.0000
  C   C936      1.0  0.80406  0.87495  0.29961  1.0000
  H   H1596     1.0  0.73154  0.82253  0.27365  1.0000
  C   C937      1.0  0.87227  0.85798  0.50555  1.0000
  N   N69       1.0  0.81201  0.95916  0.42320  1.0000
  C   C938      1.0  0.80298  0.93862  0.43801  1.0000
  C   C939      1.0  0.83962  0.96179  0.42680  1.0000
  H   H1597     1.0  0.54994  0.56187  0.35344  1.0000
  C   C940      1.0  0.79872  0.98033  0.43057  1.0000
  H   H1598     1.0  0.82380  0.87950  0.30354  1.0000
  C   C941      1.0  0.86957  0.72709  0.28927  1.0000
  C   C942      1.0  0.80713  0.00385  0.41925  1.0000
  H   H1599     1.0  0.85993  0.74300  0.28381  1.0000
  H   H1600     1.0  0.81403  0.92306  0.43447  1.0000
  H   H1601     1.0  0.80564  0.94195  0.45666  1.0000
  C   C943      1.0  0.86561  0.90582  0.50505  1.0000
  H   H1602     1.0  0.84881  0.94536  0.42280  1.0000
  C   C944      1.0  0.75953  0.84524  0.29099  1.0000
  H   H1603     1.0  0.91479  0.83955  0.47386  1.0000
  H   H1604     1.0  0.77856  0.97839  0.42673  1.0000
  H   H1605     1.0  0.79928  0.98216  0.44965  1.0000
  C   C945      1.0  0.51152  0.62845  0.34936  1.0000
  H   H1606     1.0  0.78645  0.95753  0.39421  1.0000
  H   H1607     1.0  0.97624  0.88139  0.44247  1.0000
  C   C946      1.0  0.93262  0.83168  0.47840  1.0000
  H   H1608     1.0  0.76281  0.94470  0.44075  1.0000
  H   H1609     1.0  0.97324  0.89027  0.50327  1.0000
  H   H1610     1.0  0.82412  0.98505  0.38124  1.0000
  H   H1611     1.0  0.88753  0.73295  0.29698  1.0000
  H   H1612     1.0  0.53245  0.69419  0.31542  1.0000
  H   H1613     1.0  0.84168  0.95709  0.46495  1.0000
  H   H1614     1.0  0.86876  0.96933  0.45164  1.0000
  C   C947      1.0  0.87470  0.71145  0.26871  1.0000
  C   C948      1.0  0.80300  0.85490  0.28242  1.0000
  C   C949      1.0  0.83694  0.68729  0.27209  1.0000
  H   H1615     1.0  0.00126  0.91872  0.36156  1.0000
  H   H1616     1.0  0.96598  0.98334  0.39272  1.0000
  H   H1617     1.0  0.54542  0.59527  0.50198  1.0000
  C   C950      1.0  0.60530  0.51242  0.38319  1.0000
  H   H1618     1.0  0.82617  0.72996  0.26223  1.0000
  H   H1619     1.0  0.00167  0.84820  0.41215  1.0000
  H   H1620     1.0  0.89497  0.99696  0.42907  1.0000
  H   H1621     1.0  0.72350  0.85290  0.27524  1.0000
  C   C951      1.0  0.00154  0.86379  0.40138  1.0000
  H   H1622     1.0  0.87974  0.00001  0.34482  1.0000
  H   H1623     1.0  0.82870  0.69757  0.28599  1.0000
  C   C952      1.0  0.75400  0.63253  0.36797  1.0000
  C   C953      1.0  0.00139  0.90350  0.37285  1.0000
  C   C954      1.0  0.53462  0.54976  0.34820  1.0000
  C   C955      1.0  0.71772  0.60147  0.39414  1.0000
  H   H1624     1.0  0.76006  0.64566  0.35459  1.0000
  H   H1625     1.0  0.84097  0.95862  0.37913  1.0000
  Fe  Fe140     1.0  0.73299  0.73374  0.27856  1.0000
  N   N70       1.0  0.95768  0.87101  0.47448  1.0000
  H   H1626     1.0  0.79543  0.86955  0.31638  1.0000
  H   H1627     1.0  0.53423  0.59940  0.41957  1.0000
  H   H1628     1.0  0.79546  0.89081  0.29258  1.0000
  H   H1629     1.0  0.87472  0.83942  0.50570  1.0000
  H   H1630     1.0  0.74470  0.61876  0.45463  1.0000
  C   C956      1.0  0.95625  0.99952  0.38821  1.0000
  C   C957      1.0  0.93650  0.90985  0.46639  1.0000
  C   C958      1.0  0.72932  0.63999  0.37847  1.0000
  C   C959      1.0  0.59928  0.61934  0.50025  1.0000
  C   C960      1.0  0.73006  0.62710  0.44417  1.0000
  C   C961      1.0  0.82226  0.96602  0.37944  1.0000
  C   C962      1.0  0.73935  0.63058  0.41897  1.0000
  H   H1631     1.0  0.81388  0.96271  0.36227  1.0000
  H   H1632     1.0  0.76907  0.63154  0.38093  1.0000
  H   H1633     1.0  0.95521  0.84352  0.44972  1.0000
  H   H1634     1.0  0.75167  0.61580  0.35898  1.0000
  C   C963      1.0  0.69536  0.63568  0.40574  1.0000
  H   H1635     1.0  0.70657  0.56688  0.40676  1.0000
  H   H1636     1.0  0.74734  0.64868  0.41775  1.0000
  H   H1637     1.0  0.61140  0.67920  0.38480  1.0000
  H   H1638     1.0  0.71308  0.61603  0.44656  1.0000
  C   C964      1.0  0.88325  0.99937  0.36320  1.0000
  C   C965      1.0  0.89432  0.97764  0.39768  1.0000
  C   C966      1.0  0.70975  0.58447  0.41390  1.0000
  C   C967      1.0  0.73277  0.83832  0.28413  1.0000
  H   H1639     1.0  0.53638  0.58380  0.38172  1.0000
  C   C968      1.0  0.77539  0.93109  0.43524  1.0000
  H   H1640     1.0  0.75526  0.61904  0.41670  1.0000
  H   H1641     1.0  0.94054  0.99446  0.37686  1.0000
  C   C969      1.0  0.69458  0.66187  0.41063  1.0000
  H   H1642     1.0  0.77144  0.91556  0.44658  1.0000
  H   H1643     1.0  0.67650  0.66549  0.41870  1.0000
  H   H1644     1.0  0.85889  0.71777  0.30317  1.0000
  H   H1645     1.0  0.94441  0.91623  0.48280  1.0000
  H   H1646     1.0  0.91753  0.91659  0.46454  1.0000
  H   H1647     1.0  0.68671  0.62630  0.42070  1.0000
  H   H1648     1.0  0.71511  0.63868  0.36457  1.0000
  H   H1649     1.0  0.73194  0.65887  0.38176  1.0000
  H   H1650     1.0  0.51837  0.62702  0.50810  1.0000
  H   H1651     1.0  0.72454  0.58294  0.42709  1.0000
  N   N71       1.0  0.72052  0.62682  0.39999  1.0000
  H   H1652     1.0  0.68225  0.63223  0.39129  1.0000
  H   H1653     1.0  0.58058  0.62525  0.49849  1.0000
  H   H1654     1.0  0.86290  0.92434  0.50494  1.0000
  H   H1655     1.0  0.84805  0.97481  0.41470  1.0000
  H   H1656     1.0  0.93114  0.87833  0.44743  1.0000
  C   C970      1.0  0.96195  0.87409  0.50004  1.0000
  H   H1657     1.0  0.88541  0.69647  0.27533  1.0000
  H   H1658     1.0  0.00497  0.85241  0.45696  1.0000
  H   H1659     1.0  0.81713  0.85954  0.26896  1.0000
  H   H1660     1.0  0.66683  0.59938  0.50600  1.0000
  H   H1661     1.0  0.84263  0.98718  0.45469  1.0000
  H   H1662     1.0  0.94765  0.91729  0.45172  1.0000
  C   C971      1.0  0.84818  0.96929  0.45102  1.0000
  C   C972      1.0  0.64796  0.60494  0.50436  1.0000
  C   C973      1.0  0.93506  0.88306  0.46565  1.0000
  C   C974      1.0  0.62913  0.51497  0.37381  1.0000
  H   H1663     1.0  0.76602  0.83152  0.30322  1.0000
  H   H1664     1.0  0.55606  0.68984  0.29453  1.0000
  H   H1665     1.0  0.97172  0.83609  0.47518  1.0000
  H   H1666     1.0  0.84887  0.67443  0.28099  1.0000
  H   H1667     1.0  0.93205  0.81423  0.47059  1.0000
  H   H1668     1.0  0.93422  0.82856  0.49726  1.0000
  C   C975      1.0  0.52737  0.57202  0.39496  1.0000
  H   H1669     1.0  0.52238  0.55853  0.33562  1.0000
  H   H1670     1.0  0.81014  0.83942  0.29169  1.0000
  H   H1671     1.0  0.51228  0.62147  0.33223  1.0000
  H   H1672     1.0  0.53399  0.52943  0.37944  1.0000
  C   C976      1.0  0.52023  0.53931  0.36921  1.0000
  H   H1673     1.0  0.00896  0.86715  0.48416  1.0000
  C   C977      1.0  0.00468  0.86941  0.46555  1.0000
  H   H1674     1.0  0.51588  0.51347  0.41095  1.0000
  C   C978      1.0  0.51844  0.58785  0.41415  1.0000
  H   H1675     1.0  0.76331  0.88357  0.26663  1.0000
  H   H1676     1.0  0.52202  0.53843  0.42866  1.0000
  H   H1677     1.0  0.82736  0.00583  0.41633  1.0000
  C   C979      1.0  0.50957  0.64687  0.39338  1.0000
  Fe  Fe141     1.0  0.62609  0.63817  0.62624  1.0000
  S   S281      1.0  0.59040  0.64339  0.60671  1.0000
  S   S282      1.0  0.64703  0.67142  0.63704  1.0000
  Fe  Fe142     1.0  0.61958  0.58529  0.62427  1.0000
  S   S283      1.0  0.58368  0.58657  0.60489  1.0000
  S   S284      1.0  0.63287  0.55155  0.63995  1.0000
  Fe  Fe143     1.0  0.60270  0.61517  0.58372  1.0000
  S   S285      1.0  0.59036  0.61956  0.54656  1.0000
  Fe  Fe144     1.0  0.57415  0.61461  0.62902  1.0000
  S   S286      1.0  0.53648  0.61312  0.64612  1.0000
  S   S287      1.0  0.63984  0.61195  0.60126  1.0000
  S   S288      1.0  0.60865  0.61135  0.65035  1.0000
  Fe  Fe145     1.0  0.91677  0.89491  0.62003  1.0000
  S   S289      1.0  0.88672  0.90255  0.64519  1.0000
  S   S290      1.0  0.95526  0.90825  0.62946  1.0000
  Fe  Fe146     1.0  0.87985  0.87434  0.58567  1.0000
  S   S291      1.0  0.84683  0.88080  0.60807  1.0000
  S   S292      1.0  0.87666  0.85415  0.55264  1.0000
  Fe  Fe147     1.0  0.86633  0.91546  0.61398  1.0000
  S   S293      1.0  0.84646  0.94939  0.61435  1.0000
  Fe  Fe148     1.0  0.86999  0.86733  0.63740  1.0000
  S   S294      1.0  0.85969  0.84028  0.66564  1.0000
  S   S295      1.0  0.89731  0.91006  0.58917  1.0000
  S   S296      1.0  0.90204  0.85862  0.61459  1.0000
  C   C980      1.0  0.90610  0.99379  0.62060  1.0000
  S   S297      1.0  0.76132  0.73782  0.73490  1.0000
  S   S298      1.0  0.70040  0.69513  0.73252  1.0000
  Fe  Fe149     1.0  0.75017  0.77500  0.73699  1.0000
  S   S299      1.0  0.75636  0.80439  0.71004  1.0000
  S   S300      1.0  0.70992  0.76470  0.74354  1.0000
  C   C981      1.0  0.87237  0.86981  0.52646  1.0000
  H   H1678     1.0  0.57097  0.62773  0.68257  1.0000
  C   C982      1.0  0.52632  0.61876  0.52392  1.0000
  H   H1679     1.0  0.86906  0.90303  0.54215  1.0000
  C   C983      1.0  0.98166  0.89445  0.61926  1.0000
  C   C984      1.0  0.97992  0.87253  0.60937  1.0000
  H   H1680     1.0  0.69022  0.84966  0.69759  1.0000
  H   H1681     1.0  0.96198  0.86378  0.60752  1.0000
  C   C985      1.0  0.69605  0.84113  0.71401  1.0000
  C   C986      1.0  0.83066  0.83086  0.67775  1.0000
  C   C987      1.0  0.83009  0.81237  0.69409  1.0000
  C   C988      1.0  0.80755  0.80403  0.70406  1.0000
  C   C989      1.0  0.78525  0.81410  0.69780  1.0000
  C   C990      1.0  0.78577  0.83254  0.68136  1.0000
  C   C991      1.0  0.80834  0.84090  0.67137  1.0000
  H   H1682     1.0  0.84722  0.80444  0.69911  1.0000
  H   H1683     1.0  0.80747  0.78983  0.71665  1.0000
  H   H1684     1.0  0.76862  0.84044  0.67637  1.0000
  H   H1685     1.0  0.80846  0.85510  0.65881  1.0000
  C   C992      1.0  0.86544  0.97464  0.61742  1.0000
  H   H1686     1.0  0.75714  0.68692  0.74042  1.0000
  H   H1687     1.0  0.71633  0.83892  0.71266  1.0000
  H   H1688     1.0  0.74120  0.85303  0.74243  1.0000
  H   H1689     1.0  0.68669  0.82376  0.71491  1.0000
  H   H1690     1.0  0.77435  0.66209  0.73265  1.0000
  H   H1691     1.0  0.53297  0.65442  0.61662  1.0000
  C   C993      1.0  0.68962  0.85670  0.73434  1.0000
  C   C994      1.0  0.63049  0.52738  0.59937  1.0000
  H   H1692     1.0  0.53326  0.57761  0.57880  1.0000
  H   H1693     1.0  0.62680  0.54379  0.59078  1.0000
  C   C995      1.0  0.88597  0.96261  0.71830  1.0000
  H   H1694     1.0  0.79121  0.60367  0.75420  1.0000
  C   C996      1.0  0.63374  0.60820  0.52433  1.0000
  H   H1695     1.0  0.83353  0.94626  0.67460  1.0000
  H   H1696     1.0  0.64165  0.60517  0.54125  1.0000
  C   C997      1.0  0.86911  0.89379  0.52614  1.0000
  C   C998      1.0  0.66307  0.67714  0.66323  1.0000
  C   C999      1.0  0.67360  0.69953  0.66655  1.0000
  C   C1000     1.0  0.68532  0.70531  0.68751  1.0000
  C   C1001     1.0  0.68654  0.68874  0.70547  1.0000
  C   C1002     1.0  0.67601  0.66635  0.70217  1.0000
  C   C1003     1.0  0.66442  0.66053  0.68115  1.0000
  H   H1697     1.0  0.67261  0.71253  0.65282  1.0000
  H   H1698     1.0  0.69331  0.72260  0.68980  1.0000
  H   H1699     1.0  0.67688  0.65338  0.71592  1.0000
  H   H1700     1.0  0.65656  0.64320  0.67881  1.0000
  N   N72       1.0  0.82770  0.80083  0.59538  1.0000
  C   C1004     1.0  0.83890  0.79123  0.57395  1.0000
  C   C1005     1.0  0.84784  0.81455  0.60773  1.0000
  C   C1006     1.0  0.80682  0.81666  0.58953  1.0000
  C   C1007     1.0  0.81741  0.78094  0.61026  1.0000
  C   C1008     1.0  0.82081  0.77798  0.55787  1.0000
  C   C1009     1.0  0.86709  0.80001  0.62083  1.0000
  C   C1010     1.0  0.81285  0.83600  0.57132  1.0000
  C   C1011     1.0  0.80593  0.78769  0.63347  1.0000
  H   H1701     1.0  0.84853  0.80529  0.56342  1.0000
  H   H1702     1.0  0.85369  0.77897  0.57855  1.0000
  H   H1703     1.0  0.84000  0.82665  0.62024  1.0000
  H   H1704     1.0  0.85847  0.82619  0.59538  1.0000
  H   H1705     1.0  0.79015  0.80661  0.58347  1.0000
  H   H1706     1.0  0.80049  0.82547  0.60528  1.0000
  H   H1707     1.0  0.80231  0.77129  0.60108  1.0000
  H   H1708     1.0  0.83145  0.76753  0.61357  1.0000
  H   H1709     1.0  0.83097  0.77343  0.54204  1.0000
  H   H1710     1.0  0.81376  0.76138  0.56591  1.0000
  H   H1711     1.0  0.80505  0.78854  0.55218  1.0000
  H   H1712     1.0  0.85879  0.79085  0.63617  1.0000
  H   H1713     1.0  0.87602  0.78746  0.60963  1.0000
  H   H1714     1.0  0.88202  0.81180  0.62748  1.0000
  H   H1715     1.0  0.79694  0.84766  0.56984  1.0000
  H   H1716     1.0  0.81597  0.82900  0.55396  1.0000
  H   H1717     1.0  0.82923  0.84684  0.57622  1.0000
  H   H1718     1.0  0.78568  0.79019  0.63169  1.0000
  H   H1719     1.0  0.81445  0.80368  0.64056  1.0000
  H   H1720     1.0  0.80900  0.77383  0.64674  1.0000
  H   H1721     1.0  0.62913  0.50789  0.56809  1.0000
  C   C1012     1.0  0.51463  0.64653  0.61875  1.0000
  H   H1722     1.0  0.72920  0.65684  0.74710  1.0000
  H   H1723     1.0  0.54001  0.51583  0.64996  1.0000
  C   C1013     1.0  0.51134  0.62601  0.63195  1.0000
  C   C1014     1.0  0.53582  0.67117  0.69182  1.0000
  H   H1724     1.0  0.52257  0.67900  0.55784  1.0000
  H   H1725     1.0  0.83451  0.99664  0.62231  1.0000
  H   H1726     1.0  0.86477  0.92902  0.72010  1.0000
  H   H1727     1.0  0.55923  0.53613  0.63369  1.0000
  N   N73       1.0  0.89279  0.96356  0.69307  1.0000
  C   C1015     1.0  0.85450  0.99587  0.62159  1.0000
  C   C1016     1.0  0.59496  0.65604  0.69671  1.0000
  H   H1728     1.0  0.94647  0.94265  0.66718  1.0000
  H   H1729     1.0  0.54073  0.66423  0.53768  1.0000
  C   C1017     1.0  0.92952  0.95307  0.66675  1.0000
  C   C1018     1.0  0.87334  0.95172  0.67832  1.0000
  H   H1730     1.0  0.89728  0.98974  0.66594  1.0000
  H   H1731     1.0  0.83310  0.99405  0.55817  1.0000
  H   H1732     1.0  0.87866  0.95319  0.65986  1.0000
  H   H1733     1.0  0.90111  0.97096  0.72866  1.0000
  H   H1734     1.0  0.86675  0.96911  0.55159  1.0000
  C   C1019     1.0  0.84678  0.96059  0.67936  1.0000
  C   C1020     1.0  0.91658  0.95070  0.69052  1.0000
  H   H1735     1.0  0.55384  0.70074  0.65316  1.0000
  H   H1736     1.0  0.69072  0.64280  0.76062  1.0000
  H   H1737     1.0  0.87195  0.98036  0.52259  1.0000
  C   C1021     1.0  0.89129  0.97372  0.61662  1.0000
  C   C1022     1.0  0.66042  0.81216  0.75420  1.0000
  H   H1738     1.0  0.89991  0.95745  0.61333  1.0000
  H   H1739     1.0  0.56361  0.68207  0.71677  1.0000
  H   H1740     1.0  0.54540  0.58636  0.53147  1.0000
  H   H1741     1.0  0.54021  0.61497  0.56680  1.0000
  C   C1023     1.0  0.51621  0.58420  0.57052  1.0000
  H   H1742     1.0  0.91782  0.94611  0.65265  1.0000
  H   H1743     1.0  0.62765  0.69023  0.71444  1.0000
  H   H1744     1.0  0.59950  0.70474  0.72214  1.0000
  H   H1745     1.0  0.59461  0.71292  0.67797  1.0000
  H   H1746     1.0  0.86068  0.00295  0.69080  1.0000
  H   H1747     1.0  0.52489  0.68177  0.67950  1.0000
  H   H1748     1.0  0.51287  0.57369  0.55511  1.0000
  H   H1749     1.0  0.56319  0.63595  0.71167  1.0000
  H   H1750     1.0  0.55761  0.70273  0.69437  1.0000
  C   C1024     1.0  0.56073  0.68393  0.69780  1.0000
  H   H1751     1.0  0.92611  0.99284  0.62048  1.0000
  C   C1025     1.0  0.77338  0.67643  0.74495  1.0000
  H   H1752     1.0  0.71155  0.81587  0.74753  1.0000
  H   H1753     1.0  0.91337  0.93168  0.69374  1.0000
  H   H1754     1.0  0.65403  0.81601  0.73641  1.0000
  H   H1755     1.0  0.52430  0.66935  0.70767  1.0000
  N   N74       1.0  0.58351  0.67677  0.68504  1.0000
  H   H1756     1.0  0.86942  0.97280  0.72185  1.0000
  C   C1026     1.0  0.63439  0.52650  0.62321  1.0000
  H   H1757     1.0  0.87230  0.93261  0.68168  1.0000
  C   C1027     1.0  0.56921  0.69171  0.64502  1.0000
  H   H1758     1.0  0.00651  0.92260  0.62917  1.0000
  H   H1759     1.0  0.53725  0.65347  0.68513  1.0000
  C   C1028     1.0  0.57846  0.63377  0.69922  1.0000
  H   H1760     1.0  0.70145  0.87281  0.73181  1.0000
  H   H1761     1.0  0.67030  0.86237  0.73150  1.0000
  C   C1029     1.0  0.52841  0.66150  0.55288  1.0000
  H   H1762     1.0  0.87502  0.93977  0.74720  1.0000
  H   H1763     1.0  0.58985  0.61954  0.70627  1.0000
  H   H1764     1.0  0.89702  0.92722  0.72883  1.0000
  H   H1765     1.0  0.53910  0.65438  0.56762  1.0000
  C   C1030     1.0  0.89777  0.98845  0.68502  1.0000
  H   H1766     1.0  0.93054  0.95651  0.70356  1.0000
  C   C1031     1.0  0.60258  0.69669  0.68508  1.0000
  H   H1767     1.0  0.60076  0.65995  0.71463  1.0000
  Fe  Fe150     1.0  0.72182  0.72781  0.74426  1.0000
  H   H1768     1.0  0.67476  0.79894  0.75447  1.0000
  C   C1032     1.0  0.60930  0.61538  0.52229  1.0000
  H   H1769     1.0  0.61832  0.69315  0.67348  1.0000
  C   C1033     1.0  0.53369  0.59411  0.51774  1.0000
  C   C1034     1.0  0.85791  0.97743  0.53630  1.0000
  C   C1035     1.0  0.55896  0.51898  0.64296  1.0000
  H   H1770     1.0  0.58465  0.70434  0.64077  1.0000
  H   H1771     1.0  0.56480  0.65665  0.65820  1.0000
  H   H1772     1.0  0.84382  0.96462  0.52986  1.0000
  C   C1036     1.0  0.57838  0.67132  0.66013  1.0000
  C   C1037     1.0  0.88048  0.93812  0.72886  1.0000
  C   C1038     1.0  0.51992  0.61070  0.56597  1.0000
  H   H1773     1.0  0.56231  0.68496  0.62833  1.0000
  H   H1774     1.0  0.61214  0.65149  0.68743  1.0000
  H   H1775     1.0  0.62425  0.71998  0.70692  1.0000
  C   C1039     1.0  0.61384  0.70302  0.70869  1.0000
  H   H1776     1.0  0.54414  0.62835  0.52702  1.0000
  H   H1777     1.0  0.59552  0.66524  0.65185  1.0000
  H   H1778     1.0  0.79014  0.68804  0.74257  1.0000
  H   H1779     1.0  0.84439  0.97527  0.66689  1.0000
  C   C1040     1.0  0.84489  0.99976  0.54311  1.0000
  H   H1780     1.0  0.84100  0.96558  0.69675  1.0000
  C   C1041     1.0  0.00154  0.86173  0.60222  1.0000
  H   H1781     1.0  0.75317  0.82698  0.75490  1.0000
  H   H1782     1.0  0.51757  0.58249  0.51373  1.0000
  H   H1783     1.0  0.94461  0.87553  0.53390  1.0000
  H   H1784     1.0  0.91683  0.99456  0.69005  1.0000
  H   H1785     1.0  0.93570  0.97121  0.66235  1.0000
  H   H1786     1.0  0.92541  0.86076  0.51365  1.0000
  H   H1787     1.0  0.89596  0.00276  0.54763  1.0000
  N   N75       1.0  0.69252  0.84651  0.75845  1.0000
  H   H1788     1.0  0.57264  0.52079  0.65718  1.0000
  H   H1789     1.0  0.00015  0.84467  0.59484  1.0000
  C   C1042     1.0  0.00503  0.90561  0.62162  1.0000
  H   H1790     1.0  0.51173  0.61895  0.58118  1.0000
  C   C1043     1.0  0.73976  0.84086  0.75751  1.0000
  C   C1044     1.0  0.71341  0.82980  0.76032  1.0000
  H   H1791     1.0  0.88131  0.00156  0.57489  1.0000
  H   H1792     1.0  0.75325  0.62500  0.74563  1.0000
  H   H1793     1.0  0.79797  0.63366  0.74823  1.0000
  H   H1794     1.0  0.92887  0.89188  0.51234  1.0000
  C   C1045     1.0  0.63181  0.50702  0.58657  1.0000
  C   C1046     1.0  0.93875  0.87555  0.51551  1.0000
  C   C1047     1.0  0.78896  0.62138  0.76091  1.0000
  H   H1795     1.0  0.83161  0.00414  0.52906  1.0000
  Fe  Fe151     1.0  0.57742  0.87945  0.88216  1.0000
  S   S301      1.0  0.60574  0.85379  0.89343  1.0000
  S   S302      1.0  0.54127  0.86694  0.86640  1.0000
  Fe  Fe152     1.0  0.60674  0.92087  0.90106  1.0000
  S   S303      1.0  0.63767  0.89871  0.91376  1.0000
  S   S304      1.0  0.59886  0.95731  0.91211  1.0000
  Fe  Fe153     1.0  0.63375  0.88041  0.87968  1.0000
  S   S305      1.0  0.66929  0.87133  0.86065  1.0000
  Fe  Fe154     1.0  0.60749  0.87371  0.92628  1.0000
  S   S306      1.0  0.60585  0.85495  0.96104  1.0000
  S   S307      1.0  0.60504  0.90501  0.86591  1.0000
  S   S308      1.0  0.57694  0.89684  0.91608  1.0000
  Fe  Fe155     1.0  0.88212  0.58681  0.88001  1.0000
  S   S309      1.0  0.84614  0.59409  0.89727  1.0000
  S   S310      1.0  0.89282  0.55472  0.86124  1.0000
  Fe  Fe156     1.0  0.90670  0.63197  0.89526  1.0000
  S   S311      1.0  0.87278  0.64307  0.91398  1.0000
  S   S312      1.0  0.94191  0.65443  0.89602  1.0000
  Fe  Fe157     1.0  0.86991  0.60606  0.92695  1.0000
  S   S313      1.0  0.86120  0.59263  0.96321  1.0000
  Fe  Fe158     1.0  0.85173  0.63068  0.88264  1.0000
  S   S314      1.0  0.81807  0.65061  0.87001  1.0000
  S   S315      1.0  0.90549  0.59598  0.91073  1.0000
  S   S316      1.0  0.88609  0.62232  0.86295  1.0000
  H   H1796     1.0  0.82326  0.52760  0.93841  1.0000
  H   H1797     1.0  0.67000  0.82977  0.78528  1.0000
  S   S317      1.0  0.68993  0.77908  0.80536  1.0000
  H   H1798     1.0  0.71080  0.61949  0.76727  1.0000
  S   S318      1.0  0.80348  0.72280  0.78595  1.0000
  H   H1799     1.0  0.59718  0.00317  0.92889  1.0000
  C   C1048     1.0  0.96802  0.64146  0.88444  1.0000
  C   C1049     1.0  0.96611  0.61921  0.87534  1.0000
  H   H1800     1.0  0.76696  0.68302  0.78065  1.0000
  H   H1801     1.0  0.96962  0.58804  0.95865  1.0000
  C   C1050     1.0  0.64532  0.00459  0.87939  1.0000
  H   H1802     1.0  0.94826  0.61007  0.87456  1.0000
  H   H1803     1.0  0.52133  0.91471  0.94351  1.0000
  C   C1051     1.0  0.81457  0.67070  0.84654  1.0000
  C   C1052     1.0  0.83226  0.67363  0.82899  1.0000
  C   C1053     1.0  0.82860  0.68971  0.81066  1.0000
  C   C1054     1.0  0.80697  0.70265  0.80933  1.0000
  C   C1055     1.0  0.78896  0.69927  0.82653  1.0000
  C   C1056     1.0  0.79285  0.68351  0.84509  1.0000
  H   H1804     1.0  0.84853  0.66325  0.82941  1.0000
  H   H1805     1.0  0.84243  0.69192  0.79722  1.0000
  H   H1806     1.0  0.77223  0.70907  0.82574  1.0000
  H   H1807     1.0  0.77891  0.68120  0.85843  1.0000
  C   C1057     1.0  0.87340  0.60744  0.98719  1.0000
  C   C1058     1.0  0.88741  0.62822  0.98447  1.0000
  C   C1059     1.0  0.55907  0.98179  0.85520  1.0000
  H   H1808     1.0  0.89086  0.63555  0.96737  1.0000
  C   C1060     1.0  0.87760  0.52785  0.86791  1.0000
  C   C1061     1.0  0.72298  0.83179  0.95685  1.0000
  C   C1062     1.0  0.85431  0.52674  0.87852  1.0000
  C   C1063     1.0  0.57762  0.00290  0.85462  1.0000
  H   H1809     1.0  0.84478  0.54256  0.88163  1.0000
  C   C1064     1.0  0.61273  0.87232  0.98500  1.0000
  C   C1065     1.0  0.90995  0.67567  0.84049  1.0000
  C   C1066     1.0  0.61724  0.89627  0.98220  1.0000
  C   C1067     1.0  0.94822  0.61905  0.95829  1.0000
  H   H1810     1.0  0.61635  0.90441  0.96521  1.0000
  C   C1068     1.0  0.67501  0.84505  0.84632  1.0000
  C   C1069     1.0  0.65658  0.82765  0.84358  1.0000
  C   C1070     1.0  0.66175  0.80739  0.83151  1.0000
  C   C1071     1.0  0.68537  0.80418  0.82203  1.0000
  C   C1072     1.0  0.70401  0.82133  0.82529  1.0000
  C   C1073     1.0  0.69879  0.84165  0.83728  1.0000
  H   H1811     1.0  0.63821  0.82992  0.85045  1.0000
  H   H1812     1.0  0.64719  0.79424  0.82916  1.0000
  H   H1813     1.0  0.72238  0.81901  0.81849  1.0000
  H   H1814     1.0  0.71326  0.85491  0.83945  1.0000
  H   H1815     1.0  0.96412  0.73567  0.85897  1.0000
  C   C1074     1.0  0.61632  0.98274  0.90437  1.0000
  C   C1075     1.0  0.63394  0.98325  0.88667  1.0000
  H   H1816     1.0  0.92853  0.52812  0.90339  1.0000
  H   H1817     1.0  0.63834  0.96736  0.87825  1.0000
  H   H1818     1.0  0.72954  0.87133  0.89268  1.0000
  C   C1076     1.0  0.61068  0.00347  0.91510  1.0000
  H   H1819     1.0  0.88127  0.70495  0.82269  1.0000
  C   C1077     1.0  0.52027  0.90804  0.87754  1.0000
  H   H1820     1.0  0.56577  0.96843  0.86767  1.0000
  H   H1821     1.0  0.77178  0.63651  0.83257  1.0000
  H   H1822     1.0  0.86378  0.69695  0.88940  1.0000
  H   H1823     1.0  0.53883  0.91438  0.88165  1.0000
  H   H1824     1.0  0.73142  0.84918  0.95285  1.0000
  H   H1825     1.0  0.71462  0.87683  0.76880  1.0000
  H   H1826     1.0  0.94763  0.69616  0.86149  1.0000
  C   C1078     1.0  0.99122  0.65323  0.88509  1.0000
  H   H1827     1.0  0.79935  0.62226  0.77730  1.0000
  C   C1079     1.0  0.76095  0.62564  0.76347  1.0000
  H   H1828     1.0  0.54964  0.84492  0.92601  1.0000
  C   C1080     1.0  0.67728  0.88320  0.77838  1.0000
  H   H1829     1.0  0.71285  0.82037  0.77729  1.0000
  H   H1830     1.0  0.99823  0.63872  0.99615  1.0000
  C   C1081     1.0  0.68034  0.87143  0.96345  1.0000
  C   C1082     1.0  0.51964  0.86798  0.93312  1.0000
  N   N76       1.0  0.91086  0.70079  0.84750  1.0000
  H   H1831     1.0  0.98358  0.65034  0.96229  1.0000
  C   C1083     1.0  0.70674  0.63764  0.77144  1.0000
  H   H1832     1.0  0.68178  0.88817  0.95352  1.0000
  H   H1833     1.0  0.65863  0.00504  0.86544  1.0000
  H   H1834     1.0  0.75246  0.61012  0.77266  1.0000
  H   H1835     1.0  0.52115  0.83625  0.91276  1.0000
  C   C1084     1.0  0.98741  0.60862  0.86732  1.0000
  H   H1836     1.0  0.66302  0.83741  0.96023  1.0000
  S   S319      1.0  0.75949  0.77804  0.77480  1.0000
  H   H1837     1.0  0.93612  0.73635  0.87489  1.0000
  H   H1838     1.0  0.98586  0.59133  0.86043  1.0000
  H   H1839     1.0  0.69122  0.81048  0.94909  1.0000
  C   C1085     1.0  0.77192  0.66777  0.77034  1.0000
  C   C1086     1.0  0.77479  0.63544  0.81366  1.0000
  C   C1087     1.0  0.89879  0.70159  0.87094  1.0000
  H   H1840     1.0  0.73690  0.63058  0.80538  1.0000
  H   H1841     1.0  0.72400  0.67193  0.77299  1.0000
  H   H1842     1.0  0.00880  0.61356  0.01099  1.0000
  C   C1088     1.0  0.87128  0.69347  0.87204  1.0000
  H   H1843     1.0  0.95084  0.62601  0.97574  1.0000
  C   C1089     1.0  0.88820  0.73882  0.83622  1.0000
  H   H1844     1.0  0.91005  0.71805  0.81390  1.0000
  H   H1845     1.0  0.68487  0.89857  0.78761  1.0000
  H   H1846     1.0  0.89984  0.71914  0.87821  1.0000
  H   H1847     1.0  0.90893  0.69069  0.88370  1.0000
  C   C1090     1.0  0.52923  0.84354  0.92878  1.0000
  C   C1091     1.0  0.89782  0.71495  0.82921  1.0000
  C   C1092     1.0  0.65079  0.81296  0.92015  1.0000
  H   H1848     1.0  0.58869  0.00273  0.87074  1.0000
  H   H1849     1.0  0.61049  0.84349  0.00941  1.0000
  H   H1850     1.0  0.89051  0.66929  0.83795  1.0000
  C   C1093     1.0  0.75163  0.64389  0.80094  1.0000
  H   H1851     1.0  0.53285  0.87601  0.94565  1.0000
  H   H1852     1.0  0.77787  0.61690  0.81026  1.0000
  H   H1853     1.0  0.85973  0.70276  0.85928  1.0000
  H   H1854     1.0  0.84917  0.54283  0.92550  1.0000
  H   H1855     1.0  0.98457  0.64704  0.93220  1.0000
  C   C1094     1.0  0.99466  0.64276  0.94843  1.0000
  H   H1856     1.0  0.89267  0.75190  0.82230  1.0000
  H   H1857     1.0  0.89595  0.74588  0.85231  1.0000
  H   H1858     1.0  0.86761  0.73803  0.83744  1.0000
  H   H1859     1.0  0.71151  0.81424  0.92574  1.0000
  C   C1095     1.0  0.94366  0.73312  0.85756  1.0000
  H   H1860     1.0  0.63984  0.80683  0.90508  1.0000
  H   H1861     1.0  0.88716  0.54917  0.99780  1.0000
  H   H1862     1.0  0.79104  0.66384  0.77588  1.0000
  H   H1863     1.0  0.68109  0.82352  0.89814  1.0000
  H   H1864     1.0  0.70330  0.85902  0.79214  1.0000
  H   H1865     1.0  0.94414  0.67088  0.82053  1.0000
  H   H1866     1.0  0.93750  0.74629  0.84472  1.0000
  N   N77       1.0  0.88592  0.51552  0.94813  1.0000
  H   H1867     1.0  0.90752  0.50794  0.85511  1.0000
  C   C1096     1.0  0.70266  0.82406  0.93966  1.0000
  C   C1097     1.0  0.62301  0.90982  0.00144  1.0000
  H   H1868     1.0  0.65282  0.85884  0.94036  1.0000
  C   C1098     1.0  0.84293  0.53316  0.94129  1.0000
  H   H1869     1.0  0.74604  0.66022  0.80918  1.0000
  C   C1099     1.0  0.66979  0.85174  0.94832  1.0000
  H   H1870     1.0  0.99546  0.57232  0.92961  1.0000
  H   H1871     1.0  0.55742  0.97401  0.83790  1.0000
  H   H1872     1.0  0.91307  0.53728  0.96576  1.0000
  H   H1873     1.0  0.86895  0.67448  0.86978  1.0000
  C   C1100     1.0  0.88958  0.50717  0.86348  1.0000
  H   H1874     1.0  0.63730  0.81981  0.93247  1.0000
  H   H1875     1.0  0.94409  0.63361  0.94612  1.0000
  C   C1101     1.0  0.93786  0.70825  0.84949  1.0000
  H   H1876     1.0  0.84307  0.54519  0.95590  1.0000
  H   H1877     1.0  0.65933  0.84537  0.90240  1.0000
  N   N78       1.0  0.99608  0.61674  0.95150  1.0000
  C   C1102     1.0  0.89261  0.53522  0.96384  1.0000
  C   C1103     1.0  0.99750  0.61947  0.99606  1.0000
  H   H1878     1.0  0.91837  0.68134  0.80328  1.0000
  H   H1879     1.0  0.88677  0.55204  0.95614  1.0000
  H   H1880     1.0  0.90725  0.65594  0.00180  1.0000
  H   H1881     1.0  0.99278  0.67052  0.89195  1.0000
  H   H1882     1.0  0.68847  0.87477  0.90966  1.0000
  H   H1883     1.0  0.52574  0.83137  0.94361  1.0000
  H   H1884     1.0  0.79166  0.64618  0.80958  1.0000
  C   C1104     1.0  0.00845  0.60992  0.97388  1.0000
  C   C1105     1.0  0.92371  0.67005  0.81809  1.0000
  H   H1885     1.0  0.62653  0.92835  0.99912  1.0000
  H   H1886     1.0  0.71177  0.87309  0.93075  1.0000
  H   H1887     1.0  0.91880  0.65183  0.81348  1.0000
  S   S320      1.0  0.72917  0.72778  0.78256  1.0000
  H   H1888     1.0  0.65969  0.79754  0.92781  1.0000
  H   H1889     1.0  0.70060  0.63863  0.78964  1.0000
  H   H1890     1.0  0.71567  0.83132  0.97478  1.0000
  H   H1891     1.0  0.73494  0.84463  0.90792  1.0000
  C   C1106     1.0  0.51648  0.88575  0.86885  1.0000
  Fe  Fe159     1.0  0.71985  0.76577  0.78126  1.0000
  H   H1892     1.0  0.66722  0.87409  0.97783  1.0000
  H   H1893     1.0  0.96570  0.60184  0.93123  1.0000
  N   N79       1.0  0.68643  0.84265  0.92987  1.0000
  C   C1107     1.0  0.66999  0.83179  0.91162  1.0000
  C   C1108     1.0  0.70119  0.86239  0.91826  1.0000
  H   H1894     1.0  0.71153  0.84616  0.88554  1.0000
  H   H1895     1.0  0.94739  0.70730  0.83256  1.0000
  H   H1896     1.0  0.97836  0.61258  0.99919  1.0000
  H   H1897     1.0  0.91765  0.66437  0.85437  1.0000
  H   H1898     1.0  0.93136  0.60738  0.95888  1.0000
  H   H1899     1.0  0.59148  0.99906  0.84119  1.0000
  C   C1109     1.0  0.88223  0.53294  0.98860  1.0000
  C   C1110     1.0  0.97040  0.60535  0.94963  1.0000
  H   H1900     1.0  0.89064  0.51847  0.99844  1.0000
  C   C1111     1.0  0.72028  0.85533  0.90016  1.0000
  H   H1901     1.0  0.54033  0.98592  0.86116  1.0000
  C   C1112     1.0  0.86891  0.59815  0.00948  1.0000
  H   H1902     1.0  0.88832  0.53847  0.91790  1.0000
  H   H1903     1.0  0.55021  0.87453  0.00593  1.0000
  H   H1904     1.0  0.88917  0.50862  0.91187  1.0000
  H   H1905     1.0  0.73859  0.81978  0.95599  1.0000
  C   C1113     1.0  0.89666  0.63973  0.00397  1.0000
  Fe  Fe160     1.0  0.76797  0.73979  0.77332  1.0000
  C   C1114     1.0  0.69821  0.86606  0.77479  1.0000
  C   C1115     1.0  0.72885  0.65469  0.76623  1.0000
  H   H1906     1.0  0.52217  0.87829  0.91675  1.0000
  C   C1116     1.0  0.61389  0.86203  0.00716  1.0000
  C   C1117     1.0  0.85818  0.51147  0.94654  1.0000
  H   H1907     1.0  0.69841  0.86762  0.97134  1.0000
  H   H1908     1.0  0.74570  0.84997  0.77335  1.0000
  C   C1118     1.0  0.89569  0.52172  0.92436  1.0000
  H   H1909     1.0  0.93189  0.53921  0.93164  1.0000
  C   C1119     1.0  0.92412  0.52433  0.92188  1.0000
  H   H1910     1.0  0.93359  0.50819  0.92680  1.0000
  H   H1911     1.0  0.66236  0.87530  0.78956  1.0000
  H   H1912     1.0  0.64422  0.80406  0.76357  1.0000
  H   H1913     1.0  0.00417  0.61431  0.91526  1.0000
  N   N80       1.0  0.75387  0.64763  0.77516  1.0000
  H   H1914     1.0  0.55136  0.90442  0.99590  1.0000
  H   H1915     1.0  0.86175  0.53090  0.98906  1.0000
  H   H1916     1.0  0.65280  0.84610  0.76494  1.0000
  C   C1120     1.0  0.66871  0.83441  0.76659  1.0000
  H   H1917     1.0  0.00807  0.59070  0.97630  1.0000
  H   H1918     1.0  0.66935  0.88947  0.76182  1.0000
  H   H1919     1.0  0.50933  0.86008  0.97493  1.0000
  H   H1920     1.0  0.51001  0.90345  0.97111  1.0000
