data_image0
_chemical_formula_structural       HCH4C2H2FeS2FeSHFeSFeS3FeS2FeS2FeSFeS3CH2CH2C2H2CH2C2HCH4C6H4C5H3CHC2H4C2HCHNHNH2SCH2C2SH5SC2HCHCH3SH2CSCH2CNH5CHCHNHC3HC5H12C2H3CNHNC8H20CHC4HCH3C2H6CHCH2CHCH3C3H2CH5C3HC2HCH5SHCHCHCHC2H2CH3C3H6SHCH2CH3FeSHFeSCFeHFeSHSFeS2FeS2FeSFeS3C2HNH2C2SH3CHC3HCHC7H5CH3C2HSH4C4HC5H2C2HCHCHS3H2CH4CH4C2H5C4H3NC2HCHCHCH4CH3C2SCHSH3SH2C2H4C2H3CH3SHCHCH3NH2CHCNH2CHC2H2CH3CH3C2HCH2FeH4FeS2FeS2FeSHS2FeS4FeS2HS2FeSFeS2CHSFeS2CFeS2FeS2FeCSFeHFeS3H6C7H4CHC3HCH3C6H3C3H2C7H4C6H4C6H4C2H13CH3CH7CH4C2H2NC2HSH6SCH4FeCH4CH5CH3CH3C2H3FeH3NHCHCSCHCH5CH9NH3CH2CHNC5FeC3H10CH2C2H3C2H2CHSHC3H3CHC2FeCH9CH3FeH2CHNC2NFeHC3H4C2H2NH3CHFeH5C4FeS2FeS2FeSHS2FeS4FeS2HS2FeSFeS2H2SFeS2CFeS2FeSHFeHSHNFeS3CH6C6H4CHCHCH2CH2C4HCH2C2HC2H2C6H4C6H4C6H4C2H8NH8CHC2H2NHCH2CH3CHCH5CH2CHCH3CHCHNC5HCHNH10C2H2C2SHNC4H6CHCHCH7CH3CH4NH2C2H3CH3C2H6C2H6CHCH4CHCHFeHC2H5CHCHCH4CH3CH2CHCHFeHCHSCH5NHFeH2FeHC4H3C3HCHSH5SH7NFeC2H3FeH2FeCHCH2C4H4CSFeS2HCHSFeHSHFeS2FeS2FeSFeS3HC3H3C6H4C6H4C6H3CHNC8H20NHC2HNH3C2HCHCH5CHCHCHCH6CH3CHCH5FeH4NH3CH2CH5SHCFeH4CH2CHCHCH3CHC3H2CH2C2SH3CHNH4CHNHC2HCH5CSFeS2HCHSFeHSHFeS2FeS2FeSFeS4C2NH3C6H4C6H4C6H4NH10CH4CH4CH2C4H3CHCHNH2SC3H6CH3CH2C2H7CH2C4H3CH5FeHCH2SH2CHFeCHFeS2FeS2FeSFeS3FeS2FeSHFeSFeS3FeHSFeSHC2FeS3C6H5C2H5CH4C6H4CHC2HC2H3CHC6H2C2H5C2H2NH2C3HC2H7CH2CH2C2H4CHCHCH3C3HNHCH5NHCHCHC4H3NCHC2HCH3CHFeH4SCHSH3CH2C2HCH2NHCH2CH5CH3C2NC2H7CH3C2HSHCH3C2H4NC6SH6SCH7CH6CHSHCHCH6C3H2CH2CHCHCH4CH3C2H3CH5FeS2FeS2FeSFeS3FeS2FeSCFeSFeS3FeHSFeS2HCFeS3C6H11C2HC9H4C8H3C6H3CH5C3H2NC6HCH15CH7CH6CHFeHCH3CHNH2CH3SCH3CH2CH2NC3HCH2C2H2C2H4CNC4HC2H7CH5SNH5CHCHCHNHCH2CH4CH4SHC2H2C2H4CH11CHCH2CH3SH2C3HC3H8CH6FeSHFeS2FeSFeS3FeS2FeS2FeSFeS3FeHSFeS2CHFeS3C2HC6H4C6H4NC2H2C6H5C4FeH2CH2CH5SC4HCH2CHCH8CHCHCHC2HC3NCH3CH3NH7CH4C2H2CH3C4H2CSH7CH2CNH4CH2NHCH2CHCHCH2CHSHCH3C2H2C4H9NC7H17CHCH6CH8CHNH2CH2CHCH5CHCHCHCHCH2CH5CH2CH2C2H6CFeS2FeS2FeHFeS3FeS2FeS2FeSFeS3FeCSFeS2CHFeS3C2HC6H4C6H4C2H3C6H6C3H6CNH3C6H5CH2CH2NC8H21NC8H20NC8H8CH3CH3CH3NSC3H2CH2CH12C3H5C3HNH2CHCH2CHC2HSHCH7CH6C2HCH2CHNHCH8C2HFeC2H4NHC2H2CH5CH2C2H2CHCH2SH3CH7CH3CHCHC3HFeS2FeS2FeSFeS4FeS2FeSFeSNHFeS2FeH2CFeS3C5H2C4H2C6H4C6H4C6H4C6H4SH2CFeH5NHC2HCH2NC3HCH7CH2CH2C2NHC3HSC2HCH5C2H7CHNC8H19CH5CH2NC8H20CH3S2H2C3FeH4CHNHCH3CHCH2SCH7CHC2HCH8CHSH2CH3CHFeS2FeS2FeSFeS4FeS2FeSFeS2HFeS2FeH2SFeS3H3CHSCHC3H2C6H4C6H4C6H4C6SH4NC4HCHCHC2H2NH3SHFeH4CHNC5H6C2H7CH2CHC2H3CH3C2HNC2HCH3C2H7C4H4CNC8H28SHCHCHC2H3CH4SH3C2H2FeS2FeS2FeCFeS2FeS2FeS2FeSFeS3FeS2H2FeCHS3CSC6H4C6H4C6H7CH4C6H8NHC3H5CHCSHCNH3CH5C2NHCH7C2H4C2H3SHC2H3NC8H22SCHFeHCH3CHSH4C2HC2H7FeHC2HC2HCH2C3HFeS2FeSHFeSFeS2FeS2FeS2FeSFeS3FeS2H2FeCHS3HSC6H4C6H4C6H4CH2C3HSC6H5CH4C4FeNC4HSH5NH2NH6CH5NC8H20NCHCHC5H6SH6C3H5C2HCH3C2H10C2HCH2FeC2H5CH7FeH5C2HCH2NH2CHCH5CHFeS2FeS2FeSFeS3C2HNCNH3CSH3C2HC2H2FeH2FeS2FeSHS3FeS2FeS2FeSFeS3C5H6C6H4C6H6C4H5CHCH3CH4NC4H3FeCH2CSHC2HC3H8CHFeCH2C2H2C2HC3HSCH2CH3C2NCH3CH3C3H6CH6CHCH4C2HC3H5CH2CHCNCH3CH2CHCH2CH9C2HCH8NH6FeHCFeS2FeSCS3FeS2FeS2FeSFeS3FeS2FeS2FeSFeS3CH2CH2CHCH3NH2CNHC6H7C6H4C6H4CHC3H2CH2NC3H7NH3CH4CH2CHC2HCHC2H3C2H2CH3CH3C4H2NH13CH4CH3C2H2C5H2C2H2CHCHC3H3CH5NCH3CHC4H6CHCHCHCSH3CH2SH7CH2CH2CHCHCH2C3H6SHCHCH4CH2C2H3CFeSCFeSHFeSFeS3FeS2FeHSHSFeS3FeS2FeS2FeSFeS3C3H4C4HC2HCH2C2H4C6H4CHC4HCH2C6H10CH7NC8H10CH3NCHC3H2C2H9NCSC4H5C3H5CHCNH3CH2CH4CHNH2SH2CHCNHCH3CHCHCH2CH3CH3CHC2H3CNH5CHCH2CH2C2H5SCH3CH2CH4C4H7CHFeH2CH2C4H2CHCH5C3FeSHFeSHFeHFeS3FeS2FeCSHSFeS3FeS2FeS2FeSFeS3CH2CHCHC2H3C2H2SHCHFeH3C6H4CHC5SH2C6H6C2H3CHCH4C2NC4NC3H11CHCH6NC7H16CH2C2HCSCHC2SHCH4CHCHC2H3C3HSCH2C2HNH2CHCHCH6CH6C4HCH5CH3CSHCH4NH6CH6CHFeS2FeS2FeSFeS3CS2FeSFe2CFeSHSH4C6H4C6H4C6H5C2HNC7H13CHCHCHCHNH17CH6CHCH3CH3CH2CHCHC2HCH2CN2H2CH3CH3C2H4C2H2NHC3H2C2HCSC2H9SH2CH3C2H3C3H2CH2FeHCH4CSHFeS2FeS2FeSFeS3HS2FeS2FeHFeSHSH2CHC6H4C6H4C6H5C2HNC8H20NC8H26CH5NCHSH2C2H4CHC2HC2H4CH3CNH7C2H2C5H4C2H2C2HSHSHFeS2FeSFeS2HFeSFeS2FeSFeSFeS3FeS2FeS2FeSFeS4HFeS2C6H5C2H4C2H8CHC4H4C6H4C6H4C6H5NC3HCH5NCH12CH2CH7C2HSHSCH2NHC2HC2HCH10SCH2CSH3CH2C2H5CH5C2H3C2H3FeHCH4NC8H11CHCH6NCHC2H4CHCH5CHC3H2CH4NC8H5CH3CH4CH3CH2CH2CHSHFeS2FeSFeS2HFeSFeS2FeSFeSFeS3FeSHFeS2FeSFeS3C2FeSC7H5C2HNC2HC2H7C6H4C6H4C6H4C6H4CHC3H2CHCH3NH2CH9CNHCH3CH9CHSH4CH3CHC2SH2C2H10CHCHCH2SH2SNC4H2CH7CH3CH6CHCH10C2HCH5CH2C2HNC6HCH3CH9SH4CH3CH2CHNCH2C3H3CH3CH2C2HC2H5CHCHFeH3CH2NH7CH4CH2CHNC3NCHCH2CSCH2C2H4CH2CHSH2SH3CFeSH2FeCHCH2CSH4SFeS2FeS2FeSFeS3FeS2FeSHFeSFeS3C3NSHCH6C8H4C4H2C2FeH3SC7H3SH3C2H2C3H6CSC7SH4CHC2H4CH4CSH2CH2C2H3CHCH2FeH7CH4SH2C2H3C2H2CHCH4CH2FeNCNC2H5CHC2H2SHNCH3CH2C2H10C2H8CFeCH2FeS2HFeHFeHCHC2H2CHSFeS2FeS2FeSFeS3FeS2FeSCFeSFeS3C2SC3H2CHNCHCHC6H8CSC2H2CHC2FeC5SH2CHFeHCH2C2H2C2H3NC8H22CH4CH6CH8CHCHC2HC2H3SH4NHC2HCHCSHFeCH3CHC2HSH2C2H2CH2CNCH2CHCHNHC2H2C2H2CH4CHCHCH2C2H4C2HSC2HCH2CH5NCH5NCH6
_chemical_formula_sum              "H3456 C2016 Fe288 S576 N144"
_cell_length_a       88.0337
_cell_length_b       88.9591
_cell_length_c       44.7339
_cell_angle_alpha    90.912
_cell_angle_beta     92.6533
_cell_angle_gamma    113.927

_space_group_name_H-M_alt    "P 1"
_space_group_IT_number       1

loop_
  _space_group_symop_operation_xyz
  'x, y, z'

loop_
  _atom_site_type_symbol
  _atom_site_label
  _atom_site_symmetry_multiplicity
  _atom_site_fract_x
  _atom_site_fract_y
  _atom_site_fract_z
  _atom_site_occupancy
  H   H1        1.0  0.24838  0.00037  0.03789  1.0000
  C   C1        1.0  0.00853  0.23636  0.11800  1.0000
  H   H2        1.0  0.04045  0.23112  0.13474  1.0000
  H   H3        1.0  0.21619  0.02606  0.00559  1.0000
  H   H4        1.0  0.27756  0.13468  0.06468  1.0000
  H   H5        1.0  0.21565  0.19169  0.26219  1.0000
  C   C2        1.0  0.22928  0.19498  0.26300  1.0000
  C   C3        1.0  0.31225  0.08320  0.03417  1.0000
  H   H6        1.0  0.15359  0.24004  0.48217  1.0000
  H   H7        1.0  0.99689  0.18232  0.07803  1.0000
  Fe  Fe1       1.0  0.24593  0.21411  0.15339  1.0000
  S   S1        1.0  0.22629  0.19165  0.12986  1.0000
  S   S2        1.0  0.24512  0.23033  0.19334  1.0000
  Fe  Fe2       1.0  0.27313  0.21286  0.11300  1.0000
  S   S3        1.0  0.25531  0.19036  0.08628  1.0000
  H   H8        1.0  0.01920  0.21602  0.08506  1.0000
  Fe  Fe3       1.0  0.23782  0.20336  0.08720  1.0000
  S   S4        1.0  0.21899  0.20315  0.05003  1.0000
  Fe  Fe4       1.0  0.24508  0.18025  0.13044  1.0000
  S   S5        1.0  0.24237  0.15598  0.15194  1.0000
  S   S6        1.0  0.25642  0.22647  0.11089  1.0000
  S   S7        1.0  0.26387  0.20205  0.15695  1.0000
  Fe  Fe5       1.0  0.23506  0.06341  0.10562  1.0000
  S   S8        1.0  0.25274  0.06412  0.14372  1.0000
  S   S9        1.0  0.22792  0.08476  0.09377  1.0000
  Fe  Fe6       1.0  0.23112  0.02912  0.08305  1.0000
  S   S10       1.0  0.24886  0.02783  0.12001  1.0000
  S   S11       1.0  0.22006  0.00548  0.05360  1.0000
  Fe  Fe7       1.0  0.23541  0.03768  0.15090  1.0000
  S   S12       1.0  0.23188  0.03068  0.20014  1.0000
  Fe  Fe8       1.0  0.26462  0.05405  0.10995  1.0000
  S   S13       1.0  0.29274  0.06342  0.11257  1.0000
  S   S14       1.0  0.21664  0.03758  0.11472  1.0000
  S   S15       1.0  0.24805  0.05481  0.07100  1.0000
  C   C4        1.0  0.98868  0.21074  0.48496  1.0000
  H   H9        1.0  0.23475  0.20754  0.25404  1.0000
  H   H10       1.0  0.21513  0.99843  0.29066  1.0000
  C   C5        1.0  0.26045  0.01033  0.04604  1.0000
  H   H11       1.0  0.27448  0.10615  0.14711  1.0000
  H   H12       1.0  0.28933  0.12019  0.03350  1.0000
  C   C6        1.0  0.21876  0.01315  0.21957  1.0000
  C   C7        1.0  0.22244  0.01216  0.25028  1.0000
  H   H13       1.0  0.29634  0.11671  0.14129  1.0000
  H   H14       1.0  0.22772  0.23117  0.13717  1.0000
  C   C8        1.0  0.13948  0.20758  0.46440  1.0000
  H   H15       1.0  0.23336  0.02175  0.26128  1.0000
  H   H16       1.0  0.31325  0.10791  0.09832  1.0000
  C   C9        1.0  0.25166  0.18720  0.24545  1.0000
  C   C10       1.0  0.02166  0.21064  0.10614  1.0000
  H   H17       1.0  0.29465  0.02729  0.04853  1.0000
  C   C11       1.0  0.30076  0.07527  0.05577  1.0000
  H   H18       1.0  0.02114  0.19468  0.19442  1.0000
  H   H19       1.0  0.31029  0.05072  0.02007  1.0000
  H   H20       1.0  0.28754  0.07048  0.05005  1.0000
  H   H21       1.0  0.99650  0.18935  0.16067  1.0000
  C   C12       1.0  0.23914  0.13659  0.13475  1.0000
  C   C13       1.0  0.23222  0.13199  0.10550  1.0000
  C   C14       1.0  0.22887  0.11610  0.09350  1.0000
  C   C15       1.0  0.23275  0.10470  0.11019  1.0000
  C   C16       1.0  0.24019  0.10948  0.13909  1.0000
  C   C17       1.0  0.24310  0.12521  0.15143  1.0000
  H   H22       1.0  0.22903  0.14052  0.09238  1.0000
  H   H23       1.0  0.22317  0.11261  0.07108  1.0000
  H   H24       1.0  0.24350  0.10100  0.15208  1.0000
  H   H25       1.0  0.24854  0.12863  0.17402  1.0000
  C   C18       1.0  0.20455  0.00066  0.20580  1.0000
  C   C19       1.0  0.21653  0.23394  0.13383  1.0000
  C   C20       1.0  0.02052  0.20447  0.17991  1.0000
  C   C21       1.0  0.21651  0.21517  0.47997  1.0000
  C   C22       1.0  0.15598  0.23757  0.45880  1.0000
  H   H26       1.0  0.04544  0.21353  0.12874  1.0000
  H   H27       1.0  0.12126  0.20914  0.38830  1.0000
  H   H28       1.0  0.01537  0.21163  0.19357  1.0000
  C   C23       1.0  0.00099  0.21884  0.26262  1.0000
  H   H29       1.0  0.21498  0.20470  0.46558  1.0000
  C   C24       1.0  0.21356  0.21992  0.21621  1.0000
  C   C25       1.0  0.23038  0.23074  0.21903  1.0000
  H   H30       1.0  0.16289  0.20546  0.45012  1.0000
  H   H31       1.0  0.30861  0.13750  0.07006  1.0000
  H   H32       1.0  0.24081  0.00805  0.46288  1.0000
  H   H33       1.0  0.20905  0.21100  0.19769  1.0000
  C   C26       1.0  0.22165  0.21726  0.02094  1.0000
  C   C27       1.0  0.21210  0.99894  0.26707  1.0000
  H   H34       1.0  0.28466  0.09255  0.09391  1.0000
  C   C28       1.0  0.26515  0.10067  0.03768  1.0000
  H   H35       1.0  0.13645  0.20282  0.37435  1.0000
  N   N1        1.0  0.27174  0.01672  0.02065  1.0000
  H   H36       1.0  0.01855  0.22952  0.15694  1.0000
  N   N2        1.0  0.00798  0.20747  0.12736  1.0000
  H   H37       1.0  0.27205  0.14490  0.11231  1.0000
  H   H38       1.0  0.12732  0.23502  0.42824  1.0000
  S   S16       1.0  0.07738  0.23592  0.36116  1.0000
  C   C29       1.0  0.30476  0.12736  0.08618  1.0000
  H   H39       1.0  0.18837  0.23971  0.08683  1.0000
  H   H40       1.0  0.99353  0.21694  0.39779  1.0000
  C   C30       1.0  0.28046  0.10220  0.10132  1.0000
  C   C31       1.0  0.28111  0.13910  0.11199  1.0000
  S   S17       1.0  0.20725  0.22718  0.42942  1.0000
  H   H41       1.0  0.23260  0.20672  0.30713  1.0000
  H   H42       1.0  0.19997  0.20864  0.14157  1.0000
  H   H43       1.0  0.02191  0.19883  0.09819  1.0000
  H   H44       1.0  0.22900  0.16541  0.27881  1.0000
  H   H45       1.0  0.99748  0.21960  0.34076  1.0000
  S   S18       1.0  0.19335  0.23306  0.28735  1.0000
  C   C32       1.0  0.21336  0.22824  0.46801  1.0000
  C   C33       1.0  0.98831  0.18151  0.09589  1.0000
  H   H46       1.0  0.24796  0.23113  0.03003  1.0000
  C   C34       1.0  0.00901  0.19633  0.15190  1.0000
  H   H47       1.0  0.25459  0.17948  0.22870  1.0000
  C   C35       1.0  0.26246  0.02150  0.99600  1.0000
  H   H48       1.0  0.24865  0.03290  0.02105  1.0000
  H   H49       1.0  0.15687  0.21702  0.41214  1.0000
  H   H50       1.0  0.20588  0.21180  0.10397  1.0000
  S   S19       1.0  0.30145  0.22395  0.11594  1.0000
  H   H51       1.0  0.10305  0.22705  0.33974  1.0000
  H   H52       1.0  0.98843  0.22398  0.05181  1.0000
  C   C36       1.0  0.31644  0.11843  0.08335  1.0000
  S   S20       1.0  0.03150  0.23474  0.37066  1.0000
  C   C37       1.0  0.28504  0.10555  0.13524  1.0000
  H   H53       1.0  0.29352  0.14936  0.11054  1.0000
  H   H54       1.0  0.22767  0.18526  0.30840  1.0000
  C   C38       1.0  0.03957  0.22130  0.11844  1.0000
  N   N3        1.0  0.14207  0.22220  0.44535  1.0000
  H   H55       1.0  0.25588  0.18419  0.26750  1.0000
  H   H56       1.0  0.12643  0.19823  0.46067  1.0000
  H   H57       1.0  0.26298  0.21380  0.25800  1.0000
  H   H58       1.0  0.30782  0.08444  0.01177  1.0000
  H   H59       1.0  0.27602  0.20651  0.23840  1.0000
  C   C39       1.0  0.15066  0.19819  0.45907  1.0000
  H   H60       1.0  0.29356  0.04700  0.99296  1.0000
  C   C40       1.0  0.00793  0.22320  0.14054  1.0000
  H   H61       1.0  0.28584  0.00159  0.02405  1.0000
  N   N4        1.0  0.23323  0.18301  0.24400  1.0000
  H   H62       1.0  0.23779  0.15022  0.24695  1.0000
  C   C41       1.0  0.22754  0.18394  0.21198  1.0000
  C   C42       1.0  0.20801  0.23235  0.26169  1.0000
  C   C43       1.0  0.22444  0.16597  0.25543  1.0000
  H   H63       1.0  0.05292  0.20563  0.99040  1.0000
  C   C44       1.0  0.20855  0.17582  0.20476  1.0000
  C   C45       1.0  0.26299  0.20525  0.23971  1.0000
  C   C46       1.0  0.22674  0.15203  0.23774  1.0000
  C   C47       1.0  0.23711  0.22989  0.01610  1.0000
  C   C48       1.0  0.28352  0.11006  0.04917  1.0000
  H   H64       1.0  0.23341  0.17854  0.19588  1.0000
  H   H65       1.0  0.23177  0.19693  0.20555  1.0000
  H   H66       1.0  0.17464  0.22911  0.47747  1.0000
  H   H67       1.0  0.20148  0.00120  0.18227  1.0000
  H   H68       1.0  0.27805  0.01396  0.08502  1.0000
  H   H69       1.0  0.21090  0.16269  0.25740  1.0000
  H   H70       1.0  0.30792  0.13378  0.10845  1.0000
  H   H71       1.0  0.31660  0.11431  0.05991  1.0000
  H   H72       1.0  0.25761  0.99864  0.08881  1.0000
  H   H73       1.0  0.20363  0.16222  0.20557  1.0000
  H   H74       1.0  0.20167  0.18056  0.21971  1.0000
  H   H75       1.0  0.20581  0.17865  0.18158  1.0000
  C   C49       1.0  0.99152  0.19861  0.10985  1.0000
  C   C50       1.0  0.30949  0.23669  0.05977  1.0000
  H   H76       1.0  0.21369  0.23691  0.15663  1.0000
  H   H77       1.0  0.03339  0.21238  0.17460  1.0000
  H   H78       1.0  0.22819  0.15420  0.21355  1.0000
  C   C51       1.0  0.00332  0.23143  0.01314  1.0000
  N   N5        1.0  0.28640  0.11670  0.08122  1.0000
  H   H79       1.0  0.28034  0.13298  0.13348  1.0000
  N   N6        1.0  0.19916  0.05949  0.19156  1.0000
  C   C52       1.0  0.19803  0.04227  0.19584  1.0000
  C   C53       1.0  0.21618  0.06983  0.18093  1.0000
  C   C54       1.0  0.18615  0.05967  0.16865  1.0000
  C   C55       1.0  0.19633  0.06612  0.22100  1.0000
  C   C56       1.0  0.18069  0.02905  0.20194  1.0000
  C   C57       1.0  0.23076  0.07457  0.20474  1.0000
  C   C58       1.0  0.18656  0.05240  0.13734  1.0000
  C   C59       1.0  0.19776  0.08404  0.22137  1.0000
  H   H80       1.0  0.20246  0.03772  0.17615  1.0000
  H   H81       1.0  0.20650  0.04215  0.21500  1.0000
  H   H82       1.0  0.21657  0.08135  0.17094  1.0000
  H   H83       1.0  0.21922  0.06334  0.16222  1.0000
  H   H84       1.0  0.17341  0.05316  0.17665  1.0000
  H   H85       1.0  0.18748  0.07251  0.16520  1.0000
  H   H86       1.0  0.18361  0.05857  0.22813  1.0000
  H   H87       1.0  0.20456  0.06485  0.23959  1.0000
  H   H88       1.0  0.17151  0.02701  0.18284  1.0000
  H   H89       1.0  0.18175  0.01714  0.20510  1.0000
  H   H90       1.0  0.17585  0.03181  0.22280  1.0000
  H   H91       1.0  0.24266  0.08105  0.19387  1.0000
  H   H92       1.0  0.23012  0.08319  0.22233  1.0000
  H   H93       1.0  0.23142  0.06362  0.21519  1.0000
  H   H94       1.0  0.19823  0.05979  0.12652  1.0000
  H   H95       1.0  0.17618  0.05278  0.12270  1.0000
  H   H96       1.0  0.18485  0.03936  0.13789  1.0000
  H   H97       1.0  0.18541  0.08430  0.21610  1.0000
  H   H98       1.0  0.20659  0.09193  0.20553  1.0000
  H   H99       1.0  0.20257  0.08992  0.24393  1.0000
  C   C60       1.0  0.99940  0.23377  0.26655  1.0000
  H   H100      1.0  0.99352  0.19634  0.23570  1.0000
  C   C61       1.0  0.21379  0.01400  0.99607  1.0000
  C   C62       1.0  0.12635  0.22523  0.44417  1.0000
  C   C63       1.0  0.21499  0.00192  0.01444  1.0000
  C   C64       1.0  0.13150  0.20547  0.39528  1.0000
  H   H101      1.0  0.28768  0.09525  0.14439  1.0000
  C   C65       1.0  0.22875  0.00482  0.47194  1.0000
  H   H102      1.0  0.00569  0.21719  0.44908  1.0000
  H   H103      1.0  0.01291  0.18677  0.14297  1.0000
  H   H104      1.0  0.15332  0.19356  0.48075  1.0000
  C   C66       1.0  0.99226  0.20788  0.23836  1.0000
  C   C67       1.0  0.30648  0.07347  0.08462  1.0000
  H   H105      1.0  0.11543  0.21407  0.43551  1.0000
  H   H106      1.0  0.25836  0.10879  0.03653  1.0000
  H   H107      1.0  0.21547  0.14039  0.23904  1.0000
  H   H108      1.0  0.25718  0.02015  0.05572  1.0000
  H   H109      1.0  0.14391  0.18704  0.44438  1.0000
  H   H110      1.0  0.26477  0.09576  0.01453  1.0000
  C   C68       1.0  0.14560  0.21951  0.41348  1.0000
  H   H111      1.0  0.00885  0.21570  0.27835  1.0000
  C   C69       1.0  0.27649  0.12702  0.08462  1.0000
  H   H112      1.0  0.99674  0.22047  0.15369  1.0000
  H   H113      1.0  0.26302  0.11902  0.08545  1.0000
  C   C70       1.0  0.00043  0.22181  0.46650  1.0000
  H   H114      1.0  0.25836  0.08997  0.05133  1.0000
  C   C71       1.0  0.98847  0.20865  0.35135  1.0000
  H   H115      1.0  0.26665  0.09575  0.09920  1.0000
  H   H116      1.0  0.17766  0.23544  0.43886  1.0000
  H   H117      1.0  0.12647  0.19395  0.40769  1.0000
  C   C72       1.0  0.26751  0.00388  0.07270  1.0000
  C   C73       1.0  0.17355  0.23776  0.46080  1.0000
  C   C74       1.0  0.21438  0.99392  0.45541  1.0000
  H   H118      1.0  0.18944  0.21246  0.23485  1.0000
  H   H119      1.0  0.28958  0.10141  0.04575  1.0000
  C   C75       1.0  0.20246  0.22077  0.23737  1.0000
  H   H120      1.0  0.14841  0.23093  0.40085  1.0000
  H   H121      1.0  0.19048  0.21848  0.11740  1.0000
  H   H122      1.0  0.25947  0.20927  0.21824  1.0000
  H   H123      1.0  0.24844  0.19967  0.30014  1.0000
  H   H124      1.0  0.99747  0.23211  0.10221  1.0000
  C   C76       1.0  0.00531  0.23880  0.47066  1.0000
  C   C77       1.0  0.10896  0.23710  0.35608  1.0000
  C   C78       1.0  0.28714  0.03125  0.03233  1.0000
  H   H125      1.0  0.10858  0.22984  0.47092  1.0000
  C   C79       1.0  0.20232  0.21744  0.12322  1.0000
  C   C80       1.0  0.12134  0.23023  0.47411  1.0000
  H   H126      1.0  0.19569  0.20613  0.00605  1.0000
  C   C81       1.0  0.23496  0.19654  0.29648  1.0000
  H   H127      1.0  0.04708  0.22789  0.09971  1.0000
  H   H128      1.0  0.28384  0.04012  0.04548  1.0000
  H   H129      1.0  0.20777  0.23273  0.07408  1.0000
  H   H130      1.0  0.29646  0.23012  0.05286  1.0000
  H   H131      1.0  0.99005  0.20594  0.09097  1.0000
  S   S21       1.0  0.18027  0.23590  0.36815  1.0000
  H   H132      1.0  0.26326  0.24048  0.45770  1.0000
  C   C82       1.0  0.20771  0.21586  0.00249  1.0000
  H   H133      1.0  0.26877  0.04749  0.01034  1.0000
  C   C83       1.0  0.31494  0.23623  0.08945  1.0000
  H   H134      1.0  0.99497  0.20043  0.35580  1.0000
  C   C84       1.0  0.25783  0.03604  0.00355  1.0000
  H   H135      1.0  0.13375  0.23825  0.35047  1.0000
  C   C85       1.0  0.98985  0.22080  0.02906  1.0000
  C   C86       1.0  0.98898  0.23751  0.24588  1.0000
  H   H136      1.0  0.98874  0.17274  0.11288  1.0000
  H   H137      1.0  0.31157  0.20176  0.05987  1.0000
  C   C87       1.0  0.27685  0.00372  0.00819  1.0000
  H   H138      1.0  0.22917  0.23777  0.07855  1.0000
  H   H139      1.0  0.27129  0.99392  0.06599  1.0000
  H   H140      1.0  0.18255  0.23982  0.12503  1.0000
  C   C88       1.0  0.21534  0.24168  0.48684  1.0000
  C   C89       1.0  0.29917  0.04085  0.00854  1.0000
  C   C90       1.0  0.23854  0.24100  0.99313  1.0000
  H   H141      1.0  0.30378  0.03297  0.99569  1.0000
  H   H142      1.0  0.99313  0.24154  0.35075  1.0000
  H   H143      1.0  0.01999  0.24064  0.10540  1.0000
  H   H144      1.0  0.25046  0.01102  0.98920  1.0000
  H   H145      1.0  0.14103  0.21131  0.48862  1.0000
  H   H146      1.0  0.13196  0.23636  0.85630  1.0000
  S   S22       1.0  0.02866  0.22644  0.88012  1.0000
  H   H147      1.0  0.00425  0.20849  0.71887  1.0000
  C   C91       1.0  0.31065  0.23883  0.56491  1.0000
  H   H148      1.0  0.27850  0.09581  0.61681  1.0000
  H   H149      1.0  0.09724  0.23817  0.95110  1.0000
  C   C92       1.0  0.21062  0.23063  0.77874  1.0000
  H   H150      1.0  0.03612  0.19871  0.91116  1.0000
  H   H151      1.0  0.22054  0.20713  0.81119  1.0000
  H   H152      1.0  0.04169  0.17561  0.94638  1.0000
  Fe  Fe9       1.0  0.24829  0.21609  0.66473  1.0000
  S   S23       1.0  0.22736  0.19982  0.63280  1.0000
  H   H153      1.0  0.21414  0.10645  0.57136  1.0000
  Fe  Fe10      1.0  0.27475  0.21567  0.62090  1.0000
  S   S24       1.0  0.25543  0.19953  0.58594  1.0000
  C   C93       1.0  0.22457  0.23970  0.97485  1.0000
  Fe  Fe11      1.0  0.24160  0.21553  0.59587  1.0000
  H   H154      1.0  0.20490  0.99974  0.67707  1.0000
  Fe  Fe12      1.0  0.24274  0.18491  0.62549  1.0000
  S   S25       1.0  0.23008  0.15673  0.62963  1.0000
  H   H155      1.0  0.23744  0.23541  0.83692  1.0000
  S   S26       1.0  0.26277  0.20034  0.65992  1.0000
  Fe  Fe13      1.0  0.24420  0.06890  0.60843  1.0000
  S   S27       1.0  0.26036  0.06281  0.64235  1.0000
  S   S28       1.0  0.24812  0.09547  0.59752  1.0000
  Fe  Fe14      1.0  0.23043  0.03362  0.58027  1.0000
  S   S29       1.0  0.24603  0.02544  0.61204  1.0000
  S   S30       1.0  0.21001  0.01687  0.54637  1.0000
  Fe  Fe15      1.0  0.23845  0.03851  0.64823  1.0000
  S   S31       1.0  0.23443  0.02984  0.69690  1.0000
  Fe  Fe16      1.0  0.26672  0.05017  0.60415  1.0000
  S   S32       1.0  0.29401  0.05451  0.60165  1.0000
  S   S33       1.0  0.22173  0.04565  0.61692  1.0000
  S   S34       1.0  0.25171  0.05722  0.56978  1.0000
  C   C94       1.0  0.21344  0.21455  0.86937  1.0000
  C   C95       1.0  0.21217  0.00790  0.51178  1.0000
  H   H156      1.0  0.12108  0.22175  0.49215  1.0000
  N   N7        1.0  0.30505  0.10885  0.62785  1.0000
  H   H157      1.0  0.31384  0.10733  0.67346  1.0000
  H   H158      1.0  0.27279  0.22056  0.52405  1.0000
  C   C96       1.0  0.22060  0.01231  0.71579  1.0000
  C   C97       1.0  0.22323  0.01145  0.74697  1.0000
  S   S35       1.0  0.30305  0.22497  0.62040  1.0000
  H   H159      1.0  0.06553  0.19112  0.91973  1.0000
  H   H160      1.0  0.20689  0.20513  0.85144  1.0000
  H   H161      1.0  0.23348  0.02138  0.75882  1.0000
  C   C98       1.0  0.26685  0.22901  0.51758  1.0000
  H   H162      1.0  0.25702  0.22233  0.49995  1.0000
  C   C99       1.0  0.04686  0.18223  0.96821  1.0000
  C   C100      1.0  0.21720  0.21688  0.73618  1.0000
  C   C101      1.0  0.30270  0.07490  0.55319  1.0000
  H   H163      1.0  0.17419  0.05377  0.58435  1.0000
  C   C102      1.0  0.21071  0.10333  0.54720  1.0000
  H   H164      1.0  0.28952  0.07134  0.54838  1.0000
  C   C103      1.0  0.30812  0.12681  0.62846  1.0000
  C   C104      1.0  0.23627  0.14025  0.62222  1.0000
  C   C105      1.0  0.22778  0.12496  0.63528  1.0000
  C   C106      1.0  0.23160  0.11129  0.62895  1.0000
  C   C107      1.0  0.24371  0.11259  0.60877  1.0000
  C   C108      1.0  0.25219  0.12785  0.59567  1.0000
  C   C109      1.0  0.24865  0.14162  0.60256  1.0000
  H   H165      1.0  0.21815  0.12371  0.65047  1.0000
  H   H166      1.0  0.22494  0.09971  0.63927  1.0000
  H   H167      1.0  0.26151  0.12902  0.57987  1.0000
  H   H168      1.0  0.25521  0.15320  0.59212  1.0000
  H   H169      1.0  0.21505  0.17952  0.88741  1.0000
  C   C110      1.0  0.22382  0.22904  0.52913  1.0000
  H   H170      1.0  0.19390  0.20624  0.64260  1.0000
  H   H171      1.0  0.04145  0.18423  0.89103  1.0000
  H   H172      1.0  0.29940  0.08835  0.65706  1.0000
  C   C111      1.0  0.21370  0.08813  0.53709  1.0000
  C   C112      1.0  0.99198  0.22544  0.77700  1.0000
  H   H173      1.0  0.23885  0.02020  0.51223  1.0000
  S   S36       1.0  0.02314  0.24118  0.96494  1.0000
  H   H174      1.0  0.99470  0.21013  0.94632  1.0000
  H   H175      1.0  0.10752  0.22546  0.96249  1.0000
  H   H176      1.0  0.19785  0.10205  0.54215  1.0000
  H   H177      1.0  0.19012  0.20398  0.89158  1.0000
  C   C113      1.0  0.19780  0.99685  0.49542  1.0000
  C   C114      1.0  0.19887  0.21924  0.63579  1.0000
  C   C115      1.0  0.29051  0.09839  0.60695  1.0000
  C   C116      1.0  0.17407  0.07240  0.53156  1.0000
  H   H178      1.0  0.21349  0.20656  0.72026  1.0000
  C   C117      1.0  0.21705  0.05820  0.51439  1.0000
  C   C118      1.0  0.30235  0.10180  0.65863  1.0000
  C   C119      1.0  0.20540  0.99460  0.95263  1.0000
  C   C120      1.0  0.20896  0.01032  0.96539  1.0000
  C   C121      1.0  0.23409  0.21198  0.81692  1.0000
  H   H179      1.0  0.21161  0.22561  0.86179  1.0000
  H   H180      1.0  0.20770  0.01965  0.95150  1.0000
  C   C122      1.0  0.99343  0.21322  0.96929  1.0000
  C   C123      1.0  0.23929  0.23235  0.89605  1.0000
  H   H181      1.0  0.31727  0.13351  0.64722  1.0000
  C   C124      1.0  0.20368  0.20895  0.89783  1.0000
  H   H182      1.0  0.31007  0.09149  0.51669  1.0000
  C   C125      1.0  0.21132  0.06027  0.54575  1.0000
  H   H183      1.0  0.20619  0.19919  0.90929  1.0000
  S   S37       1.0  0.23110  0.23070  0.56721  1.0000
  S   S38       1.0  0.07544  0.23465  0.86089  1.0000
  S   S39       1.0  0.26193  0.23249  0.62817  1.0000
  H   H184      1.0  0.22262  0.06468  0.56129  1.0000
  H   H185      1.0  0.27637  0.09927  0.66401  1.0000
  C   C126      1.0  0.18692  0.05732  0.59462  1.0000
  H   H186      1.0  0.22604  0.06997  0.50607  1.0000
  H   H187      1.0  0.18823  0.22115  0.62498  1.0000
  H   H188      1.0  0.07716  0.24075  0.98400  1.0000
  H   H189      1.0  0.10198  0.22691  0.84029  1.0000
  C   C127      1.0  0.05029  0.20063  0.96685  1.0000
  H   H190      1.0  0.16314  0.00080  0.94191  1.0000
  H   H191      1.0  0.20832  0.22054  0.61943  1.0000
  H   H192      1.0  0.01310  0.21957  0.77121  1.0000
  H   H193      1.0  0.26957  0.02445  0.97538  1.0000
  C   C128      1.0  0.28954  0.10525  0.57571  1.0000
  C   C129      1.0  0.28867  0.10385  0.67639  1.0000
  H   H194      1.0  0.28068  0.12042  0.63076  1.0000
  H   H195      1.0  0.17954  0.05077  0.53349  1.0000
  H   H196      1.0  0.03733  0.17642  0.98473  1.0000
  H   H197      1.0  0.20640  0.21949  0.91384  1.0000
  H   H198      1.0  0.09742  0.22202  0.92610  1.0000
  C   C130      1.0  0.25839  0.23961  0.90164  1.0000
  C   C131      1.0  0.30811  0.06810  0.57724  1.0000
  C   C132      1.0  0.04613  0.19731  0.89896  1.0000
  C   C133      1.0  0.06317  0.22704  0.94265  1.0000
  H   H199      1.0  0.17615  0.08169  0.51415  1.0000
  H   H200      1.0  0.21903  0.11417  0.53520  1.0000
  H   H201      1.0  0.23810  0.20180  0.82042  1.0000
  N   N8        1.0  0.23179  0.21836  0.87293  1.0000
  C   C134      1.0  0.23965  0.22443  0.84376  1.0000
  C   C135      1.0  0.23301  0.22971  0.73538  1.0000
  H   H202      1.0  0.21158  0.07694  0.59475  1.0000
  C   C136      1.0  0.23532  0.20400  0.88352  1.0000
  H   H203      1.0  0.21319  0.08785  0.51217  1.0000
  C   C137      1.0  0.19959  0.07302  0.58111  1.0000
  H   H204      1.0  0.08190  0.20116  0.96407  1.0000
  C   C138      1.0  0.22368  0.18667  0.87044  1.0000
  H   H205      1.0  0.30104  0.10849  0.56357  1.0000
  H   H206      1.0  0.25170  0.03871  0.98327  1.0000
  H   H207      1.0  0.19043  0.04673  0.59290  1.0000
  H   H208      1.0  0.23129  0.17967  0.86536  1.0000
  C   C139      1.0  0.20913  0.22702  0.97961  1.0000
  H   H209      1.0  0.22436  0.20554  0.51915  1.0000
  H   H210      1.0  0.24833  0.20598  0.87907  1.0000
  H   H211      1.0  0.23463  0.20326  0.90833  1.0000
  C   C140      1.0  0.22768  0.01174  0.49996  1.0000
  C   C141      1.0  0.20719  0.99935  0.70095  1.0000
  S   S40       1.0  0.18587  0.23824  0.88758  1.0000
  C   C142      1.0  0.00525  0.22773  0.98316  1.0000
  H   H212      1.0  0.07269  0.21023  0.90307  1.0000
  S   S41       1.0  0.19610  0.23041  0.80553  1.0000
  H   H213      1.0  0.29755  0.23240  0.55865  1.0000
  H   H214      1.0  0.27934  0.09563  0.56177  1.0000
  H   H215      1.0  0.07251  0.23448  0.92690  1.0000
  S   S42       1.0  0.99722  0.23281  0.81520  1.0000
  H   H216      1.0  0.21639  0.18641  0.84955  1.0000
  H   H217      1.0  0.17448  0.07821  0.55376  1.0000
  C   C143      1.0  0.00177  0.21956  0.76072  1.0000
  C   C144      1.0  0.31646  0.23746  0.59391  1.0000
  H   H218      1.0  0.19825  0.22590  0.96588  1.0000
  H   H219      1.0  0.04796  0.20482  0.87877  1.0000
  H   H220      1.0  0.21383  0.22559  0.67720  1.0000
  H   H221      1.0  0.19394  0.20734  0.75808  1.0000
  C   C145      1.0  0.20611  0.21736  0.75770  1.0000
  C   C146      1.0  0.22183  0.21560  0.51033  1.0000
  H   H222      1.0  0.31606  0.21406  0.51916  1.0000
  H   H223      1.0  0.29036  0.08591  0.60350  1.0000
  H   H224      1.0  0.22694  0.09108  0.54420  1.0000
  C   C147      1.0  0.31438  0.08633  0.53528  1.0000
  H   H225      1.0  0.20343  0.04762  0.55247  1.0000
  H   H226      1.0  0.24033  0.21830  0.79687  1.0000
  H   H227      1.0  0.29243  0.11678  0.68434  1.0000
  S   S43       1.0  0.24734  0.23042  0.70777  1.0000
  H   H228      1.0  0.28690  0.09647  0.69678  1.0000
  C   C148      1.0  0.06513  0.23773  0.97130  1.0000
  H   H229      1.0  0.05813  0.18035  0.97556  1.0000
  C   C149      1.0  0.18636  0.06411  0.52929  1.0000
  H   H230      1.0  0.03836  0.20149  0.95990  1.0000
  H   H231      1.0  0.05097  0.22520  0.93144  1.0000
  H   H232      1.0  0.18641  0.05980  0.61891  1.0000
  N   N9        1.0  0.20241  0.07158  0.54832  1.0000
  H   H233      1.0  0.19514  0.08275  0.58591  1.0000
  H   H234      1.0  0.21482  0.99768  0.78701  1.0000
  C   C150      1.0  0.29283  0.13111  0.63149  1.0000
  H   H235      1.0  0.05465  0.23188  0.98599  1.0000
  C   C151      1.0  0.99670  0.21327  0.73097  1.0000
  N   N10       1.0  0.06418  0.21075  0.94755  1.0000
  H   H236      1.0  0.26114  0.23121  0.53783  1.0000
  H   H237      1.0  0.28632  0.11604  0.57696  1.0000
  C   C152      1.0  0.09639  0.22539  0.94964  1.0000
  H   H238      1.0  0.18573  0.99378  0.50434  1.0000
  C   C153      1.0  0.98677  0.23341  0.51245  1.0000
  C   C154      1.0  0.06286  0.20227  0.91748  1.0000
  H   H239      1.0  0.23422  0.22839  0.91829  1.0000
  H   H240      1.0  0.26316  0.23004  0.90598  1.0000
  C   C155      1.0  0.12438  0.24160  0.86708  1.0000
  H   H241      1.0  0.29408  0.13825  0.65275  1.0000
  H   H242      1.0  0.08109  0.21703  0.98726  1.0000
  H   H243      1.0  0.29214  0.13908  0.61307  1.0000
  C   C156      1.0  0.21264  0.99799  0.76308  1.0000
  H   H244      1.0  0.20641  0.05225  0.49782  1.0000
  H   H245      1.0  0.18894  0.06416  0.50518  1.0000
  H   H246      1.0  0.16113  0.06288  0.52802  1.0000
  C   C157      1.0  0.08054  0.21306  0.96337  1.0000
  C   C158      1.0  0.20601  0.23056  0.66394  1.0000
  H   H247      1.0  0.25338  0.22851  0.84616  1.0000
  C   C159      1.0  0.10733  0.23625  0.85805  1.0000
  H   H248      1.0  0.22364  0.04987  0.51592  1.0000
  H   H249      1.0  0.19504  0.22853  0.67723  1.0000
  Fe  Fe17      1.0  0.02058  0.24141  0.84760  1.0000
  H   H250      1.0  0.25477  0.00003  0.81347  1.0000
  H   H251      1.0  0.31411  0.13256  0.60770  1.0000
  H   H252      1.0  0.28361  0.00788  0.98742  1.0000
  H   H253      1.0  0.28680  0.24152  0.48887  1.0000
  Fe  Fe18      1.0  0.04306  0.45088  0.19880  1.0000
  S   S44       1.0  0.05971  0.46456  0.23878  1.0000
  S   S45       1.0  0.01470  0.43857  0.19447  1.0000
  Fe  Fe19      1.0  0.07221  0.45877  0.15735  1.0000
  S   S46       1.0  0.09094  0.47337  0.19429  1.0000
  S   S47       1.0  0.07664  0.45567  0.10769  1.0000
  Fe  Fe20      1.0  0.07661  0.45275  0.22429  1.0000
  S   S48       1.0  0.09084  0.44105  0.25310  1.0000
  H   H254      1.0  0.29633  0.47421  0.46556  1.0000
  S   S49       1.0  0.05892  0.43751  0.18641  1.0000
  S   S50       1.0  0.05508  0.47134  0.16725  1.0000
  Fe  Fe21      1.0  0.05802  0.28213  0.36768  1.0000
  S   S51       1.0  0.06201  0.26714  0.40485  1.0000
  S   S52       1.0  0.07471  0.30886  0.35924  1.0000
  S   S53       1.0  0.03032  0.27117  0.36989  1.0000
  S   S54       1.0  0.05704  0.26416  0.33085  1.0000
  Fe  Fe22      1.0  0.11026  0.39485  0.44780  1.0000
  S   S55       1.0  0.12362  0.40653  0.40721  1.0000
  S   S56       1.0  0.08930  0.36949  0.45018  1.0000
  H   H255      1.0  0.22039  0.39061  0.40922  1.0000
  S   S57       1.0  0.14257  0.44021  0.44952  1.0000
  S   S58       1.0  0.12309  0.43017  0.03390  1.0000
  Fe  Fe23      1.0  0.11866  0.42852  0.42074  1.0000
  S   S59       1.0  0.10680  0.44322  0.39417  1.0000
  Fe  Fe24      1.0  0.14666  0.41719  0.43896  1.0000
  S   S60       1.0  0.16941  0.41430  0.42039  1.0000
  S   S61       1.0  0.10363  0.41602  0.45943  1.0000
  C   C160      1.0  0.24130  0.26741  0.15480  1.0000
  H   H256      1.0  0.18588  0.36036  0.40210  1.0000
  S   S62       1.0  0.22040  0.25710  0.36227  1.0000
  Fe  Fe25      1.0  0.17807  0.25992  0.37667  1.0000
  S   S63       1.0  0.19327  0.27165  0.33758  1.0000
  S   S64       1.0  0.15601  0.26517  0.39175  1.0000
  C   C161      1.0  0.25668  0.26056  0.44880  1.0000
  Fe  Fe26      1.0  0.21531  0.27972  0.37103  1.0000
  S   S65       1.0  0.23580  0.30544  0.36756  1.0000
  S   S66       1.0  0.20008  0.26929  0.41058  1.0000
  Fe  Fe27      1.0  0.28933  0.42139  0.39992  1.0000
  S   S67       1.0  0.29727  0.40712  0.43399  1.0000
  S   S68       1.0  0.29867  0.42230  0.35241  1.0000
  Fe  Fe28      1.0  0.26551  0.42699  0.44313  1.0000
  C   C162      1.0  0.11343  0.31877  0.30983  1.0000
  S   S69       1.0  0.24718  0.43777  0.45738  1.0000
  Fe  Fe29      1.0  0.29908  0.42707  0.46760  1.0000
  H   H257      1.0  0.05889  0.41854  0.01254  1.0000
  Fe  Fe30      1.0  0.27013  0.39489  0.44346  1.0000
  S   S70       1.0  0.25431  0.36846  0.45508  1.0000
  S   S71       1.0  0.29239  0.44196  0.43294  1.0000
  S   S72       1.0  0.26182  0.40762  0.40736  1.0000
  H   H258      1.0  0.98758  0.24898  0.24870  1.0000
  H   H259      1.0  0.04836  0.36878  0.30135  1.0000
  H   H260      1.0  0.20735  0.36441  0.37507  1.0000
  H   H261      1.0  0.31335  0.44693  0.24050  1.0000
  H   H262      1.0  0.07169  0.47528  0.46219  1.0000
  H   H263      1.0  0.22057  0.35649  0.39642  1.0000
  C   C163      1.0  0.23770  0.26071  0.12197  1.0000
  C   C164      1.0  0.24000  0.32290  0.39162  1.0000
  C   C165      1.0  0.23292  0.32165  0.41934  1.0000
  C   C166      1.0  0.23738  0.33572  0.43846  1.0000
  C   C167      1.0  0.24875  0.35121  0.42991  1.0000
  C   C168      1.0  0.25551  0.35254  0.40190  1.0000
  C   C169      1.0  0.25125  0.33843  0.38300  1.0000
  H   H264      1.0  0.22430  0.30977  0.42629  1.0000
  H   H265      1.0  0.23214  0.33457  0.46013  1.0000
  H   H266      1.0  0.26425  0.36437  0.39501  1.0000
  H   H267      1.0  0.25678  0.33951  0.36160  1.0000
  C   C170      1.0  0.09801  0.47813  0.46034  1.0000
  H   H268      1.0  0.07499  0.39575  0.41276  1.0000
  C   C171      1.0  0.06279  0.37506  0.01211  1.0000
  C   C172      1.0  0.22487  0.24303  0.26460  1.0000
  C   C173      1.0  0.19018  0.24746  0.10734  1.0000
  H   H269      1.0  0.06789  0.38177  0.99155  1.0000
  C   C174      1.0  0.05326  0.35458  0.36743  1.0000
  H   H270      1.0  0.10655  0.40024  0.31375  1.0000
  H   H271      1.0  0.07861  0.36691  0.35719  1.0000
  H   H272      1.0  0.28537  0.46255  0.26889  1.0000
  C   C175      1.0  0.19099  0.42105  0.43141  1.0000
  C   C176      1.0  0.20139  0.41743  0.41216  1.0000
  C   C177      1.0  0.21853  0.42232  0.41982  1.0000
  C   C178      1.0  0.22553  0.43090  0.44698  1.0000
  C   C179      1.0  0.21518  0.43463  0.46616  1.0000
  C   C180      1.0  0.19802  0.42968  0.45855  1.0000
  H   H273      1.0  0.19617  0.41098  0.39094  1.0000
  H   H274      1.0  0.22638  0.41977  0.40444  1.0000
  H   H275      1.0  0.10779  0.25928  0.29097  1.0000
  C   C181      1.0  0.07606  0.44175  0.44908  1.0000
  C   C182      1.0  0.13417  0.25652  0.38301  1.0000
  C   C183      1.0  0.12432  0.26299  0.39804  1.0000
  H   H276      1.0  0.19426  0.34089  0.40857  1.0000
  H   H277      1.0  0.13017  0.27298  0.41451  1.0000
  C   C184      1.0  0.12638  0.24342  0.36212  1.0000
  C   C185      1.0  0.08595  0.35267  0.42523  1.0000
  C   C186      1.0  0.07347  0.33719  0.43078  1.0000
  C   C187      1.0  0.07009  0.32356  0.41108  1.0000
  C   C188      1.0  0.07903  0.32540  0.38539  1.0000
  C   C189      1.0  0.09149  0.34090  0.37975  1.0000
  C   C190      1.0  0.09505  0.35447  0.39971  1.0000
  H   H278      1.0  0.06637  0.33570  0.45047  1.0000
  H   H279      1.0  0.06044  0.31170  0.41562  1.0000
  H   H280      1.0  0.09844  0.34242  0.35989  1.0000
  H   H281      1.0  0.10470  0.36633  0.39525  1.0000
  C   C191      1.0  0.09449  0.44120  0.29250  1.0000
  C   C192      1.0  0.10585  0.43497  0.30387  1.0000
  C   C193      1.0  0.10948  0.43514  0.33494  1.0000
  C   C194      1.0  0.10187  0.44172  0.35500  1.0000
  C   C195      1.0  0.09045  0.44790  0.34367  1.0000
  C   C196      1.0  0.08667  0.44753  0.31259  1.0000
  H   H282      1.0  0.11202  0.43010  0.28848  1.0000
  H   H283      1.0  0.11844  0.43052  0.34332  1.0000
  H   H284      1.0  0.08447  0.45300  0.35900  1.0000
  H   H285      1.0  0.07771  0.45212  0.30417  1.0000
  C   C197      1.0  0.11004  0.43729  0.05400  1.0000
  C   C198      1.0  0.11130  0.43794  0.08557  1.0000
  C   C199      1.0  0.10112  0.44332  0.10242  1.0000
  C   C200      1.0  0.08961  0.44832  0.08789  1.0000
  C   C201      1.0  0.08834  0.44764  0.05633  1.0000
  C   C202      1.0  0.09846  0.44218  0.03951  1.0000
  H   H286      1.0  0.12025  0.43425  0.09709  1.0000
  H   H287      1.0  0.10230  0.44379  0.12663  1.0000
  H   H288      1.0  0.07958  0.45157  0.04479  1.0000
  H   H289      1.0  0.09753  0.44209  0.01531  1.0000
  C   C203      1.0  0.00128  0.42772  0.22234  1.0000
  C   C204      1.0  0.00642  0.42978  0.25276  1.0000
  H   H290      1.0  0.19024  0.43262  0.47356  1.0000
  H   H291      1.0  0.01917  0.43769  0.25964  1.0000
  H   H292      1.0  0.05572  0.40051  0.99052  1.0000
  H   H293      1.0  0.31220  0.41997  0.29633  1.0000
  H   H294      1.0  0.11887  0.47966  0.33108  1.0000
  H   H295      1.0  0.03514  0.38800  0.29400  1.0000
  H   H296      1.0  0.12170  0.47242  0.29467  1.0000
  H   H297      1.0  0.09871  0.29391  0.39162  1.0000
  H   H298      1.0  0.09816  0.37926  0.01870  1.0000
  H   H299      1.0  0.09957  0.26193  0.40347  1.0000
  H   H300      1.0  0.30416  0.42910  0.19452  1.0000
  H   H301      1.0  0.13273  0.31110  0.29921  1.0000
  H   H302      1.0  0.24110  0.27172  0.10805  1.0000
  C   C205      1.0  0.28880  0.27130  0.48235  1.0000
  H   H303      1.0  0.20166  0.33148  0.43688  1.0000
  H   H304      1.0  0.04733  0.40147  0.32407  1.0000
  H   H305      1.0  0.13371  0.28985  0.35302  1.0000
  C   C206      1.0  0.10225  0.28802  0.34591  1.0000
  H   H306      1.0  0.10511  0.31852  0.32781  1.0000
  H   H307      1.0  0.09169  0.29095  0.33784  1.0000
  H   H308      1.0  0.09640  0.27476  0.35094  1.0000
  H   H309      1.0  0.09426  0.28626  0.28888  1.0000
  H   H310      1.0  0.13234  0.31523  0.33784  1.0000
  H   H311      1.0  0.10933  0.39015  0.05275  1.0000
  H   H312      1.0  0.13608  0.28498  0.28584  1.0000
  C   C207      1.0  0.31473  0.43725  0.33257  1.0000
  H   H313      1.0  0.20647  0.39532  0.45430  1.0000
  H   H314      1.0  0.24862  0.24219  0.48190  1.0000
  H   H315      1.0  0.19855  0.35424  0.47332  1.0000
  H   H316      1.0  0.23446  0.27510  0.16007  1.0000
  C   C208      1.0  0.12945  0.48243  0.23971  1.0000
  C   C209      1.0  0.22535  0.39084  0.48001  1.0000
  H   H317      1.0  0.23856  0.25754  0.17109  1.0000
  H   H318      1.0  0.17239  0.35407  0.45428  1.0000
  N   N11       1.0  0.30973  0.46809  0.22423  1.0000
  C   C210      1.0  0.29265  0.46900  0.17554  1.0000
  C   C211      1.0  0.30585  0.44991  0.22270  1.0000
  H   H319      1.0  0.17415  0.37511  0.45387  1.0000
  S   S73       1.0  0.27265  0.41370  0.47987  1.0000
  H   H320      1.0  0.30406  0.47197  0.16329  1.0000
  H   H321      1.0  0.23511  0.39952  0.46638  1.0000
  H   H322      1.0  0.28367  0.45625  0.16917  1.0000
  H   H323      1.0  0.29258  0.44252  0.22726  1.0000
  H   H324      1.0  0.26681  0.26576  0.43313  1.0000
  H   H325      1.0  0.24525  0.25291  0.43485  1.0000
  S   S74       1.0  0.13327  0.40406  0.47898  1.0000
  C   C212      1.0  0.06340  0.40866  0.00941  1.0000
  H   H326      1.0  0.24684  0.25534  0.11732  1.0000
  H   H327      1.0  0.25422  0.27057  0.45941  1.0000
  H   H328      1.0  0.25478  0.27542  0.15834  1.0000
  H   H329      1.0  0.30039  0.46889  0.29986  1.0000
  Fe  Fe31      1.0  0.19737  0.24829  0.33146  1.0000
  C   C213      1.0  0.20462  0.35603  0.45157  1.0000
  H   H330      1.0  0.10149  0.47648  0.27207  1.0000
  H   H331      1.0  0.19881  0.37951  0.48009  1.0000
  H   H332      1.0  0.16236  0.36069  0.42470  1.0000
  H   H333      1.0  0.13181  0.48350  0.47328  1.0000
  C   C214      1.0  0.12412  0.30911  0.31764  1.0000
  H   H334      1.0  0.09004  0.25939  0.27016  1.0000
  H   H335      1.0  0.29711  0.45051  0.27924  1.0000
  H   H336      1.0  0.30791  0.44789  0.10130  1.0000
  H   H337      1.0  0.09154  0.40198  0.02021  1.0000
  H   H338      1.0  0.22944  0.37467  0.37611  1.0000
  C   C215      1.0  0.21877  0.36766  0.38980  1.0000
  H   H339      1.0  0.06531  0.35773  0.32554  1.0000
  H   H340      1.0  0.28362  0.46335  0.21914  1.0000
  H   H341      1.0  0.09756  0.37921  0.32333  1.0000
  C   C216      1.0  0.29561  0.47143  0.20990  1.0000
  H   H342      1.0  0.21303  0.25183  0.47791  1.0000
  H   H343      1.0  0.31686  0.24513  0.01556  1.0000
  H   H344      1.0  0.10142  0.39544  0.35140  1.0000
  C   C217      1.0  0.12708  0.48241  0.31197  1.0000
  C   C218      1.0  0.09724  0.39137  0.32790  1.0000
  H   H345      1.0  0.21747  0.35702  0.45711  1.0000
  H   H346      1.0  0.09043  0.40680  0.38699  1.0000
  H   H347      1.0  0.00858  0.24726  0.13057  1.0000
  Fe  Fe32      1.0  0.20325  0.24601  0.39938  1.0000
  H   H348      1.0  0.18508  0.25660  0.10096  1.0000
  H   H349      1.0  0.11273  0.28746  0.27346  1.0000
  H   H350      1.0  0.30937  0.41004  0.15163  1.0000
  N   N12       1.0  0.06868  0.38639  0.03954  1.0000
  H   H351      1.0  0.06827  0.40916  0.05680  1.0000
  C   C219      1.0  0.06279  0.37647  0.06697  1.0000
  H   H352      1.0  0.11356  0.31099  0.37417  1.0000
  C   C220      1.0  0.08738  0.39472  0.04043  1.0000
  S   S75       1.0  0.00974  0.24808  0.29699  1.0000
  C   C221      1.0  0.07081  0.38543  0.09720  1.0000
  H   H353      1.0  0.13703  0.46675  0.48282  1.0000
  C   C222      1.0  0.09675  0.38332  0.04163  1.0000
  H   H354      1.0  0.11890  0.29442  0.38721  1.0000
  H   H355      1.0  0.04041  0.35047  0.35742  1.0000
  H   H356      1.0  0.06463  0.36482  0.06575  1.0000
  H   H357      1.0  0.04911  0.37240  0.06831  1.0000
  H   H358      1.0  0.22890  0.38076  0.48710  1.0000
  C   C223      1.0  0.10300  0.48943  0.27299  1.0000
  H   H359      1.0  0.29345  0.26617  0.46368  1.0000
  H   H360      1.0  0.09249  0.40414  0.05904  1.0000
  H   H361      1.0  0.11719  0.47193  0.23986  1.0000
  H   H362      1.0  0.08313  0.48852  0.43505  1.0000
  H   H363      1.0  0.08435  0.38513  0.39248  1.0000
  H   H364      1.0  0.06447  0.37755  0.11574  1.0000
  H   H365      1.0  0.08416  0.38766  0.09989  1.0000
  H   H366      1.0  0.06951  0.39725  0.10011  1.0000
  H   H367      1.0  0.21444  0.26299  0.06069  1.0000
  N   N13       1.0  0.20517  0.37167  0.43792  1.0000
  H   H368      1.0  0.07574  0.44995  0.43089  1.0000
  H   H369      1.0  0.05443  0.36091  0.38954  1.0000
  H   H370      1.0  0.09069  0.37232  0.05491  1.0000
  C   C224      1.0  0.19514  0.33974  0.43304  1.0000
  H   H371      1.0  0.09634  0.49066  0.25207  1.0000
  H   H372      1.0  0.22935  0.25203  0.28307  1.0000
  C   C225      1.0  0.04376  0.36592  0.00685  1.0000
  H   H373      1.0  0.23138  0.38077  0.42950  1.0000
  N   N14       1.0  0.06582  0.38150  0.33865  1.0000
  C   C226      1.0  0.04972  0.37761  0.32033  1.0000
  C   C227      1.0  0.06646  0.36529  0.34634  1.0000
  C   C228      1.0  0.07996  0.39112  0.31934  1.0000
  C   C229      1.0  0.06581  0.39161  0.36603  1.0000
  C   C230      1.0  0.04742  0.39249  0.30669  1.0000
  Fe  Fe33      1.0  0.02940  0.25192  0.33556  1.0000
  C   C231      1.0  0.14030  0.28536  0.30961  1.0000
  C   C232      1.0  0.07980  0.39496  0.39052  1.0000
  C   C233      1.0  0.21932  0.37847  0.41737  1.0000
  H   H374      1.0  0.05532  0.34325  0.37179  1.0000
  H   H375      1.0  0.15160  0.29690  0.31443  1.0000
  H   H376      1.0  0.21331  0.26925  0.10993  1.0000
  H   H377      1.0  0.07708  0.38625  0.29567  1.0000
  H   H378      1.0  0.08156  0.40418  0.31857  1.0000
  H   H379      1.0  0.06674  0.40399  0.35963  1.0000
  H   H380      1.0  0.05371  0.38619  0.37689  1.0000
  H   H381      1.0  0.13852  0.48070  0.25580  1.0000
  H   H382      1.0  0.08476  0.43604  0.44403  1.0000
  H   H383      1.0  0.08971  0.25840  0.30989  1.0000
  C   C234      1.0  0.31330  0.44597  0.05512  1.0000
  H   H384      1.0  0.04849  0.39434  0.04389  1.0000
  H   H385      1.0  0.20808  0.25901  0.14337  1.0000
  C   C235      1.0  0.10695  0.25677  0.39180  1.0000
  C   C236      1.0  0.09785  0.26392  0.29131  1.0000
  H   H386      1.0  0.21989  0.25063  0.03552  1.0000
  H   H387      1.0  0.30034  0.44006  0.04729  1.0000
  H   H388      1.0  0.09923  0.47361  0.43755  1.0000
  C   C237      1.0  0.08422  0.48464  0.45826  1.0000
  C   C238      1.0  0.18915  0.36951  0.42096  1.0000
  H   H389      1.0  0.03741  0.37441  0.00546  1.0000
  H   H390      1.0  0.06348  0.43154  0.44893  1.0000
  C   C239      1.0  0.20851  0.25666  0.11897  1.0000
  H   H391      1.0  0.99893  0.42361  0.29784  1.0000
  S   S76       1.0  0.01907  0.25345  0.44667  1.0000
  H   H392      1.0  0.14379  0.27471  0.31200  1.0000
  C   C240      1.0  0.22272  0.25647  0.05837  1.0000
  C   C241      1.0  0.12680  0.28384  0.33164  1.0000
  C   C242      1.0  0.10906  0.29749  0.37621  1.0000
  H   H393      1.0  0.06774  0.36535  0.01317  1.0000
  H   H394      1.0  0.07643  0.41474  0.00314  1.0000
  H   H395      1.0  0.24891  0.25069  0.24583  1.0000
  C   C243      1.0  0.06188  0.39949  0.03888  1.0000
  H   H396      1.0  0.28732  0.47761  0.16702  1.0000
  C   C244      1.0  0.99492  0.42183  0.27434  1.0000
  C   C245      1.0  0.11032  0.45983  0.47926  1.0000
  Fe  Fe34      1.0  0.07278  0.48434  0.20627  1.0000
  C   C246      1.0  0.30924  0.44271  0.19342  1.0000
  H   H397      1.0  0.23592  0.26539  0.05923  1.0000
  H   H398      1.0  0.05693  0.39887  0.29048  1.0000
  H   H399      1.0  0.12034  0.27074  0.33717  1.0000
  H   H400      1.0  0.29672  0.48404  0.21604  1.0000
  H   H401      1.0  0.18249  0.33304  0.44117  1.0000
  H   H402      1.0  0.19054  0.38118  0.41015  1.0000
  H   H403      1.0  0.31368  0.39565  0.38483  1.0000
  H   H404      1.0  0.10593  0.31422  0.28842  1.0000
  H   H405      1.0  0.13400  0.48212  0.21704  1.0000
  C   C247      1.0  0.17375  0.36450  0.43987  1.0000
  H   H406      1.0  0.30338  0.44553  0.17317  1.0000
  H   H407      1.0  0.03877  0.37144  0.33394  1.0000
  H   H408      1.0  0.10984  0.48924  0.46440  1.0000
  Fe  Fe35      1.0  0.03380  0.25463  0.40485  1.0000
  H   H409      1.0  0.13877  0.48179  0.32102  1.0000
  H   H410      1.0  0.11016  0.45566  0.45565  1.0000
  C   C248      1.0  0.20816  0.38440  0.46288  1.0000
  H   H411      1.0  0.12176  0.33190  0.30714  1.0000
  N   N15       1.0  0.11459  0.29100  0.32204  1.0000
  C   C249      1.0  0.10505  0.28291  0.29309  1.0000
  C   C250      1.0  0.26049  0.24950  0.47154  1.0000
  N   N16       1.0  0.22014  0.24838  0.11378  1.0000
  Fe  Fe36      1.0  0.05956  0.24853  0.36818  1.0000
  H   H412      1.0  0.08095  0.48041  0.29892  1.0000
  C   C251      1.0  0.08028  0.45069  0.48013  1.0000
  C   C252      1.0  0.31173  0.47359  0.25688  1.0000
  C   C253      1.0  0.29770  0.46314  0.27689  1.0000
  H   H413      1.0  0.99005  0.47976  0.22662  1.0000
  H   H414      1.0  0.99496  0.46410  0.20862  1.0000
  H   H415      1.0  0.28521  0.28066  0.47183  1.0000
  H   H416      1.0  0.03836  0.35693  0.02442  1.0000
  C   C254      1.0  0.31766  0.45044  0.08581  1.0000
  C   C255      1.0  0.09917  0.24389  0.37052  1.0000
  H   H417      1.0  0.31663  0.38273  0.35709  1.0000
  H   H418      1.0  0.25055  0.25076  0.98964  1.0000
  N   N17       1.0  0.09660  0.46563  0.48360  1.0000
  H   H419      1.0  0.99244  0.26690  0.36293  1.0000
  H   H420      1.0  0.99938  0.24502  0.38882  1.0000
  H   H421      1.0  0.15672  0.24850  0.44607  1.0000
  C   C256      1.0  0.12827  0.47255  0.48722  1.0000
  H   H422      1.0  0.06953  0.45360  0.48497  1.0000
  Fe  Fe37      1.0  0.12747  0.42627  0.48755  1.0000
  H   H423      1.0  0.01232  0.24265  0.02409  1.0000
  H   H424      1.0  0.22045  0.44142  0.48707  1.0000
  H   H425      1.0  0.31277  0.48645  0.25941  1.0000
  H   H426      1.0  0.18256  0.25022  0.46881  1.0000
  H   H427      1.0  0.12958  0.24310  0.48125  1.0000
  C   C257      1.0  0.23593  0.24226  0.24334  1.0000
  C   C258      1.0  0.21972  0.24298  0.08147  1.0000
  C   C259      1.0  0.09303  0.49130  0.29920  1.0000
  C   C260      1.0  0.98827  0.24174  0.37297  1.0000
  Fe  Fe38      1.0  0.04166  0.44656  0.69588  1.0000
  S   S77       1.0  0.05760  0.46157  0.73530  1.0000
  S   S78       1.0  0.01342  0.43257  0.69128  1.0000
  Fe  Fe39      1.0  0.07126  0.45788  0.65432  1.0000
  S   S79       1.0  0.08909  0.47443  0.69090  1.0000
  S   S80       1.0  0.07462  0.45179  0.60542  1.0000
  Fe  Fe40      1.0  0.07703  0.45300  0.72085  1.0000
  S   S81       1.0  0.09266  0.44176  0.74684  1.0000
  H   H428      1.0  0.29566  0.34600  0.86165  1.0000
  S   S82       1.0  0.06010  0.43629  0.68365  1.0000
  S   S83       1.0  0.05144  0.46709  0.66387  1.0000
  Fe  Fe41      1.0  0.04732  0.27408  0.87465  1.0000
  S   S84       1.0  0.05720  0.26163  0.90878  1.0000
  S   S85       1.0  0.05879  0.30111  0.86341  1.0000
  S   S86       1.0  0.02056  0.25936  0.88406  1.0000
  S   S87       1.0  0.04681  0.25713  0.83633  1.0000
  Fe  Fe42      1.0  0.10326  0.38799  0.94775  1.0000
  S   S88       1.0  0.11624  0.39878  0.90616  1.0000
  S   S89       1.0  0.08450  0.36218  0.95715  1.0000
  H   H429      1.0  0.26418  0.28513  0.53844  1.0000
  S   S90       1.0  0.13549  0.43357  0.94658  1.0000
  S   S91       1.0  0.12990  0.43895  0.53391  1.0000
  Fe  Fe43      1.0  0.11149  0.42109  0.91812  1.0000
  S   S92       1.0  0.10171  0.43633  0.88840  1.0000
  Fe  Fe44      1.0  0.13961  0.41055  0.93685  1.0000
  S   S93       1.0  0.16256  0.40834  0.91787  1.0000
  S   S94       1.0  0.09652  0.40934  0.95748  1.0000
  H   H430      1.0  0.18367  0.43131  0.96623  1.0000
  H   H431      1.0  0.17401  0.31556  0.82389  1.0000
  S   S95       1.0  0.22167  0.26634  0.86667  1.0000
  Fe  Fe45      1.0  0.17618  0.25830  0.88722  1.0000
  S   S96       1.0  0.18612  0.26710  0.84236  1.0000
  S   S97       1.0  0.15252  0.25971  0.90468  1.0000
  C   C261      1.0  0.02399  0.29645  0.72887  1.0000
  Fe  Fe46      1.0  0.20946  0.28418  0.86843  1.0000
  S   S98       1.0  0.22006  0.31098  0.85525  1.0000
  S   S99       1.0  0.19922  0.27634  0.91314  1.0000
  Fe  Fe47      1.0  0.28649  0.42640  0.89875  1.0000
  S   S100      1.0  0.29811  0.41409  0.92991  1.0000
  H   H432      1.0  0.05146  0.28856  0.79964  1.0000
  Fe  Fe48      1.0  0.26069  0.42552  0.94435  1.0000
  H   H433      1.0  0.08882  0.39084  0.60434  1.0000
  S   S101      1.0  0.24036  0.43406  0.95694  1.0000
  H   H434      1.0  0.02246  0.26026  0.79069  1.0000
  N   N18       1.0  0.09611  0.41421  0.65421  1.0000
  Fe  Fe49      1.0  0.27181  0.39740  0.93958  1.0000
  S   S102      1.0  0.26515  0.37010  0.94520  1.0000
  S   S103      1.0  0.28626  0.44443  0.93460  1.0000
  S   S104      1.0  0.26004  0.40852  0.90601  1.0000
  C   C262      1.0  0.99375  0.41410  0.77045  1.0000
  H   H435      1.0  0.30318  0.46480  0.88132  1.0000
  H   H436      1.0  0.12195  0.44046  0.69098  1.0000
  H   H437      1.0  0.11889  0.41437  0.67523  1.0000
  H   H438      1.0  0.29584  0.48688  0.49664  1.0000
  H   H439      1.0  0.99363  0.44767  0.75608  1.0000
  H   H440      1.0  0.27051  0.28748  0.50153  1.0000
  C   C263      1.0  0.23175  0.32719  0.88136  1.0000
  C   C264      1.0  0.23927  0.32434  0.90758  1.0000
  C   C265      1.0  0.24919  0.33760  0.92715  1.0000
  C   C266      1.0  0.25150  0.35380  0.92097  1.0000
  C   C267      1.0  0.24356  0.35661  0.89517  1.0000
  C   C268      1.0  0.23390  0.34337  0.87527  1.0000
  H   H441      1.0  0.23771  0.31194  0.91252  1.0000
  H   H442      1.0  0.25525  0.33531  0.94709  1.0000
  H   H443      1.0  0.24503  0.36899  0.89041  1.0000
  H   H444      1.0  0.22803  0.34566  0.85511  1.0000
  C   C269      1.0  0.20844  0.43211  0.96200  1.0000
  H   H445      1.0  0.10747  0.40081  0.72180  1.0000
  C   C270      1.0  0.30381  0.28086  0.50441  1.0000
  H   H446      1.0  0.29492  0.45186  0.50190  1.0000
  C   C271      1.0  0.08371  0.47384  0.52930  1.0000
  H   H447      1.0  0.30028  0.28656  0.52360  1.0000
  H   H448      1.0  0.99075  0.47069  0.70352  1.0000
  C   C272      1.0  0.99841  0.24448  0.49381  1.0000
  H   H449      1.0  0.30392  0.42373  0.54910  1.0000
  H   H450      1.0  0.31288  0.46350  0.54544  1.0000
  C   C273      1.0  0.18393  0.41501  0.93041  1.0000
  C   C274      1.0  0.19408  0.40906  0.91492  1.0000
  C   C275      1.0  0.21123  0.41443  0.92309  1.0000
  C   C276      1.0  0.21857  0.42609  0.94662  1.0000
  H   H451      1.0  0.13035  0.47633  0.51134  1.0000
  C   C277      1.0  0.19123  0.42654  0.95414  1.0000
  H   H452      1.0  0.04967  0.31954  0.77149  1.0000
  H   H453      1.0  0.21881  0.40973  0.91093  1.0000
  C   C278      1.0  0.27933  0.47385  0.54717  1.0000
  C   C279      1.0  0.02816  0.47202  0.78406  1.0000
  H   H454      1.0  0.10916  0.39382  0.62062  1.0000
  C   C280      1.0  0.12122  0.25986  0.90439  1.0000
  C   C281      1.0  0.10429  0.25485  0.89480  1.0000
  H   H455      1.0  0.12641  0.26877  0.92283  1.0000
  H   H456      1.0  0.09669  0.26003  0.90567  1.0000
  C   C282      1.0  0.07809  0.34527  0.93099  1.0000
  C   C283      1.0  0.06879  0.32933  0.94066  1.0000
  C   C284      1.0  0.06309  0.31562  0.92040  1.0000
  C   C285      1.0  0.06643  0.31779  0.89013  1.0000
  C   C286      1.0  0.07572  0.33372  0.88045  1.0000
  C   C287      1.0  0.08164  0.34739  0.90080  1.0000
  H   H457      1.0  0.06598  0.32758  0.96396  1.0000
  H   H458      1.0  0.05591  0.30343  0.92810  1.0000
  H   H459      1.0  0.07834  0.33552  0.85708  1.0000
  H   H460      1.0  0.08872  0.35960  0.89306  1.0000
  C   C288      1.0  0.09432  0.43977  0.78625  1.0000
  C   C289      1.0  0.08878  0.44835  0.80641  1.0000
  C   C290      1.0  0.09101  0.44699  0.83753  1.0000
  C   C291      1.0  0.09854  0.43686  0.84892  1.0000
  C   C292      1.0  0.10386  0.42806  0.82875  1.0000
  C   C293      1.0  0.10191  0.42966  0.79761  1.0000
  H   H461      1.0  0.08298  0.45622  0.79807  1.0000
  H   H462      1.0  0.08686  0.45386  0.85292  1.0000
  H   H463      1.0  0.10951  0.42011  0.83719  1.0000
  H   H464      1.0  0.10620  0.42292  0.78223  1.0000
  C   C294      1.0  0.11424  0.44158  0.55457  1.0000
  C   C295      1.0  0.09726  0.43337  0.54626  1.0000
  C   C296      1.0  0.08534  0.43646  0.56239  1.0000
  C   C297      1.0  0.09014  0.44750  0.58745  1.0000
  C   C298      1.0  0.10708  0.45542  0.59621  1.0000
  C   C299      1.0  0.11903  0.45247  0.57985  1.0000
  H   H465      1.0  0.09333  0.42475  0.52719  1.0000
  H   H466      1.0  0.07228  0.43026  0.55537  1.0000
  H   H467      1.0  0.11102  0.46413  0.61513  1.0000
  H   H468      1.0  0.13211  0.45889  0.58654  1.0000
  C   C300      1.0  0.99970  0.42402  0.72013  1.0000
  C   C301      1.0  0.00529  0.42144  0.74857  1.0000
  H   H469      1.0  0.02043  0.46063  0.79537  1.0000
  H   H470      1.0  0.01844  0.42482  0.75356  1.0000
  H   H471      1.0  0.07085  0.40483  0.60425  1.0000
  H   H472      1.0  0.02192  0.45859  0.74158  1.0000
  H   H473      1.0  0.06478  0.24961  0.96500  1.0000
  H   H474      1.0  0.10721  0.40264  0.58591  1.0000
  H   H475      1.0  0.08709  0.39923  0.71118  1.0000
  H   H476      1.0  0.21395  0.44114  0.98019  1.0000
  N   N19       1.0  0.21580  0.24862  0.65891  1.0000
  H   H477      1.0  0.23589  0.24277  0.89013  1.0000
  H   H478      1.0  0.30501  0.45970  0.59748  1.0000
  H   H479      1.0  0.00519  0.28686  0.76003  1.0000
  H   H480      1.0  0.07199  0.40307  0.67320  1.0000
  H   H481      1.0  0.31347  0.39262  0.87279  1.0000
  H   H482      1.0  0.14048  0.31792  0.90436  1.0000
  H   H483      1.0  0.19169  0.34804  0.90715  1.0000
  H   H484      1.0  0.18062  0.43325  0.86795  1.0000
  C   C302      1.0  0.18492  0.44591  0.87781  1.0000
  H   H485      1.0  0.25666  0.25373  0.52981  1.0000
  C   C303      1.0  0.30773  0.47184  0.58764  1.0000
  C   C304      1.0  0.10195  0.39972  0.60829  1.0000
  H   H486      1.0  0.27925  0.44709  0.57735  1.0000
  H   H487      1.0  0.28956  0.25024  0.52586  1.0000
  N   N20       1.0  0.28798  0.46279  0.53958  1.0000
  H   H488      1.0  0.10282  0.39449  0.66865  1.0000
  C   C305      1.0  0.31437  0.44638  0.80396  1.0000
  H   H489      1.0  0.01077  0.47454  0.66483  1.0000
  H   H490      1.0  0.27672  0.45492  0.49439  1.0000
  C   C306      1.0  0.13141  0.25332  0.89059  1.0000
  H   H491      1.0  0.03722  0.29905  0.72621  1.0000
  H   H492      1.0  0.22865  0.24505  0.62092  1.0000
  H   H493      1.0  0.29507  0.36070  0.90626  1.0000
  C   C307      1.0  0.26267  0.27824  0.51678  1.0000
  H   H494      1.0  0.02756  0.48286  0.79557  1.0000
  C   C308      1.0  0.09714  0.24280  0.87181  1.0000
  H   H495      1.0  0.28881  0.34496  0.82247  1.0000
  H   H496      1.0  0.23016  0.25367  0.70138  1.0000
  H   H497      1.0  0.01602  0.28558  0.71438  1.0000
  H   H498      1.0  0.18863  0.40021  0.89644  1.0000
  H   H499      1.0  0.99633  0.28485  0.80710  1.0000
  C   C309      1.0  0.30685  0.39689  0.81290  1.0000
  H   H500      1.0  0.05029  0.31633  0.81133  1.0000
  H   H501      1.0  0.31234  0.48315  0.54535  1.0000
  C   C310      1.0  0.23144  0.25058  0.64386  1.0000
  H   H502      1.0  0.18018  0.46657  0.83384  1.0000
  C   C311      1.0  0.10050  0.40668  0.70859  1.0000
  H   H503      1.0  0.27511  0.33236  0.84884  1.0000
  H   H504      1.0  0.22187  0.25242  0.53171  1.0000
  H   H505      1.0  0.23014  0.25375  0.79393  1.0000
  C   C312      1.0  0.26116  0.43593  0.54191  1.0000
  H   H506      1.0  0.20560  0.31617  0.92968  1.0000
  C   C313      1.0  0.31357  0.44028  0.83298  1.0000
  H   H507      1.0  0.30003  0.47765  0.59756  1.0000
  N   N21       1.0  0.16888  0.31194  0.88822  1.0000
  C   C314      1.0  0.16087  0.30054  0.86123  1.0000
  C   C315      1.0  0.15749  0.30559  0.91358  1.0000
  C   C316      1.0  0.18552  0.31127  0.89580  1.0000
  C   C317      1.0  0.17117  0.32907  0.88005  1.0000
  C   C318      1.0  0.17145  0.30344  0.83354  1.0000
  H   H508      1.0  0.03190  0.27079  0.72654  1.0000
  C   C319      1.0  0.19271  0.31554  0.92845  1.0000
  H   H509      1.0  0.25939  0.43381  0.51734  1.0000
  N   N22       1.0  0.27424  0.25779  0.49550  1.0000
  H   H510      1.0  0.14907  0.30134  0.85329  1.0000
  H   H511      1.0  0.16288  0.31265  0.93489  1.0000
  H   H512      1.0  0.15586  0.29279  0.91838  1.0000
  H   H513      1.0  0.18483  0.29868  0.89096  1.0000
  H   H514      1.0  0.19517  0.31954  0.88136  1.0000
  H   H515      1.0  0.18017  0.33357  0.86221  1.0000
  H   H516      1.0  0.10382  0.46649  0.53085  1.0000
  H   H517      1.0  0.09831  0.42223  0.60863  1.0000
  H   H518      1.0  0.30312  0.37162  0.81322  1.0000
  H   H519      1.0  0.24973  0.25294  0.75624  1.0000
  C   C320      1.0  0.30547  0.37918  0.87153  1.0000
  C   C321      1.0  0.13998  0.30550  0.90876  1.0000
  H   H520      1.0  0.29548  0.38072  0.91521  1.0000
  H   H521      1.0  0.19348  0.32757  0.93688  1.0000
  C   C322      1.0  0.20534  0.25577  0.64146  1.0000
  C   C323      1.0  0.09908  0.47327  0.51490  1.0000
  S   S105      1.0  0.22719  0.25434  0.94676  1.0000
  H   H522      1.0  0.06718  0.41869  0.63002  1.0000
  N   N23       1.0  0.02716  0.28559  0.78131  1.0000
  C   C324      1.0  0.02187  0.28609  0.81285  1.0000
  C   C325      1.0  0.04593  0.29416  0.78254  1.0000
  C   C326      1.0  0.01515  0.47973  0.68795  1.0000
  C   C327      1.0  0.01893  0.29401  0.76157  1.0000
  H   H523      1.0  0.25290  0.44158  0.55005  1.0000
  H   H524      1.0  0.31741  0.24871  0.52128  1.0000
  H   H525      1.0  0.27678  0.26703  0.54177  1.0000
  H   H526      1.0  0.31331  0.48349  0.86143  1.0000
  H   H527      1.0  0.15469  0.46321  0.80126  1.0000
  H   H528      1.0  0.02593  0.29892  0.82183  1.0000
  C   C328      1.0  0.99349  0.46002  0.75960  1.0000
  H   H529      1.0  0.02797  0.28024  0.82832  1.0000
  C   C329      1.0  0.11547  0.44397  0.67235  1.0000
  H   H530      1.0  0.31418  0.37758  0.91719  1.0000
  C   C330      1.0  0.14633  0.42014  0.84989  1.0000
  H   H531      1.0  0.02051  0.30612  0.77166  1.0000
  H   H532      1.0  0.15346  0.46629  0.91404  1.0000
  H   H533      1.0  0.99564  0.46267  0.78421  1.0000
  H   H534      1.0  0.00584  0.49008  0.77624  1.0000
  H   H535      1.0  0.25759  0.46055  0.51396  1.0000
  H   H536      1.0  0.14463  0.42006  0.87415  1.0000
  H   H537      1.0  0.30046  0.40518  0.81639  1.0000
  C   C331      1.0  0.02144  0.26767  0.77150  1.0000
  H   H538      1.0  0.31348  0.37330  0.86286  1.0000
  H   H539      1.0  0.02386  0.25035  0.73926  1.0000
  H   H540      1.0  0.07724  0.47983  0.51543  1.0000
  C   C332      1.0  0.28909  0.46065  0.50633  1.0000
  H   H541      1.0  0.24942  0.27365  0.50853  1.0000
  H   H542      1.0  0.25176  0.27280  0.66360  1.0000
  H   H543      1.0  0.19331  0.45486  0.86266  1.0000
  H   H544      1.0  0.10845  0.44890  0.49277  1.0000
  N   N24       1.0  0.29030  0.37551  0.85076  1.0000
  H   H545      1.0  0.10883  0.48610  0.51576  1.0000
  H   H546      1.0  0.16437  0.29392  0.81587  1.0000
  C   C333      1.0  0.27814  0.35779  0.85213  1.0000
  C   C334      1.0  0.28179  0.38636  0.86022  1.0000
  H   H547      1.0  0.13382  0.41336  0.83858  1.0000
  H   H548      1.0  0.99722  0.26487  0.80808  1.0000
  H   H549      1.0  0.04333  0.26475  0.75525  1.0000
  C   C335      1.0  0.26739  0.38609  0.83877  1.0000
  H   H550      1.0  0.19247  0.44630  0.89866  1.0000
  H   H551      1.0  0.11472  0.45563  0.67979  1.0000
  H   H552      1.0  0.28488  0.37444  0.80274  1.0000
  C   C336      1.0  0.16941  0.46746  0.84455  1.0000
  C   C337      1.0  0.14629  0.46654  0.89317  1.0000
  H   H553      1.0  0.26740  0.35493  0.83567  1.0000
  H   H554      1.0  0.27649  0.38290  0.88245  1.0000
  H   H555      1.0  0.29089  0.39940  0.86341  1.0000
  H   H556      1.0  0.17502  0.47800  0.86111  1.0000
  H   H557      1.0  0.27257  0.35531  0.87428  1.0000
  H   H558      1.0  0.12309  0.44673  0.65251  1.0000
  C   C338      1.0  0.22105  0.25745  0.68923  1.0000
  C   C339      1.0  0.24448  0.26842  0.64187  1.0000
  H   H559      1.0  0.26184  0.24798  0.92191  1.0000
  H   H560      1.0  0.07622  0.38971  0.64849  1.0000
  H   H561      1.0  0.23880  0.27703  0.63529  1.0000
  H   H562      1.0  0.27166  0.39088  0.81657  1.0000
  H   H563      1.0  0.26204  0.39433  0.84829  1.0000
  H   H564      1.0  0.25714  0.37368  0.83589  1.0000
  C   C340      1.0  0.30211  0.37413  0.90422  1.0000
  H   H565      1.0  0.00203  0.25757  0.49729  1.0000
  C   C341      1.0  0.03080  0.26346  0.74662  1.0000
  H   H566      1.0  0.02242  0.30745  0.72044  1.0000
  H   H567      1.0  0.03371  0.47982  0.73943  1.0000
  H   H568      1.0  0.11723  0.42379  0.62626  1.0000
  H   H569      1.0  0.27505  0.47182  0.57040  1.0000
  C   C342      1.0  0.07789  0.40273  0.65186  1.0000
  H   H570      1.0  0.25346  0.26875  0.62495  1.0000
  C   C343      1.0  0.10366  0.41588  0.62424  1.0000
  H   H571      1.0  0.14965  0.47540  0.82875  1.0000
  Fe  Fe50      1.0  0.19765  0.24853  0.84412  1.0000
  H   H572      1.0  0.15738  0.28747  0.86714  1.0000
  C   C344      1.0  0.00298  0.27773  0.81711  1.0000
  C   C345      1.0  0.06711  0.40628  0.62707  1.0000
  H   H573      1.0  0.20915  0.26901  0.64784  1.0000
  H   H574      1.0  0.30322  0.44637  0.79270  1.0000
  H   H575      1.0  0.15375  0.41286  0.84550  1.0000
  H   H576      1.0  0.05115  0.29252  0.76131  1.0000
  H   H577      1.0  0.17292  0.33847  0.92720  1.0000
  C   C346      1.0  0.05339  0.31294  0.78923  1.0000
  H   H578      1.0  0.13239  0.29658  0.89068  1.0000
  C   C347      1.0  0.00240  0.46917  0.70978  1.0000
  H   H579      1.0  0.15955  0.32927  0.86946  1.0000
  C   C348      1.0  0.10517  0.40734  0.67564  1.0000
  H   H580      1.0  0.17368  0.35255  0.89976  1.0000
  H   H581      1.0  0.06719  0.31762  0.78998  1.0000
  H   H582      1.0  0.04124  0.47327  0.78672  1.0000
  H   H583      1.0  0.13674  0.44061  0.88293  1.0000
  C   C349      1.0  0.30564  0.47043  0.55311  1.0000
  H   H584      1.0  0.09182  0.43636  0.64845  1.0000
  H   H585      1.0  0.21201  0.26426  0.72957  1.0000
  H   H586      1.0  0.31050  0.42826  0.60408  1.0000
  C   C350      1.0  0.17785  0.34261  0.90514  1.0000
  H   H587      1.0  0.18331  0.30213  0.83836  1.0000
  H   H588      1.0  0.00095  0.27728  0.84147  1.0000
  C   C351      1.0  0.28511  0.34476  0.84586  1.0000
  H   H589      1.0  0.09062  0.42985  0.68565  1.0000
  C   C352      1.0  0.14384  0.45207  0.87124  1.0000
  H   H590      1.0  0.17563  0.46167  0.89998  1.0000
  Fe  Fe51      1.0  0.06823  0.48199  0.70262  1.0000
  H   H591      1.0  0.21774  0.26352  0.59898  1.0000
  C   C353      1.0  0.29580  0.37878  0.81921  1.0000
  H   H592      1.0  0.19654  0.25731  0.69909  1.0000
  S   S106      1.0  0.29420  0.43309  0.85058  1.0000
  C   C354      1.0  0.17019  0.45008  0.88593  1.0000
  H   H593      1.0  0.18549  0.30571  0.94357  1.0000
  H   H594      1.0  0.16268  0.44067  0.90153  1.0000
  H   H595      1.0  0.00800  0.26227  0.76394  1.0000
  H   H596      1.0  0.10404  0.41910  0.71897  1.0000
  H   H597      1.0  0.22770  0.27096  0.68685  1.0000
  N   N25       1.0  0.15954  0.45174  0.85981  1.0000
  H   H598      1.0  0.15222  0.47864  0.88287  1.0000
  Fe  Fe52      1.0  0.20954  0.25705  0.91005  1.0000
  H   H599      1.0  0.05398  0.39735  0.62829  1.0000
  H   H600      1.0  0.16582  0.43810  0.82550  1.0000
  Fe  Fe53      1.0  0.29657  0.43104  0.96669  1.0000
  H   H601      1.0  0.22508  0.39797  0.50045  1.0000
  C   C355      1.0  0.09762  0.43091  0.66518  1.0000
  C   C356      1.0  0.30842  0.47840  0.88317  1.0000
  C   C357      1.0  0.15476  0.43754  0.83734  1.0000
  C   C358      1.0  0.20557  0.25504  0.60689  1.0000
  H   H602      1.0  0.25498  0.47456  0.53965  1.0000
  H   H603      1.0  0.13322  0.30147  0.92953  1.0000
  H   H604      1.0  0.28643  0.43838  0.54800  1.0000
  C   C359      1.0  0.15980  0.47259  0.81984  1.0000
  C   C360      1.0  0.26786  0.26383  0.52180  1.0000
  C   C361      1.0  0.27944  0.44607  0.55259  1.0000
  H   H605      1.0  0.99975  0.45608  0.70410  1.0000
  C   C362      1.0  0.26430  0.47250  0.52615  1.0000
  H   H606      1.0  0.08002  0.44150  0.49695  1.0000
  S   S107      1.0  0.12670  0.39822  0.97761  1.0000
  H   H607      1.0  0.99813  0.41185  0.79223  1.0000
  H   H608      1.0  0.13513  0.45210  0.85246  1.0000
  H   H609      1.0  0.25695  0.42357  0.55162  1.0000
  H   H610      1.0  0.14595  0.43836  0.81942  1.0000
  H   H611      1.0  0.08779  0.48099  0.55098  1.0000
  S   S108      1.0  0.27112  0.41333  0.97880  1.0000
  H   H612      1.0  0.26480  0.24728  0.88296  1.0000
  H   H613      1.0  0.19608  0.25910  0.59712  1.0000
  H   H614      1.0  0.16852  0.48406  0.80999  1.0000
  H   H615      1.0  0.28830  0.48699  0.54703  1.0000
  H   H616      1.0  0.31506  0.48179  0.93020  1.0000
  H   H617      1.0  0.07478  0.46134  0.53486  1.0000
  H   H618      1.0  0.31015  0.27308  0.51266  1.0000
  N   N26       1.0  0.00702  0.47283  0.74283  1.0000
  Fe  Fe54      1.0  0.12060  0.42031  0.98521  1.0000
  C   C363      1.0  0.20696  0.25522  0.71035  1.0000
  C   C364      1.0  0.02294  0.47077  0.75040  1.0000
  H   H619      1.0  0.13388  0.46542  0.89987  1.0000
  H   H620      1.0  0.29793  0.48193  0.88729  1.0000
  H   H621      1.0  0.26811  0.48248  0.50984  1.0000
  Fe  Fe55      1.0  0.03013  0.24531  0.91575  1.0000
  H   H622      1.0  0.04101  0.35883  0.98512  1.0000
  H   H623      1.0  0.19208  0.24966  0.64725  1.0000
  Fe  Fe56      1.0  0.05521  0.24377  0.87131  1.0000
  C   C365      1.0  0.28028  0.24510  0.50663  1.0000
  H   H624      1.0  0.30998  0.39773  0.78903  1.0000
  C   C366      1.0  0.00803  0.48965  0.75196  1.0000
  H   H625      1.0  0.20222  0.24290  0.72021  1.0000
  H   H626      1.0  0.31268  0.48019  0.49419  1.0000
  C   C367      1.0  0.29908  0.47653  0.49011  1.0000
  C   C368      1.0  0.31584  0.43288  0.55761  1.0000
  C   C369      1.0  0.23755  0.24292  0.75658  1.0000
  C   C370      1.0  0.22644  0.24344  0.77800  1.0000
  H   H627      1.0  0.02760  0.47960  0.69187  1.0000
  H   H628      1.0  0.20262  0.24259  0.59728  1.0000
  H   H629      1.0  0.23781  0.24368  0.65577  1.0000
  H   H630      1.0  0.31321  0.29103  0.49253  1.0000
  C   C371      1.0  0.22038  0.24198  0.51730  1.0000
  S   S109      1.0  0.08170  0.51119  0.22394  1.0000
  Fe  Fe57      1.0  0.11540  0.70725  0.40862  1.0000
  S   S110      1.0  0.10014  0.70407  0.44917  1.0000
  S   S111      1.0  0.10230  0.69635  0.36270  1.0000
  H   H631      1.0  0.02146  0.51989  0.21592  1.0000
  C   C372      1.0  0.03585  0.61654  0.32944  1.0000
  H   H632      1.0  0.06547  0.51528  0.16746  1.0000
  S   S112      1.0  0.12945  0.69517  0.02470  1.0000
  Fe  Fe58      1.0  0.11281  0.73165  0.45482  1.0000
  H   H633      1.0  0.08726  0.49542  0.47390  1.0000
  S   S113      1.0  0.13704  0.70571  0.43525  1.0000
  H   H634      1.0  0.00989  0.61131  0.33594  1.0000
  Fe  Fe59      1.0  0.07324  0.59790  0.18779  1.0000
  S   S114      1.0  0.05740  0.60718  0.15934  1.0000
  S   S115      1.0  0.06989  0.57228  0.17008  1.0000
  Fe  Fe60      1.0  0.08582  0.62961  0.22733  1.0000
  S   S116      1.0  0.07086  0.64081  0.20092  1.0000
  S   S117      1.0  0.10187  0.64027  0.27058  1.0000
  Fe  Fe61      1.0  0.05038  0.61539  0.20192  1.0000
  S   S118      1.0  0.02338  0.61110  0.20565  1.0000
  Fe  Fe62      1.0  0.07915  0.63184  0.15963  1.0000
  S   S119      1.0  0.08105  0.64226  0.11212  1.0000
  S   S120      1.0  0.06462  0.60459  0.23058  1.0000
  S   S121      1.0  0.09563  0.62213  0.18599  1.0000
  H   H635      1.0  0.05475  0.65938  0.37852  1.0000
  C   C373      1.0  0.01020  0.59733  0.23067  1.0000
  C   C374      1.0  0.01640  0.59051  0.25359  1.0000
  C   C375      1.0  0.00542  0.57960  0.27308  1.0000
  H   H636      1.0  0.16495  0.72324  0.47844  1.0000
  H   H637      1.0  0.02957  0.59353  0.25622  1.0000
  H   H638      1.0  0.05654  0.59947  0.32146  1.0000
  C   C376      1.0  0.11590  0.68004  0.04833  1.0000
  C   C377      1.0  0.12139  0.67939  0.07822  1.0000
  C   C378      1.0  0.11104  0.66794  0.09805  1.0000
  C   C379      1.0  0.09502  0.65681  0.08820  1.0000
  C   C380      1.0  0.08967  0.65720  0.05814  1.0000
  C   C381      1.0  0.09997  0.66871  0.03838  1.0000
  H   H639      1.0  0.13371  0.68797  0.08623  1.0000
  H   H640      1.0  0.11544  0.66784  0.12100  1.0000
  H   H641      1.0  0.07739  0.64856  0.05008  1.0000
  H   H642      1.0  0.09561  0.66875  0.01538  1.0000
  C   C382      1.0  0.10330  0.68133  0.33693  1.0000
  C   C383      1.0  0.11169  0.67134  0.34406  1.0000
  C   C384      1.0  0.11141  0.65910  0.32325  1.0000
  C   C385      1.0  0.10266  0.65659  0.29516  1.0000
  C   C386      1.0  0.09444  0.66672  0.28788  1.0000
  C   C387      1.0  0.09479  0.67900  0.30862  1.0000
  H   H643      1.0  0.11830  0.67297  0.36569  1.0000
  H   H644      1.0  0.11788  0.65140  0.32911  1.0000
  H   H645      1.0  0.08782  0.66511  0.26628  1.0000
  H   H646      1.0  0.08834  0.68672  0.30278  1.0000
  C   C388      1.0  0.07782  0.52785  0.20887  1.0000
  C   C389      1.0  0.08332  0.54286  0.22561  1.0000
  C   C390      1.0  0.08091  0.55654  0.21434  1.0000
  C   C391      1.0  0.07306  0.55542  0.18597  1.0000
  C   C392      1.0  0.06747  0.54040  0.16930  1.0000
  C   C393      1.0  0.06975  0.52669  0.18067  1.0000
  H   H647      1.0  0.08956  0.54393  0.24745  1.0000
  H   H648      1.0  0.08528  0.56796  0.22749  1.0000
  H   H649      1.0  0.06136  0.53934  0.14733  1.0000
  C   C394      1.0  0.06781  0.61103  0.31996  1.0000
  H   H650      1.0  0.07385  0.67942  0.09177  1.0000
  N   N27       1.0  0.10185  0.60012  0.09899  1.0000
  C   C395      1.0  0.10020  0.58288  0.10518  1.0000
  C   C396      1.0  0.08594  0.60114  0.10771  1.0000
  C   C397      1.0  0.11619  0.61184  0.11898  1.0000
  C   C398      1.0  0.10505  0.60337  0.06633  1.0000
  C   C399      1.0  0.11573  0.57935  0.10047  1.0000
  C   C400      1.0  0.06981  0.58864  0.09145  1.0000
  C   C401      1.0  0.11989  0.63028  0.11757  1.0000
  C   C402      1.0  0.10041  0.61691  0.05238  1.0000
  H   H651      1.0  0.09669  0.57972  0.12866  1.0000
  H   H652      1.0  0.08999  0.57361  0.09064  1.0000
  H   H653      1.0  0.08605  0.61342  0.10438  1.0000
  H   H654      1.0  0.08453  0.59939  0.13213  1.0000
  H   H655      1.0  0.11423  0.60844  0.14284  1.0000
  H   H656      1.0  0.12804  0.61103  0.11362  1.0000
  H   H657      1.0  0.11839  0.60656  0.06245  1.0000
  H   H658      1.0  0.09786  0.59193  0.05246  1.0000
  H   H659      1.0  0.12078  0.58303  0.07823  1.0000
  H   H660      1.0  0.12558  0.58529  0.11849  1.0000
  H   H661      1.0  0.11219  0.56588  0.10175  1.0000
  H   H662      1.0  0.05950  0.59250  0.09525  1.0000
  H   H663      1.0  0.07085  0.58786  0.06696  1.0000
  H   H664      1.0  0.06610  0.57623  0.10077  1.0000
  H   H665      1.0  0.12995  0.63719  0.13476  1.0000
  H   H666      1.0  0.10912  0.63303  0.12286  1.0000
  H   H667      1.0  0.12461  0.63526  0.09568  1.0000
  H   H668      1.0  0.10963  0.62345  0.03578  1.0000
  H   H669      1.0  0.10027  0.62651  0.06818  1.0000
  H   H670      1.0  0.08823  0.61134  0.03944  1.0000
  N   N28       1.0  0.12103  0.50142  0.27371  1.0000
  H   H671      1.0  0.14295  0.53371  0.24891  1.0000
  C   C403      1.0  0.05364  0.63163  0.28887  1.0000
  C   C404      1.0  0.04103  0.55347  0.23454  1.0000
  H   H672      1.0  0.04634  0.64069  0.24823  1.0000
  N   N29       1.0  0.05215  0.63021  0.32236  1.0000
  H   H673      1.0  0.05345  0.65565  0.27841  1.0000
  H   H674      1.0  0.01024  0.57436  0.29087  1.0000
  H   H675      1.0  0.11840  0.72065  0.04531  1.0000
  C   C405      1.0  0.05455  0.64655  0.33670  1.0000
  C   C406      1.0  0.06797  0.69798  0.06742  1.0000
  H   H676      1.0  0.02095  0.63164  0.32553  1.0000
  C   C407      1.0  0.01980  0.61896  0.32133  1.0000
  H   H677      1.0  0.06652  0.70304  0.08956  1.0000
  C   C408      1.0  0.06606  0.62594  0.33505  1.0000
  H   H678      1.0  0.03574  0.61331  0.35340  1.0000
  H   H679      1.0  0.06694  0.63692  0.28331  1.0000
  H   H680      1.0  0.04813  0.61928  0.27736  1.0000
  H   H681      1.0  0.06683  0.65617  0.33131  1.0000
  H   H682      1.0  0.07831  0.63661  0.33389  1.0000
  C   C409      1.0  0.04600  0.64238  0.27281  1.0000
  H   H683      1.0  0.03285  0.63905  0.27752  1.0000
  C   C410      1.0  0.07098  0.72925  0.03684  1.0000
  H   H684      1.0  0.02460  0.57728  0.14716  1.0000
  C   C411      1.0  0.06606  0.68016  0.07205  1.0000
  H   H685      1.0  0.03419  0.60491  0.31735  1.0000
  C   C412      1.0  0.02249  0.55043  0.23523  1.0000
  H   H686      1.0  0.09958  0.49210  0.32129  1.0000
  H   H687      1.0  0.07104  0.61318  0.29631  1.0000
  H   H688      1.0  0.05692  0.69713  0.05344  1.0000
  H   H689      1.0  0.05294  0.67232  0.07661  1.0000
  H   H690      1.0  0.06919  0.67476  0.05206  1.0000
  H   H691      1.0  0.01538  0.61501  0.29767  1.0000
  C   C413      1.0  0.05378  0.64703  0.37105  1.0000
  H   H692      1.0  0.09533  0.71434  0.01173  1.0000
  H   H693      1.0  0.99799  0.56143  0.21795  1.0000
  H   H694      1.0  0.13724  0.54468  0.27658  1.0000
  C   C414      1.0  0.08499  0.72658  0.05473  1.0000
  H   H695      1.0  0.14458  0.50582  0.29729  1.0000
  C   C415      1.0  0.09805  0.70932  0.07564  1.0000
  H   H696      1.0  0.01478  0.72320  0.36308  1.0000
  H   H697      1.0  0.99952  0.51468  0.21775  1.0000
  H   H698      1.0  0.04536  0.65112  0.32762  1.0000
  H   H699      1.0  0.12912  0.50689  0.32045  1.0000
  H   H700      1.0  0.98826  0.59841  0.20960  1.0000
  Fe  Fe63      1.0  0.12233  0.70404  0.47654  1.0000
  H   H701      1.0  0.04317  0.54547  0.21753  1.0000
  H   H702      1.0  0.11783  0.73446  0.07508  1.0000
  H   H703      1.0  0.09852  0.69701  0.07543  1.0000
  H   H704      1.0  0.99138  0.71879  0.30624  1.0000
  N   N30       1.0  0.08405  0.70926  0.05464  1.0000
  H   H705      1.0  0.00186  0.53104  0.16885  1.0000
  H   H706      1.0  0.04886  0.56651  0.23006  1.0000
  H   H707      1.0  0.11618  0.52112  0.29473  1.0000
  C   C416      1.0  0.07051  0.69560  0.00245  1.0000
  H   H708      1.0  0.06467  0.62324  0.35921  1.0000
  H   H709      1.0  0.09670  0.73512  0.04514  1.0000
  C   C417      1.0  0.00996  0.51859  0.20282  1.0000
  H   H710      1.0  0.00731  0.50837  0.18603  1.0000
  H   H711      1.0  0.02645  0.57586  0.20331  1.0000
  H   H712      1.0  0.01363  0.71315  0.31478  1.0000
  H   H713      1.0  0.12498  0.71871  0.08272  1.0000
  H   H714      1.0  0.09197  0.69469  0.02510  1.0000
  S   S122      1.0  0.13402  0.73167  0.48513  1.0000
  H   H715      1.0  0.06051  0.69981  0.00589  1.0000
  C   C418      1.0  0.13102  0.49997  0.30103  1.0000
  Fe  Fe64      1.0  0.14717  0.73347  0.44249  1.0000
  H   H716      1.0  0.12158  0.50129  0.22539  1.0000
  H   H717      1.0  0.11309  0.51965  0.25510  1.0000
  H   H718      1.0  0.06560  0.68198  0.00308  1.0000
  H   H719      1.0  0.14159  0.50832  0.24440  1.0000
  C   C419      1.0  0.12128  0.51852  0.27392  1.0000
  H   H720      1.0  0.14792  0.53227  0.28842  1.0000
  H   H721      1.0  0.01634  0.53918  0.24802  1.0000
  C   C420      1.0  0.02354  0.56463  0.18876  1.0000
  H   H722      1.0  0.04549  0.55093  0.25674  1.0000
  C   C421      1.0  0.11573  0.72161  0.06900  1.0000
  H   H723      1.0  0.08992  0.50214  0.29656  1.0000
  C   C422      1.0  0.03941  0.71833  0.31637  1.0000
  H   H724      1.0  0.09600  0.71188  0.09925  1.0000
  H   H725      1.0  0.01081  0.55596  0.14400  1.0000
  H   H726      1.0  0.08530  0.73123  0.07815  1.0000
  C   C423      1.0  0.99301  0.59310  0.22729  1.0000
  H   H727      1.0  0.99083  0.53707  0.25283  1.0000
  C   C424      1.0  0.12852  0.49915  0.24521  1.0000
  C   C425      1.0  0.13847  0.53293  0.27186  1.0000
  C   C426      1.0  0.03964  0.73881  0.37978  1.0000
  H   H728      1.0  0.04185  0.63785  0.37859  1.0000
  H   H729      1.0  0.06444  0.64545  0.38257  1.0000
  C   C427      1.0  0.98817  0.57511  0.26931  1.0000
  H   H730      1.0  0.07829  0.60917  0.33167  1.0000
  H   H731      1.0  0.00495  0.57081  0.16330  1.0000
  C   C428      1.0  0.99666  0.54918  0.20915  1.0000
  C   C429      1.0  0.17004  0.70156  0.48066  1.0000
  S   S123      1.0  0.12657  0.73500  0.41292  1.0000
  H   H732      1.0  0.98942  0.54720  0.18730  1.0000
  H   H733      1.0  0.05186  0.72856  0.31930  1.0000
  H   H734      1.0  0.99193  0.72795  0.34315  1.0000
  C   C430      1.0  0.01229  0.53442  0.18622  1.0000
  H   H735      1.0  0.02362  0.53727  0.17330  1.0000
  N   N31       1.0  0.01364  0.54924  0.20504  1.0000
  H   H736      1.0  0.02189  0.56057  0.24933  1.0000
  H   H737      1.0  0.03707  0.71060  0.33633  1.0000
  H   H738      1.0  0.07137  0.72705  0.01252  1.0000
  H   H739      1.0  0.03581  0.56488  0.18307  1.0000
  C   C431      1.0  0.01529  0.56708  0.15911  1.0000
  H   H740      1.0  0.18601  0.72715  0.47791  1.0000
  N   N32       1.0  0.02615  0.73910  0.32667  1.0000
  H   H741      1.0  0.15671  0.69388  0.48397  1.0000
  C   C432      1.0  0.02517  0.72391  0.30981  1.0000
  C   C433      1.0  0.08632  0.70381  0.02358  1.0000
  H   H742      1.0  0.04735  0.73278  0.37090  1.0000
  C   C434      1.0  0.99427  0.73044  0.31922  1.0000
  H   H743      1.0  0.02372  0.72494  0.28516  1.0000
  H   H744      1.0  0.05847  0.72189  0.04472  1.0000
  H   H745      1.0  0.17176  0.70047  0.45638  1.0000
  H   H746      1.0  0.04031  0.71098  0.29673  1.0000
  H   H747      1.0  0.03592  0.73386  0.40220  1.0000
  C   C435      1.0  0.02393  0.73599  0.35970  1.0000
  S   S124      1.0  0.06690  0.50595  0.72019  1.0000
  Fe  Fe65      1.0  0.12582  0.70971  0.91222  1.0000
  S   S125      1.0  0.10597  0.69981  0.94577  1.0000
  S   S126      1.0  0.12584  0.70205  0.86290  1.0000
  H   H748      1.0  0.21659  0.72856  0.53948  1.0000
  C   C436      1.0  0.02278  0.63212  0.77970  1.0000
  H   H749      1.0  0.08404  0.52333  0.66775  1.0000
  S   S127      1.0  0.12149  0.68420  0.51031  1.0000
  Fe  Fe66      1.0  0.10817  0.72592  0.95016  1.0000
  H   H750      1.0  0.03249  0.50808  0.76893  1.0000
  S   S128      1.0  0.14737  0.71633  0.94700  1.0000
  H   H751      1.0  0.01604  0.49253  0.68810  1.0000
  Fe  Fe67      1.0  0.07734  0.60026  0.68804  1.0000
  S   S129      1.0  0.06183  0.60951  0.65796  1.0000
  S   S130      1.0  0.08357  0.57854  0.67346  1.0000
  Fe  Fe68      1.0  0.08425  0.62793  0.73584  1.0000
  S   S131      1.0  0.06932  0.63875  0.70888  1.0000
  S   S132      1.0  0.09362  0.63424  0.78518  1.0000
  Fe  Fe69      1.0  0.05053  0.61269  0.70064  1.0000
  S   S133      1.0  0.02311  0.60796  0.70336  1.0000
  Fe  Fe70      1.0  0.08188  0.63502  0.66801  1.0000
  S   S134      1.0  0.08975  0.65714  0.63653  1.0000
  S   S135      1.0  0.06468  0.60188  0.72972  1.0000
  S   S136      1.0  0.09818  0.62569  0.69595  1.0000
  S   S137      1.0  0.08544  0.73158  0.95464  1.0000
  C   C437      1.0  0.00857  0.59543  0.72839  1.0000
  C   C438      1.0  0.01277  0.58662  0.75053  1.0000
  N   N33       1.0  0.17627  0.72392  0.52259  1.0000
  H   H752      1.0  0.02207  0.51536  0.74189  1.0000
  H   H753      1.0  0.02519  0.58692  0.75222  1.0000
  H   H754      1.0  0.20855  0.73290  0.50518  1.0000
  C   C439      1.0  0.11205  0.67668  0.54500  1.0000
  C   C440      1.0  0.11234  0.66201  0.55605  1.0000
  C   C441      1.0  0.10541  0.65571  0.58355  1.0000
  C   C442      1.0  0.09825  0.66410  0.60088  1.0000
  C   C443      1.0  0.09810  0.67885  0.58994  1.0000
  C   C444      1.0  0.10481  0.68503  0.56224  1.0000
  H   H755      1.0  0.11789  0.65538  0.54313  1.0000
  H   H756      1.0  0.10573  0.64440  0.59142  1.0000
  H   H757      1.0  0.09264  0.68553  0.60297  1.0000
  H   H758      1.0  0.10445  0.69631  0.55435  1.0000
  C   C445      1.0  0.11562  0.68305  0.84192  1.0000
  C   C446      1.0  0.10930  0.66783  0.85552  1.0000
  C   C447      1.0  0.10254  0.65307  0.83778  1.0000
  C   C448      1.0  0.10168  0.65330  0.80628  1.0000
  C   C449      1.0  0.10754  0.66851  0.79268  1.0000
  C   C450      1.0  0.11462  0.68326  0.81041  1.0000
  H   H759      1.0  0.11007  0.66742  0.87968  1.0000
  H   H760      1.0  0.09806  0.64139  0.84859  1.0000
  H   H761      1.0  0.10704  0.66893  0.76850  1.0000
  H   H762      1.0  0.11950  0.69493  0.79959  1.0000
  C   C451      1.0  0.07064  0.52561  0.70533  1.0000
  C   C452      1.0  0.06499  0.53618  0.72058  1.0000
  C   C453      1.0  0.06811  0.55208  0.71041  1.0000
  C   C454      1.0  0.07743  0.55788  0.68532  1.0000
  C   C455      1.0  0.08302  0.54728  0.67000  1.0000
  C   C456      1.0  0.07954  0.53123  0.67972  1.0000
  H   H763      1.0  0.05819  0.53208  0.74049  1.0000
  H   H764      1.0  0.06356  0.55994  0.72234  1.0000
  H   H765      1.0  0.09022  0.55158  0.65054  1.0000
  H   H766      1.0  0.09677  0.56977  0.74784  1.0000
  N   N34       1.0  0.04121  0.64274  0.78402  1.0000
  H   H767      1.0  0.06562  0.67513  0.73966  1.0000
  H   H768      1.0  0.15160  0.73657  0.87434  1.0000
  H   H769      1.0  0.04939  0.62319  0.82634  1.0000
  H   H770      1.0  0.01872  0.62248  0.79665  1.0000
  H   H771      1.0  0.07235  0.65825  0.81221  1.0000
  H   H772      1.0  0.19313  0.72682  0.56115  1.0000
  H   H773      1.0  0.03699  0.64256  0.83124  1.0000
  H   H774      1.0  0.99795  0.63156  0.78156  1.0000
  H   H775      1.0  0.06679  0.67062  0.83707  1.0000
  H   H776      1.0  0.04100  0.66169  0.81467  1.0000
  C   C457      1.0  0.04570  0.65509  0.75963  1.0000
  H   H777      1.0  0.03832  0.66265  0.76046  1.0000
  H   H778      1.0  0.04257  0.64860  0.73715  1.0000
  H   H779      1.0  0.06702  0.67665  0.77948  1.0000
  H   H780      1.0  0.01987  0.62542  0.75753  1.0000
  C   C458      1.0  0.04698  0.61811  0.80303  1.0000
  H   H781      1.0  0.05569  0.61212  0.79955  1.0000
  H   H782      1.0  0.04630  0.62498  0.75733  1.0000
  H   H783      1.0  0.06403  0.65056  0.84738  1.0000
  H   H784      1.0  0.18464  0.70678  0.54390  1.0000
  C   C459      1.0  0.99245  0.59505  0.72678  1.0000
  H   H785      1.0  0.07305  0.66216  0.75956  1.0000
  H   H786      1.0  0.03424  0.60826  0.80012  1.0000
  C   C460      1.0  0.06298  0.65782  0.82804  1.0000
  C   C461      1.0  0.06393  0.66779  0.76009  1.0000
  C   C462      1.0  0.04477  0.65116  0.81470  1.0000
  C   C463      1.0  0.05001  0.63148  0.77972  1.0000
  H   H787      1.0  0.06360  0.63834  0.77927  1.0000
  H   H788      1.0  0.10533  0.61333  0.75158  1.0000
  H   H789      1.0  0.11125  0.61080  0.78889  1.0000
  C   C464      1.0  0.11498  0.61107  0.76539  1.0000
  H   H790      1.0  0.11703  0.56749  0.79980  1.0000
  C   C465      1.0  0.12425  0.57295  0.78006  1.0000
  H   H791      1.0  0.11836  0.56497  0.75997  1.0000
  N   N35       1.0  0.11545  0.59491  0.75583  1.0000
  H   H792      1.0  0.13404  0.63029  0.74070  1.0000
  H   H793      1.0  0.14937  0.71511  0.52196  1.0000
  S   S138      1.0  0.12629  0.73523  0.91464  1.0000
  C   C466      1.0  0.12293  0.58151  0.70995  1.0000
  C   C467      1.0  0.01096  0.64100  0.78149  1.0000
  C   C468      1.0  0.08892  0.58010  0.78454  1.0000
  H   H794      1.0  0.13652  0.57235  0.78438  1.0000
  H   H795      1.0  0.12601  0.58412  0.68624  1.0000
  H   H796      1.0  0.13316  0.57898  0.72092  1.0000
  H   H797      1.0  0.12998  0.63700  0.77587  1.0000
  H   H798      1.0  0.11110  0.57040  0.70921  1.0000
  H   H799      1.0  0.07727  0.56868  0.78271  1.0000
  C   C469      1.0  0.12698  0.59122  0.77767  1.0000
  H   H800      1.0  0.12583  0.59541  0.80075  1.0000
  H   H801      1.0  0.08519  0.59044  0.78875  1.0000
  H   H802      1.0  0.11354  0.60041  0.70921  1.0000
  C   C470      1.0  0.12162  0.59668  0.72461  1.0000
  H   H803      1.0  0.09665  0.57909  0.80399  1.0000
  H   H804      1.0  0.14019  0.59837  0.77245  1.0000
  C   C471      1.0  0.13137  0.62657  0.76411  1.0000
  C   C472      1.0  0.09777  0.58211  0.75496  1.0000
  H   H805      1.0  0.13434  0.60660  0.72413  1.0000
  H   H806      1.0  0.14209  0.62501  0.77536  1.0000
  H   H807      1.0  0.08999  0.58510  0.73770  1.0000
  H   H808      1.0  0.20591  0.71218  0.51312  1.0000
  H   H809      1.0  0.17400  0.73019  0.89841  1.0000
  H   H810      1.0  0.16120  0.72962  0.79657  1.0000
  H   H811      1.0  0.01140  0.64836  0.76151  1.0000
  C   C473      1.0  0.02469  0.50450  0.74763  1.0000
  H   H812      1.0  0.03214  0.50289  0.72967  1.0000
  H   H813      1.0  0.15697  0.70026  0.53295  1.0000
  C   C474      1.0  0.15768  0.71691  0.56828  1.0000
  C   C475      1.0  0.17650  0.73791  0.87843  1.0000
  C   C476      1.0  0.18961  0.72012  0.53895  1.0000
  C   C477      1.0  0.15969  0.71361  0.53504  1.0000
  H   H814      1.0  0.98946  0.60242  0.71053  1.0000
  H   H815      1.0  0.17453  0.72948  0.85869  1.0000
  H   H816      1.0  0.17788  0.69643  0.49311  1.0000
  C   C478      1.0  0.00086  0.57751  0.77074  1.0000
  H   H817      1.0  0.01331  0.64876  0.80224  1.0000
  H   H818      1.0  0.16797  0.71666  0.58318  1.0000
  H   H819      1.0  0.99795  0.49209  0.73994  1.0000
  H   H820      1.0  0.14595  0.70704  0.57531  1.0000
  H   H821      1.0  0.14898  0.72829  0.82732  1.0000
  Fe  Fe71      1.0  0.12728  0.70790  0.98095  1.0000
  H   H822      1.0  0.00427  0.57090  0.78805  1.0000
  C   C479      1.0  0.15596  0.73674  0.81015  1.0000
  H   H823      1.0  0.15628  0.72865  0.57170  1.0000
  H   H824      1.0  0.14695  0.73967  0.79581  1.0000
  S   S139      1.0  0.12819  0.73346  0.98704  1.0000
  H   H825      1.0  0.98819  0.57194  0.87166  1.0000
  H   H826      1.0  0.98839  0.58597  0.90083  1.0000
  C   C480      1.0  0.20585  0.72374  0.52275  1.0000
  H   H827      1.0  0.07404  0.69840  0.97901  1.0000
  Fe  Fe72      1.0  0.14664  0.74138  0.95104  1.0000
  C   C481      1.0  0.17463  0.71980  0.48942  1.0000
  H   H828      1.0  0.05861  0.76877  0.28955  1.0000
  Fe  Fe73      1.0  0.05941  0.79626  0.36644  1.0000
  S   S140      1.0  0.06317  0.81873  0.39484  1.0000
  S   S141      1.0  0.07564  0.78201  0.36312  1.0000
  Fe  Fe74      1.0  0.03043  0.79771  0.32722  1.0000
  S   S142      1.0  0.03197  0.82047  0.35274  1.0000
  S   S143      1.0  0.01336  0.78047  0.28899  1.0000
  Fe  Fe75      1.0  0.06009  0.82996  0.35163  1.0000
  S   S144      1.0  0.07593  0.85660  0.33903  1.0000
  Fe  Fe76      1.0  0.03498  0.80798  0.39495  1.0000
  S   S145      1.0  0.02328  0.81160  0.43797  1.0000
  S   S146      1.0  0.05813  0.80815  0.32302  1.0000
  S   S147      1.0  0.03161  0.78463  0.36978  1.0000
  Fe  Fe77      1.0  0.16836  0.93418  0.36609  1.0000
  S   S148      1.0  0.17905  0.93254  0.32215  1.0000
  S   S149      1.0  0.14623  0.91320  0.38600  1.0000
  Fe  Fe78      1.0  0.19930  0.96588  0.38633  1.0000
  S   S150      1.0  0.21192  0.96590  0.34345  1.0000
  H   H829      1.0  0.25621  0.98051  0.01984  1.0000
  Fe  Fe79      1.0  0.18705  0.96008  0.31993  1.0000
  S   S151      1.0  0.18396  0.96977  0.27358  1.0000
  Fe  Fe80      1.0  0.20323  0.93870  0.34861  1.0000
  S   S152      1.0  0.21818  0.92390  0.33772  1.0000
  S   S153      1.0  0.17453  0.96153  0.36254  1.0000
  S   S154      1.0  0.19245  0.93892  0.39273  1.0000
  Fe  Fe81      1.0  0.25144  0.84609  0.44921  1.0000
  H   H830      1.0  0.25856  0.79665  0.03348  1.0000
  S   S155      1.0  0.22732  0.82489  0.46371  1.0000
  Fe  Fe82      1.0  0.27870  0.86462  0.40488  1.0000
  S   S156      1.0  0.29016  0.88709  0.43521  1.0000
  H   H831      1.0  0.00675  0.80733  0.26128  1.0000
  C   C482      1.0  0.21169  0.98627  0.00161  1.0000
  C   C483      1.0  0.06911  0.84934  0.45432  1.0000
  Fe  Fe83      1.0  0.26378  0.88345  0.44223  1.0000
  S   S157      1.0  0.25805  0.90617  0.44334  1.0000
  S   S158      1.0  0.27718  0.84712  0.44212  1.0000
  S   S159      1.0  0.25223  0.86189  0.40969  1.0000
  C   C484      1.0  0.22815  0.91849  0.36821  1.0000
  C   C485      1.0  0.23643  0.92989  0.39166  1.0000
  C   C486      1.0  0.24561  0.92592  0.41435  1.0000
  C   C487      1.0  0.24621  0.91039  0.41432  1.0000
  C   C488      1.0  0.23767  0.89886  0.39118  1.0000
  C   C489      1.0  0.22888  0.90301  0.36795  1.0000
  H   H832      1.0  0.23615  0.94194  0.39179  1.0000
  H   H833      1.0  0.25239  0.93493  0.43195  1.0000
  H   H834      1.0  0.23789  0.88680  0.39108  1.0000
  H   H835      1.0  0.22252  0.89415  0.34983  1.0000
  H   H836      1.0  0.28831  0.85032  0.05653  1.0000
  C   C490      1.0  0.26143  0.83575  0.04429  1.0000
  C   C491      1.0  0.04216  0.75380  0.32218  1.0000
  H   H837      1.0  0.15486  0.77822  0.43683  1.0000
  H   H838      1.0  0.21143  0.95735  0.27722  1.0000
  H   H839      1.0  0.23912  0.97173  0.22980  1.0000
  H   H840      1.0  0.21687  0.93217  0.19948  1.0000
  H   H841      1.0  0.27631  0.83813  0.08634  1.0000
  C   C492      1.0  0.99309  0.76724  0.23792  1.0000
  H   H842      1.0  0.03916  0.86939  0.37160  1.0000
  H   H843      1.0  0.24511  0.95324  0.19673  1.0000
  H   H844      1.0  0.03577  0.81334  0.11615  1.0000
  H   H845      1.0  0.24548  0.97591  0.45112  1.0000
  C   C493      1.0  0.09646  0.87133  0.35033  1.0000
  C   C494      1.0  0.10607  0.86884  0.37401  1.0000
  C   C495      1.0  0.12148  0.88158  0.38398  1.0000
  C   C496      1.0  0.12786  0.89679  0.36985  1.0000
  C   C497      1.0  0.11852  0.89904  0.34548  1.0000
  C   C498      1.0  0.10290  0.88648  0.33605  1.0000
  H   H846      1.0  0.10150  0.85724  0.38506  1.0000
  H   H847      1.0  0.12849  0.87967  0.40294  1.0000
  H   H848      1.0  0.12306  0.91069  0.33458  1.0000
  H   H849      1.0  0.09565  0.88862  0.31773  1.0000
  C   C499      1.0  0.18857  0.77122  0.44211  1.0000
  H   H850      1.0  0.27594  0.94727  0.35189  1.0000
  C   C500      1.0  0.21455  0.79461  0.43106  1.0000
  C   C501      1.0  0.21264  0.80418  0.45455  1.0000
  H   H851      1.0  0.13246  0.78951  0.47268  1.0000
  C   C502      1.0  0.18654  0.78084  0.46540  1.0000
  C   C503      1.0  0.19403  0.98759  0.22273  1.0000
  H   H852      1.0  0.29438  0.93360  0.28583  1.0000
  H   H853      1.0  0.30377  0.90487  0.09366  1.0000
  H   H854      1.0  0.18294  0.97816  0.21193  1.0000
  C   C504      1.0  0.01207  0.74328  0.31470  1.0000
  H   H855      1.0  0.22409  0.96000  0.17628  1.0000
  C   C505      1.0  0.08736  0.76017  0.38554  1.0000
  C   C506      1.0  0.08093  0.77180  0.39260  1.0000
  C   C507      1.0  0.07944  0.77535  0.42259  1.0000
  C   C508      1.0  0.08492  0.76768  0.44542  1.0000
  C   C509      1.0  0.22551  0.96688  0.22451  1.0000
  C   C510      1.0  0.18667  0.92671  0.23484  1.0000
  H   H856      1.0  0.07447  0.78427  0.42822  1.0000
  H   H857      1.0  0.02427  0.84936  0.37897  1.0000
  C   C511      1.0  0.00839  0.79695  0.46048  1.0000
  C   C512      1.0  0.24214  0.96498  0.46527  1.0000
  H   H858      1.0  0.19155  0.91712  0.23182  1.0000
  H   H859      1.0  0.03197  0.80577  0.16321  1.0000
  H   H860      1.0  0.14599  0.76175  0.35745  1.0000
  H   H861      1.0  0.09638  0.89141  0.40651  1.0000
  H   H862      1.0  0.29862  0.86170  0.29845  1.0000
  C   C513      1.0  0.00036  0.79618  0.24761  1.0000
  C   C514      1.0  0.00156  0.78161  0.25611  1.0000
  H   H863      1.0  0.17451  0.92254  0.22186  1.0000
  H   H864      1.0  0.09003  0.90659  0.39267  1.0000
  N   N36       1.0  0.14245  0.79025  0.40897  1.0000
  H   H865      1.0  0.31459  0.89574  0.37409  1.0000
  H   H866      1.0  0.04521  0.81083  0.06257  1.0000
  C   C515      1.0  0.13829  0.77834  0.38236  1.0000
  C   C516      1.0  0.15786  0.80565  0.40429  1.0000
  C   C517      1.0  0.01114  0.78590  0.13748  1.0000
  H   H867      1.0  0.04220  0.76483  0.33420  1.0000
  C   C518      1.0  0.15145  0.77174  0.37503  1.0000
  C   C519      1.0  0.27744  0.94111  0.33109  1.0000
  H   H868      1.0  0.08844  0.75731  0.36235  1.0000
  H   H869      1.0  0.23797  0.93601  0.48615  1.0000
  H   H870      1.0  0.11678  0.78427  0.41847  1.0000
  H   H871      1.0  0.98873  0.77347  0.09122  1.0000
  H   H872      1.0  0.12636  0.76752  0.38530  1.0000
  H   H873      1.0  0.13628  0.78405  0.36148  1.0000
  H   H874      1.0  0.15870  0.80854  0.38012  1.0000
  C   C520      1.0  0.04604  0.75853  0.28952  1.0000
  H   H875      1.0  0.01166  0.80585  0.16844  1.0000
  H   H876      1.0  0.25950  0.84484  0.02947  1.0000
  C   C521      1.0  0.17477  0.80572  0.41532  1.0000
  H   H877      1.0  0.00070  0.78439  0.06243  1.0000
  H   H878      1.0  0.18500  0.81682  0.40729  1.0000
  C   C522      1.0  0.28178  0.81115  0.05689  1.0000
  C   C523      1.0  0.26255  0.98680  0.99988  1.0000
  H   H879      1.0  0.15539  0.76627  0.39433  1.0000
  H   H880      1.0  0.26970  0.94379  0.31339  1.0000
  H   H881      1.0  0.98986  0.80765  0.21530  1.0000
  H   H882      1.0  0.06108  0.89056  0.39871  1.0000
  C   C524      1.0  0.20272  0.77825  0.42514  1.0000
  H   H883      1.0  0.00421  0.81320  0.06309  1.0000
  C   C525      1.0  0.03278  0.80987  0.06879  1.0000
  H   H884      1.0  0.27944  0.90438  0.29549  1.0000
  C   C526      1.0  0.06759  0.88703  0.47207  1.0000
  H   H885      1.0  0.01815  0.77794  0.13747  1.0000
  H   H886      1.0  0.03660  0.79501  0.10383  1.0000
  H   H887      1.0  0.22147  0.97532  0.23727  1.0000
  C   C527      1.0  0.06917  0.88370  0.40117  1.0000
  C   C528      1.0  0.24215  0.94487  0.21575  1.0000
  C   C529      1.0  0.03417  0.86065  0.38972  1.0000
  H   H888      1.0  0.30591  0.92206  0.27597  1.0000
  N   N37       1.0  0.01144  0.79359  0.10748  1.0000
  H   H889      1.0  0.19695  0.94255  0.19899  1.0000
  C   C530      1.0  0.22294  0.96959  0.19098  1.0000
  H   H890      1.0  0.20456  0.77097  0.40720  1.0000
  H   H891      1.0  0.28911  0.82324  0.06821  1.0000
  H   H892      1.0  0.22055  0.80005  0.00400  1.0000
  H   H893      1.0  0.22527  0.79975  0.41764  1.0000
  H   H894      1.0  0.01266  0.74525  0.29021  1.0000
  N   N38       1.0  0.21587  0.94125  0.48290  1.0000
  H   H895      1.0  0.24363  0.96779  0.27700  1.0000
  C   C531      1.0  0.19770  0.98662  0.25348  1.0000
  H   H896      1.0  0.04095  0.84571  0.41979  1.0000
  C   C532      1.0  0.99073  0.79630  0.22148  1.0000
  H   H897      1.0  0.24563  0.93459  0.20948  1.0000
  C   C533      1.0  0.12794  0.79500  0.41214  1.0000
  C   C534      1.0  0.30501  0.87731  0.33852  1.0000
  C   C535      1.0  0.22441  0.92965  0.47990  1.0000
  C   C536      1.0  0.23503  0.95546  0.28371  1.0000
  H   H898      1.0  0.21058  0.96989  0.18617  1.0000
  H   H899      1.0  0.19346  0.95269  0.23062  1.0000
  H   H900      1.0  0.05316  0.75226  0.33215  1.0000
  N   N39       1.0  0.21661  0.94945  0.23432  1.0000
  C   C537      1.0  0.14394  0.78144  0.43679  1.0000
  H   H901      1.0  0.23241  0.98177  0.18508  1.0000
  C   C538      1.0  0.21751  0.94957  0.26812  1.0000
  C   C539      1.0  0.22339  0.93775  0.22145  1.0000
  H   H902      1.0  0.18770  0.98148  0.45506  1.0000
  C   C540      1.0  0.26414  0.80895  0.04538  1.0000
  H   H903      1.0  0.13342  0.81225  0.37490  1.0000
  H   H904      1.0  0.29046  0.94706  0.32478  1.0000
  H   H905      1.0  0.25668  0.80761  0.06538  1.0000
  C   C541      1.0  0.19848  0.94359  0.22388  1.0000
  H   H906      1.0  0.04733  0.75217  0.38348  1.0000
  Fe  Fe84      1.0  0.28729  0.86986  0.47316  1.0000
  H   H907      1.0  0.99154  0.81941  0.08601  1.0000
  H   H908      1.0  0.21054  0.93704  0.27649  1.0000
  H   H909      1.0  0.22085  0.92709  0.23617  1.0000
  H   H910      1.0  0.24606  0.96957  0.48872  1.0000
  S   S160      1.0  0.28810  0.86318  0.35808  1.0000
  C   C542      1.0  0.19857  0.79708  0.47173  1.0000
  H   H911      1.0  0.04655  0.88074  0.44124  1.0000
  S   S161      1.0  0.10012  0.74829  0.46732  1.0000
  H   H912      1.0  0.07304  0.74238  0.03970  1.0000
  H   H913      1.0  0.18400  0.92762  0.25862  1.0000
  H   H914      1.0  0.01305  0.75506  0.32536  1.0000
  C   C543      1.0  0.01854  0.79800  0.16477  1.0000
  H   H915      1.0  0.13301  0.76938  0.43756  1.0000
  H   H916      1.0  0.14977  0.78512  0.48492  1.0000
  C   C544      1.0  0.22325  0.95453  0.46077  1.0000
  C   C545      1.0  0.23063  0.80766  0.02068  1.0000
  H   H917      1.0  0.08416  0.77077  0.46864  1.0000
  C   C546      1.0  0.24731  0.81457  0.00526  1.0000
  H   H918      1.0  0.02413  0.80203  0.05062  1.0000
  H   H919      1.0  0.28065  0.80165  0.07350  1.0000
  N   N40       1.0  0.26288  0.82211  0.02573  1.0000
  H   H920      1.0  0.25390  0.87434  0.34917  1.0000
  C   C547      1.0  0.02938  0.80267  0.10017  1.0000
  H   H921      1.0  0.15345  0.80396  0.46634  1.0000
  H   H922      1.0  0.23401  0.95647  0.30822  1.0000
  C   C548      1.0  0.19762  0.93153  0.47431  1.0000
  H   H923      1.0  0.22083  0.94914  0.43748  1.0000
  H   H924      1.0  0.24034  0.94622  0.28056  1.0000
  H   H925      1.0  0.29354  0.89156  0.04309  1.0000
  H   H926      1.0  0.19608  0.92528  0.45186  1.0000
  H   H927      1.0  0.28900  0.80927  0.03863  1.0000
  C   C549      1.0  0.14503  0.79074  0.46676  1.0000
  H   H928      1.0  0.02803  0.86557  0.40590  1.0000
  H   H929      1.0  0.15726  0.81662  0.41563  1.0000
  H   H930      1.0  0.25036  0.83092  0.05802  1.0000
  C   C550      1.0  0.00116  0.78010  0.45289  1.0000
  C   C551      1.0  0.27744  0.82948  0.00620  1.0000
  N   N41       1.0  0.06189  0.86969  0.42212  1.0000
  C   C552      1.0  0.04765  0.85597  0.40503  1.0000
  C   C553      1.0  0.07455  0.86291  0.43109  1.0000
  H   H931      1.0  0.16242  0.78142  0.36554  1.0000
  H   H932      1.0  0.08640  0.87256  0.44056  1.0000
  H   H933      1.0  0.06662  0.85386  0.47599  1.0000
  H   H934      1.0  0.22343  0.92521  0.45614  1.0000
  H   H935      1.0  0.29684  0.90385  0.31634  1.0000
  H   H936      1.0  0.08859  0.90250  0.43149  1.0000
  H   H937      1.0  0.05244  0.85052  0.38712  1.0000
  C   C554      1.0  0.09259  0.75235  0.40830  1.0000
  H   H938      1.0  0.07935  0.84527  0.45877  1.0000
  H   H939      1.0  0.07812  0.85785  0.41096  1.0000
  H   H940      1.0  0.06956  0.87885  0.37822  1.0000
  C   C555      1.0  0.08700  0.89663  0.40899  1.0000
  C   C556      1.0  0.00881  0.76664  0.08048  1.0000
  H   H941      1.0  0.26240  0.91625  0.31433  1.0000
  S   S162      1.0  0.21666  0.98590  0.41996  1.0000
  H   H942      1.0  0.02194  0.77205  0.07427  1.0000
  C   C557      1.0  0.31019  0.89831  0.08300  1.0000
  H   H943      1.0  0.11593  0.79255  0.36685  1.0000
  H   H944      1.0  0.17369  0.93252  0.46468  1.0000
  H   H945      1.0  0.31248  0.93465  0.30912  1.0000
  C   C558      1.0  0.05497  0.87483  0.44872  1.0000
  C   C559      1.0  0.30434  0.89076  0.05424  1.0000
  H   H946      1.0  0.13061  0.80437  0.43068  1.0000
  H   H947      1.0  0.03278  0.82235  0.06860  1.0000
  H   H948      1.0  0.17681  0.79494  0.40713  1.0000
  H   H949      1.0  0.26582  0.88024  0.31720  1.0000
  N   N42       1.0  0.28307  0.91490  0.34077  1.0000
  C   C560      1.0  0.27435  0.89852  0.35503  1.0000
  C   C561      1.0  0.29730  0.92540  0.36226  1.0000
  C   C562      1.0  0.28977  0.91159  0.31207  1.0000
  C   C563      1.0  0.27056  0.92227  0.33463  1.0000
  C   C564      1.0  0.26055  0.88500  0.33528  1.0000
  C   C565      1.0  0.29239  0.92846  0.39373  1.0000
  S   S163      1.0  0.26167  0.86794  0.48244  1.0000
  H   H950      1.0  0.03730  0.76331  0.27904  1.0000
  H   H951      1.0  0.28346  0.89342  0.36258  1.0000
  H   H952      1.0  0.26841  0.89993  0.37567  1.0000
  H   H953      1.0  0.30458  0.93767  0.35356  1.0000
  H   H954      1.0  0.30645  0.91973  0.36527  1.0000
  H   H955      1.0  0.23068  0.79964  0.03935  1.0000
  S   S164      1.0  0.30537  0.87182  0.00426  1.0000
  C   C566      1.0  0.12271  0.80225  0.38438  1.0000
  H   H956      1.0  0.26205  0.91971  0.35331  1.0000
  H   H957      1.0  0.28948  0.83480  0.01956  1.0000
  H   H958      1.0  0.22720  0.81769  0.02865  1.0000
  H   H959      1.0  0.00742  0.75905  0.10042  1.0000
  H   H960      1.0  0.30321  0.93833  0.40592  1.0000
  H   H961      1.0  0.28194  0.93239  0.39297  1.0000
  H   H962      1.0  0.28905  0.91735  0.40728  1.0000
  C   C567      1.0  0.09172  0.75634  0.43835  1.0000
  H   H963      1.0  0.04634  0.74825  0.27563  1.0000
  H   H964      1.0  0.27676  0.84007  0.99422  1.0000
  H   H965      1.0  0.99238  0.80030  0.12508  1.0000
  H   H966      1.0  0.27441  0.85645  0.07552  1.0000
  H   H967      1.0  0.25113  0.88918  0.32584  1.0000
  H   H968      1.0  0.30239  0.82577  0.38885  1.0000
  C   C568      1.0  0.00298  0.80530  0.11020  1.0000
  H   H969      1.0  0.01740  0.79079  0.18526  1.0000
  S   S165      1.0  0.17457  0.75014  0.43445  1.0000
  H   H970      1.0  0.99813  0.77766  0.14242  1.0000
  C   C569      1.0  0.31236  0.88207  0.04024  1.0000
  H   H971      1.0  0.19046  0.95141  0.45807  1.0000
  C   C570      1.0  0.00183  0.77983  0.08492  1.0000
  H   H972      1.0  0.11379  0.80752  0.39093  1.0000
  H   H973      1.0  0.05809  0.83826  0.44618  1.0000
  H   H974      1.0  0.21260  0.97683  0.01561  1.0000
  H   H975      1.0  0.21730  0.96327  0.46077  1.0000
  H   H976      1.0  0.00151  0.75803  0.06172  1.0000
  H   H977      1.0  0.17591  0.77566  0.47899  1.0000
  C   C571      1.0  0.27611  0.84551  0.06670  1.0000
  C   C572      1.0  0.30124  0.92659  0.29534  1.0000
  C   C573      1.0  0.30725  0.87325  0.30896  1.0000
  H   H978      1.0  0.25024  0.95142  0.23555  1.0000
  H   H979      1.0  0.00458  0.77562  0.43278  1.0000
  C   C574      1.0  0.31628  0.89231  0.35164  1.0000
  H   H980      1.0  0.01164  0.81724  0.12111  1.0000
  H   H981      1.0  0.17627  0.80658  0.44008  1.0000
  C   C575      1.0  0.99543  0.80925  0.08113  1.0000
  H   H982      1.0  0.24660  0.82367  0.98906  1.0000
  C   C576      1.0  0.19887  0.98983  0.46746  1.0000
  H   H983      1.0  0.24940  0.95808  0.45779  1.0000
  C   C577      1.0  0.18637  0.94104  0.47342  1.0000
  H   H984      1.0  0.09756  0.74346  0.40260  1.0000
  H   H985      1.0  0.04665  0.86391  0.46076  1.0000
  H   H986      1.0  0.99387  0.75588  0.24420  1.0000
  H   H987      1.0  0.29914  0.84388  0.39606  1.0000
  C   C578      1.0  0.30863  0.83942  0.38967  1.0000
  H   H988      1.0  0.07976  0.88616  0.47392  1.0000
  H   H989      1.0  0.06957  0.89989  0.46726  1.0000
  H   H990      1.0  0.24743  0.80414  0.99133  1.0000
  C   C579      1.0  0.98939  0.76900  0.47127  1.0000
  C   C580      1.0  0.00364  0.80246  0.48675  1.0000
  H   H991      1.0  0.01863  0.74418  0.36999  1.0000
  H   H992      1.0  0.31339  0.87044  0.41047  1.0000
  H   H993      1.0  0.26780  0.97866  0.98946  1.0000
  C   C581      1.0  0.98566  0.78709  0.00326  1.0000
  H   H994      1.0  0.27669  0.80535  0.99063  1.0000
  H   H995      1.0  0.31236  0.84317  0.36670  1.0000
  H   H996      1.0  0.31805  0.84036  0.43476  1.0000
  H   H997      1.0  0.31699  0.86591  0.44717  1.0000
  H   H998      1.0  0.17964  0.74500  0.55153  1.0000
  Fe  Fe85      1.0  0.05644  0.79538  0.87213  1.0000
  S   S166      1.0  0.05777  0.81800  0.89738  1.0000
  S   S167      1.0  0.07806  0.78768  0.87643  1.0000
  Fe  Fe86      1.0  0.02800  0.79475  0.82751  1.0000
  S   S168      1.0  0.02782  0.81758  0.84990  1.0000
  S   S169      1.0  0.01473  0.77998  0.78391  1.0000
  Fe  Fe87      1.0  0.05608  0.82823  0.85233  1.0000
  S   S170      1.0  0.07383  0.85228  0.83185  1.0000
  Fe  Fe88      1.0  0.02955  0.80549  0.89366  1.0000
  S   S171      1.0  0.01426  0.80752  0.93288  1.0000
  S   S172      1.0  0.05589  0.80612  0.82738  1.0000
  S   S173      1.0  0.02845  0.78213  0.87102  1.0000
  Fe  Fe89      1.0  0.16570  0.93309  0.86129  1.0000
  S   S174      1.0  0.18100  0.93241  0.82270  1.0000
  S   S175      1.0  0.14238  0.91210  0.87869  1.0000
  Fe  Fe90      1.0  0.19172  0.96752  0.88365  1.0000
  S   S176      1.0  0.20872  0.96899  0.84676  1.0000
  C   C582      1.0  0.16438  0.74647  0.87679  1.0000
  Fe  Fe91      1.0  0.18588  0.95913  0.81572  1.0000
  S   S177      1.0  0.18536  0.96766  0.76734  1.0000
  Fe  Fe92      1.0  0.20308  0.94249  0.85582  1.0000
  S   S178      1.0  0.22399  0.93399  0.85102  1.0000
  S   S179      1.0  0.16876  0.95914  0.85201  1.0000
  S   S180      1.0  0.18783  0.94173  0.89517  1.0000
  Fe  Fe93      1.0  0.25597  0.84296  0.92949  1.0000
  H   H999      1.0  0.23117  0.95006  0.52392  1.0000
  S   S181      1.0  0.24137  0.81478  0.92494  1.0000
  Fe  Fe94      1.0  0.28215  0.87335  0.89967  1.0000
  S   S182      1.0  0.28432  0.88993  0.93981  1.0000
  S   S183      1.0  0.29647  0.88719  0.85977  1.0000
  H   H1000     1.0  0.29339  0.88376  0.55256  1.0000
  C   C583      1.0  0.31668  0.88299  0.54217  1.0000
  Fe  Fe95      1.0  0.25647  0.87705  0.93935  1.0000
  S   S184      1.0  0.23947  0.88987  0.94841  1.0000
  S   S185      1.0  0.28407  0.85343  0.92803  1.0000
  S   S186      1.0  0.25396  0.86162  0.89767  1.0000
  C   C584      1.0  0.22788  0.92145  0.87802  1.0000
  C   C585      1.0  0.23980  0.91507  0.87287  1.0000
  C   C586      1.0  0.24335  0.90523  0.89408  1.0000
  C   C587      1.0  0.23509  0.90181  0.92077  1.0000
  C   C588      1.0  0.22318  0.90819  0.92590  1.0000
  C   C589      1.0  0.21952  0.91791  0.90458  1.0000
  H   H1001     1.0  0.24632  0.91775  0.85241  1.0000
  H   H1002     1.0  0.25255  0.90040  0.88991  1.0000
  H   H1003     1.0  0.21676  0.90560  0.94648  1.0000
  H   H1004     1.0  0.21035  0.92275  0.90881  1.0000
  H   H1005     1.0  0.26399  0.96315  0.77266  1.0000
  H   H1006     1.0  0.12641  0.86045  0.84185  1.0000
  H   H1007     1.0  0.20443  0.97052  0.96138  1.0000
  H   H1008     1.0  0.20916  0.96752  0.50326  1.0000
  H   H1009     1.0  0.13171  0.84954  0.92638  1.0000
  H   H1010     1.0  0.02258  0.80930  0.72377  1.0000
  H   H1011     1.0  0.20971  0.93862  0.52941  1.0000
  C   C590      1.0  0.20703  0.98264  0.97085  1.0000
  C   C591      1.0  0.00076  0.77658  0.95822  1.0000
  H   H1012     1.0  0.01021  0.81851  0.68392  1.0000
  C   C592      1.0  0.22855  0.97051  0.71624  1.0000
  C   C593      1.0  0.10565  0.83600  0.93407  1.0000
  C   C594      1.0  0.29427  0.86654  0.76316  1.0000
  C   C595      1.0  0.09291  0.86877  0.84539  1.0000
  C   C596      1.0  0.10333  0.87939  0.82475  1.0000
  C   C597      1.0  0.11850  0.89261  0.83432  1.0000
  C   C598      1.0  0.12342  0.89557  0.86483  1.0000
  C   C599      1.0  0.11295  0.88500  0.88548  1.0000
  C   C600      1.0  0.09787  0.87169  0.87590  1.0000
  H   H1013     1.0  0.09968  0.87737  0.80111  1.0000
  H   H1014     1.0  0.12633  0.90057  0.81808  1.0000
  H   H1015     1.0  0.11652  0.88714  0.90914  1.0000
  H   H1016     1.0  0.09000  0.86380  0.89215  1.0000
  C   C601      1.0  0.18751  0.78074  0.94741  1.0000
  C   C602      1.0  0.19329  0.79797  0.95102  1.0000
  C   C603      1.0  0.20965  0.80855  0.94429  1.0000
  C   C604      1.0  0.22054  0.80204  0.93380  1.0000
  C   C605      1.0  0.21481  0.78479  0.93032  1.0000
  C   C606      1.0  0.19845  0.77421  0.93712  1.0000
  C   C607      1.0  0.11963  0.84501  0.91295  1.0000
  C   C608      1.0  0.23964  0.96322  0.73280  1.0000
  H   H1017     1.0  0.28533  0.89273  0.72884  1.0000
  H   H1018     1.0  0.19433  0.76102  0.93454  1.0000
  H   H1019     1.0  0.21040  0.96377  0.54185  1.0000
  C   C609      1.0  0.30595  0.88624  0.56086  1.0000
  C   C610      1.0  0.09441  0.76960  0.89878  1.0000
  C   C611      1.0  0.07966  0.77211  0.89878  1.0000
  C   C612      1.0  0.06683  0.76230  0.91633  1.0000
  C   C613      1.0  0.21841  0.94790  0.51488  1.0000
  C   C614      1.0  0.13434  0.81959  0.91577  1.0000
  H   H1020     1.0  0.10440  0.77714  0.88532  1.0000
  H   H1021     1.0  0.05542  0.76415  0.91650  1.0000
  H   H1022     1.0  0.13805  0.87064  0.87611  1.0000
  C   C615      1.0  0.00275  0.79300  0.95936  1.0000
  H   H1023     1.0  0.13491  0.95740  0.87932  1.0000
  H   H1024     1.0  0.17371  0.96070  0.93596  1.0000
  H   H1025     1.0  0.17576  0.94071  0.97027  1.0000
  H   H1026     1.0  0.12264  0.93585  0.87935  1.0000
  H   H1027     1.0  0.25551  0.93441  0.78291  1.0000
  C   C616      1.0  0.01898  0.83354  0.77461  1.0000
  C   C617      1.0  0.00063  0.77265  0.72625  1.0000
  C   C618      1.0  0.00163  0.78141  0.75333  1.0000
  H   H1028     1.0  0.30740  0.92209  0.72449  1.0000
  H   H1029     1.0  0.00795  0.76546  0.72439  1.0000
  N   N43       1.0  0.12009  0.83530  0.88533  1.0000
  C   C619      1.0  0.22287  0.95677  0.77865  1.0000
  C   C620      1.0  0.13570  0.84508  0.86972  1.0000
  C   C621      1.0  0.12023  0.81894  0.89329  1.0000
  C   C622      1.0  0.10472  0.83215  0.86540  1.0000
  C   C623      1.0  0.15199  0.76266  0.84896  1.0000
  C   C624      1.0  0.13696  0.86171  0.85767  1.0000
  H   H1030     1.0  0.13627  0.77230  0.87171  1.0000
  C   C625      1.0  0.10430  0.82475  0.83377  1.0000
  H   H1031     1.0  0.17022  0.96526  0.97316  1.0000
  H   H1032     1.0  0.23946  0.98851  0.76837  1.0000
  H   H1033     1.0  0.13741  0.83771  0.85086  1.0000
  H   H1034     1.0  0.16191  0.97687  0.91233  1.0000
  H   H1035     1.0  0.10825  0.81081  0.90250  1.0000
  H   H1036     1.0  0.12125  0.81212  0.87298  1.0000
  H   H1037     1.0  0.09337  0.82356  0.87585  1.0000
  H   H1038     1.0  0.10278  0.84362  0.86258  1.0000
  H   H1039     1.0  0.12164  0.96654  0.94756  1.0000
  H   H1040     1.0  0.11799  0.85633  0.90666  1.0000
  H   H1041     1.0  0.14944  0.76700  0.89697  1.0000
  H   H1042     1.0  0.27655  0.86401  0.72649  1.0000
  H   H1043     1.0  0.17664  0.79241  0.83653  1.0000
  H   H1044     1.0  0.31349  0.92172  0.93169  1.0000
  H   H1045     1.0  0.24469  0.93486  0.74863  1.0000
  C   C626      1.0  0.16441  0.95674  0.95344  1.0000
  H   H1046     1.0  0.19911  0.94105  0.75513  1.0000
  H   H1047     1.0  0.11426  0.83312  0.82018  1.0000
  H   H1048     1.0  0.09232  0.82287  0.82174  1.0000
  H   H1049     1.0  0.10492  0.81257  0.83446  1.0000
  H   H1050     1.0  0.22899  0.97476  0.52400  1.0000
  H   H1051     1.0  0.25954  0.98892  0.76412  1.0000
  H   H1052     1.0  0.19360  0.77149  0.86588  1.0000
  C   C627      1.0  0.99219  0.79078  0.75517  1.0000
  H   H1053     1.0  0.16507  0.75217  0.89935  1.0000
  H   H1054     1.0  0.21781  0.91725  0.52296  1.0000
  H   H1055     1.0  0.18970  0.74678  0.88090  1.0000
  H   H1056     1.0  0.09314  0.83222  0.92272  1.0000
  H   H1057     1.0  0.28922  0.86419  0.63874  1.0000
  H   H1058     1.0  0.06558  0.80847  0.75016  1.0000
  C   C628      1.0  0.14065  0.94472  0.91729  1.0000
  H   H1059     1.0  0.11064  0.94479  0.95355  1.0000
  Fe  Fe96      1.0  0.28485  0.86952  0.96827  1.0000
  H   H1060     1.0  0.14847  0.86728  0.84526  1.0000
  C   C629      1.0  0.99515  0.79815  0.98209  1.0000
  H   H1061     1.0  0.20659  0.75484  0.52926  1.0000
  H   H1062     1.0  0.15524  0.93519  0.98233  1.0000
  H   H1063     1.0  0.14209  0.97599  0.91886  1.0000
  C   C630      1.0  0.14891  0.77243  0.87510  1.0000
  H   H1064     1.0  0.13409  0.93232  0.92655  1.0000
  N   N44       1.0  0.23997  0.96430  0.76656  1.0000
  H   H1065     1.0  0.15229  0.76954  0.82826  1.0000
  H   H1066     1.0  0.30294  0.89494  0.60464  1.0000
  C   C631      1.0  0.16033  0.98909  0.95352  1.0000
  H   H1067     1.0  0.14058  0.75100  0.84551  1.0000
  H   H1068     1.0  0.02844  0.81497  0.77483  1.0000
  H   H1069     1.0  0.22390  0.95517  0.80312  1.0000
  S   S187      1.0  0.31037  0.87442  0.50480  1.0000
  C   C632      1.0  0.28986  0.86585  0.72921  1.0000
  H   H1070     1.0  0.28105  0.87741  0.67867  1.0000
  H   H1071     1.0  0.04800  0.80296  0.72425  1.0000
  H   H1072     1.0  0.23559  0.95048  0.72383  1.0000
  C   C633      1.0  0.17023  0.75265  0.82339  1.0000
  H   H1073     1.0  0.19724  0.79976  0.85347  1.0000
  H   H1074     1.0  0.14675  0.82555  0.90643  1.0000
  C   C634      1.0  0.19915  0.98511  0.74827  1.0000
  H   H1075     1.0  0.99654  0.81081  0.98317  1.0000
  H   H1076     1.0  0.23417  0.93051  0.78369  1.0000
  N   N45       1.0  0.16726  0.75902  0.85296  1.0000
  C   C635      1.0  0.05363  0.80972  0.74577  1.0000
  C   C636      1.0  0.19554  0.75466  0.51611  1.0000
  C   C637      1.0  0.13718  0.95441  0.96793  1.0000
  H   H1077     1.0  0.15147  0.98838  0.97082  1.0000
  C   C638      1.0  0.29422  0.87875  0.68018  1.0000
  H   H1078     1.0  0.29766  0.91142  0.68996  1.0000
  H   H1079     1.0  0.14691  0.84813  0.88515  1.0000
  C   C639      1.0  0.18240  0.77426  0.86297  1.0000
  C   C640      1.0  0.21659  0.96433  0.52055  1.0000
  H   H1080     1.0  0.01437  0.83050  0.79737  1.0000
  H   H1081     1.0  0.30820  0.86663  0.65786  1.0000
  C   C641      1.0  0.25104  0.95656  0.77980  1.0000
  C   C642      1.0  0.16311  0.93966  0.96302  1.0000
  H   H1082     1.0  0.11701  0.95993  0.98410  1.0000
  H   H1083     1.0  0.01226  0.83310  0.71321  1.0000
  H   H1084     1.0  0.19211  0.78636  0.82107  1.0000
  H   H1085     1.0  0.13424  0.82572  0.93746  1.0000
  C   C643      1.0  0.29510  0.86451  0.66142  1.0000
  N   N46       1.0  0.04201  0.83221  0.74188  1.0000
  C   C644      1.0  0.05713  0.82820  0.74487  1.0000
  C   C645      1.0  0.04801  0.85022  0.73525  1.0000
  C   C646      1.0  0.03069  0.82170  0.71614  1.0000
  C   C647      1.0  0.03351  0.82837  0.77106  1.0000
  H   H1086     1.0  0.22311  0.77958  0.92239  1.0000
  C   C648      1.0  0.06024  0.86238  0.75915  1.0000
  C   C649      1.0  0.01941  0.82852  0.69880  1.0000
  H   H1087     1.0  0.30469  0.89835  0.74942  1.0000
  H   H1088     1.0  0.06537  0.83327  0.72603  1.0000
  H   H1089     1.0  0.06485  0.83403  0.76576  1.0000
  H   H1090     1.0  0.03749  0.85400  0.73213  1.0000
  H   H1091     1.0  0.05423  0.85264  0.71362  1.0000
  H   H1092     1.0  0.25178  0.95767  0.80471  1.0000
  H   H1093     1.0  0.04264  0.83419  0.79030  1.0000
  C   C650      1.0  0.31142  0.89256  0.59050  1.0000
  H   H1094     1.0  0.05476  0.86129  0.78126  1.0000
  H   H1095     1.0  0.07220  0.86100  0.76159  1.0000
  H   H1096     1.0  0.06330  0.87516  0.75215  1.0000
  H   H1097     1.0  0.02682  0.83853  0.68415  1.0000
  H   H1098     1.0  0.29086  0.87558  0.77539  1.0000
  S   S188      1.0  0.16648  0.76818  0.95538  1.0000
  N   N47       1.0  0.14838  0.95769  0.94215  1.0000
  H   H1099     1.0  0.28704  0.85435  0.77249  1.0000
  H   H1100     1.0  0.00832  0.82659  0.75876  1.0000
  H   H1101     1.0  0.23360  0.98410  0.71930  1.0000
  H   H1102     1.0  0.18616  0.97611  0.70529  1.0000
  H   H1103     1.0  0.15859  0.93031  0.94426  1.0000
  C   C651      1.0  0.21049  0.93995  0.76466  1.0000
  H   H1104     1.0  0.28991  0.85428  0.71997  1.0000
  C   C652      1.0  0.29872  0.89540  0.72632  1.0000
  H   H1105     1.0  0.18210  0.75096  0.82427  1.0000
  C   C653      1.0  0.19654  0.98593  0.71710  1.0000
  H   H1106     1.0  0.98843  0.79581  0.52527  1.0000
  N   N48       1.0  0.30064  0.88067  0.71253  1.0000
  H   H1107     1.0  0.21379  0.82174  0.94715  1.0000
  C   C654      1.0  0.30607  0.91155  0.70935  1.0000
  H   H1108     1.0  0.99263  0.79742  0.77588  1.0000
  H   H1109     1.0  0.13348  0.94154  0.97506  1.0000
  C   C655      1.0  0.25195  0.98678  0.80936  1.0000
  H   H1110     1.0  0.06263  0.88427  0.49467  1.0000
  H   H1111     1.0  0.27028  0.81622  0.96246  1.0000
  H   H1112     1.0  0.28825  0.85231  0.67083  1.0000
  H   H1113     1.0  0.18091  0.77883  0.88546  1.0000
  C   C656      1.0  0.99044  0.77330  0.70136  1.0000
  H   H1114     1.0  0.24149  0.97970  0.82319  1.0000
  H   H1115     1.0  0.04557  0.80354  0.76394  1.0000
  H   H1116     1.0  0.10684  0.82514  0.94393  1.0000
  H   H1117     1.0  0.17227  0.99005  0.96431  1.0000
  S   S189      1.0  0.25698  0.85782  0.97126  1.0000
  H   H1118     1.0  0.00649  0.77237  0.94094  1.0000
  C   C657      1.0  0.18711  0.78887  0.84198  1.0000
  C   C658      1.0  0.24578  0.93806  0.77286  1.0000
  H   H1119     1.0  0.21526  0.93450  0.74709  1.0000
  H   H1120     1.0  0.02279  0.84697  0.77271  1.0000
  C   C659      1.0  0.15289  0.97465  0.93019  1.0000
  C   C660      1.0  0.12072  0.95648  0.96251  1.0000
  H   H1121     1.0  0.15054  0.94377  0.90379  1.0000
  H   H1122     1.0  0.18500  0.80321  0.95898  1.0000
  H   H1123     1.0  0.11809  0.94906  0.90439  1.0000
  H   H1124     1.0  0.03812  0.81941  0.69850  1.0000
  C   C661      1.0  0.12836  0.94714  0.89415  1.0000
  H   H1125     1.0  0.21554  0.96502  0.72311  1.0000
  H   H1126     1.0  0.20640  0.93080  0.78245  1.0000
  H   H1127     1.0  0.17208  0.76192  0.80598  1.0000
  H   H1128     1.0  0.25246  0.96962  0.72497  1.0000
  H   H1129     1.0  0.21659  0.96536  0.77655  1.0000
  H   H1130     1.0  0.13252  0.80677  0.92067  1.0000
  H   H1131     1.0  0.10641  0.84455  0.95301  1.0000
  H   H1132     1.0  0.15793  0.78549  0.87626  1.0000
  H   H1133     1.0  0.25320  0.98767  0.98333  1.0000
  H   H1134     1.0  0.30138  0.88991  0.66769  1.0000
  H   H1135     1.0  0.19189  0.92155  0.49016  1.0000
  C   C662      1.0  0.99189  0.79133  0.50521  1.0000
  H   H1136     1.0  0.30762  0.86945  0.76817  1.0000
  C   C663      1.0  0.06875  0.74995  0.93349  1.0000
  H   H1137     1.0  0.19557  0.76707  0.51953  1.0000
  H   H1138     1.0  0.14390  0.96193  0.98836  1.0000
  C   C664      1.0  0.09632  0.75731  0.91591  1.0000
  H   H1139     1.0  0.26321  0.98495  0.81716  1.0000
  H   H1140     1.0  0.22813  0.96785  0.69180  1.0000
  H   H1141     1.0  0.10776  0.75558  0.91575  1.0000
  S   S190      1.0  0.19796  0.99034  0.91446  1.0000
  H   H1142     1.0  0.31333  0.85714  0.70347  1.0000
  H   H1143     1.0  0.16882  0.74411  0.51648  1.0000
  C   C665      1.0  0.99128  0.76551  0.97939  1.0000
  C   C666      1.0  0.24776  0.98243  0.77558  1.0000
  C   C667      1.0  0.08346  0.74733  0.93319  1.0000
  H   H1144     1.0  0.20550  0.90522  0.49032  1.0000
  C   C668      1.0  0.31317  0.88834  0.83747  1.0000
  C   C669      1.0  0.17927  0.74176  0.52734  1.0000
  C   C670      1.0  0.27902  0.81767  0.98208  1.0000
  H   H1145     1.0  0.31335  0.90971  0.81514  1.0000
  H   H1146     1.0  0.29177  0.82302  0.97380  1.0000
  H   H1147     1.0  0.18495  0.94526  0.49616  1.0000
  H   H1148     1.0  0.22649  0.90783  0.49711  1.0000
  H   H1149     1.0  0.31567  0.88394  0.92215  1.0000
  H   H1150     1.0  0.99024  0.76690  0.68050  1.0000
  H   H1151     1.0  0.05874  0.74232  0.94685  1.0000
  H   H1152     1.0  0.98981  0.75283  0.97808  1.0000
  C   C671      1.0  0.21798  0.91420  0.49890  1.0000
  H   H1153     1.0  0.31608  0.86718  0.85465  1.0000
  H   H1154     1.0  0.19693  0.80427  0.49005  1.0000
  H   H1155     1.0  0.00909  0.81545  0.49291  1.0000
  H   H1156     1.0  0.31850  0.91396  0.70130  1.0000
  H   H1157     1.0  0.19675  0.75316  0.49184  1.0000
  H   H1158     1.0  0.38994  0.09385  0.43970  1.0000
  Fe  Fe97      1.0  0.62440  0.09100  0.24832  1.0000
  S   S191      1.0  0.62820  0.07956  0.29133  1.0000
  H   H1159     1.0  0.60735  0.02086  0.22286  1.0000
  Fe  Fe98      1.0  0.59044  0.08963  0.26747  1.0000
  S   S192      1.0  0.59235  0.07851  0.31127  1.0000
  S   S193      1.0  0.56759  0.09403  0.25099  1.0000
  Fe  Fe99      1.0  0.61932  0.09669  0.31507  1.0000
  S   S194      1.0  0.63025  0.11296  0.35803  1.0000
  Fe  Fe100     1.0  0.60115  0.06242  0.28400  1.0000
  S   S195      1.0  0.59123  0.03509  0.29240  1.0000
  S   S196      1.0  0.61685  0.10918  0.27249  1.0000
  S   S197      1.0  0.59783  0.07249  0.23983  1.0000
  Fe  Fe101     1.0  0.47353  0.08005  0.29521  1.0000
  S   S198      1.0  0.45233  0.07009  0.32643  1.0000
  S   S199      1.0  0.49848  0.07929  0.31127  1.0000
  Fe  Fe102     1.0  0.45151  0.08735  0.24751  1.0000
  S   S200      1.0  0.42909  0.07795  0.27485  1.0000
  S   S201      1.0  0.45264  0.09705  0.20030  1.0000
  Fe  Fe103     1.0  0.44620  0.09155  0.31456  1.0000
  S   S202      1.0  0.43620  0.10726  0.34263  1.0000
  Fe  Fe104     1.0  0.43658  0.05712  0.28508  1.0000
  S   S203      1.0  0.41627  0.03138  0.28830  1.0000
  S   S204      1.0  0.46852  0.10261  0.28611  1.0000
  S   S205      1.0  0.45790  0.06546  0.25485  1.0000
  Fe  Fe105     1.0  0.39821  0.14886  0.02883  1.0000
  H   H1160     1.0  0.32821  0.07856  0.11409  1.0000
  S   S206      1.0  0.39972  0.17378  0.01173  1.0000
  Fe  Fe106     1.0  0.39964  0.12346  0.07453  1.0000
  S   S207      1.0  0.38935  0.10234  0.04048  1.0000
  S   S208      1.0  0.40180  0.11827  0.12434  1.0000
  C   C672      1.0  0.51777  0.02834  0.25758  1.0000
  H   H1161     1.0  0.63263  0.06602  0.15416  1.0000
  Fe  Fe107     1.0  0.37130  0.11333  0.02635  1.0000
  S   S209      1.0  0.34358  0.09944  0.01380  1.0000
  S   S210      1.0  0.41836  0.14052  0.04400  1.0000
  S   S211      1.0  0.38036  0.13348  0.06194  1.0000
  C   C673      1.0  0.32950  0.08960  0.04142  1.0000
  C   C674      1.0  0.33515  0.08799  0.07039  1.0000
  H   H1162     1.0  0.34839  0.09288  0.07623  1.0000
  C   C675      1.0  0.43767  0.10150  0.17852  1.0000
  C   C676      1.0  0.44165  0.10794  0.15002  1.0000
  C   C677      1.0  0.43056  0.11254  0.13259  1.0000
  C   C678      1.0  0.41540  0.11092  0.14368  1.0000
  C   C679      1.0  0.41125  0.10412  0.17195  1.0000
  C   C680      1.0  0.42221  0.09922  0.18912  1.0000
  H   H1163     1.0  0.45353  0.10966  0.14151  1.0000
  H   H1164     1.0  0.43394  0.11777  0.11095  1.0000
  H   H1165     1.0  0.39953  0.10279  0.18068  1.0000
  H   H1166     1.0  0.41890  0.09414  0.21086  1.0000
  C   C681      1.0  0.42586  0.11253  0.44239  1.0000
  C   C682      1.0  0.43397  0.10247  0.43391  1.0000
  C   C683      1.0  0.43695  0.10042  0.40361  1.0000
  C   C684      1.0  0.43200  0.10857  0.38120  1.0000
  C   C685      1.0  0.42374  0.11853  0.38963  1.0000
  C   C686      1.0  0.42062  0.12044  0.41991  1.0000
  H   H1167     1.0  0.43812  0.09627  0.45098  1.0000
  H   H1168     1.0  0.44334  0.09275  0.39768  1.0000
  H   H1169     1.0  0.41985  0.12494  0.37263  1.0000
  H   H1170     1.0  0.41449  0.12832  0.42592  1.0000
  N   N49       1.0  0.62188  0.03647  0.18861  1.0000
  C   C687      1.0  0.41213  0.01441  0.26325  1.0000
  C   C688      1.0  0.42141  0.01563  0.23816  1.0000
  H   H1171     1.0  0.42453  0.13285  0.29795  1.0000
  H   H1172     1.0  0.43198  0.02699  0.23455  1.0000
  C   C689      1.0  0.54835  0.08953  0.26792  1.0000
  C   C690      1.0  0.54540  0.08320  0.29653  1.0000
  C   C691      1.0  0.53016  0.08030  0.30944  1.0000
  C   C692      1.0  0.51749  0.08333  0.29373  1.0000
  C   C693      1.0  0.52035  0.08942  0.26493  1.0000
  C   C694      1.0  0.53572  0.09259  0.25223  1.0000
  H   H1173     1.0  0.55489  0.08062  0.30876  1.0000
  H   H1174     1.0  0.52808  0.07553  0.33168  1.0000
  H   H1175     1.0  0.51078  0.09184  0.25253  1.0000
  H   H1176     1.0  0.53781  0.09747  0.23007  1.0000
  H   H1177     1.0  0.55161  0.03172  0.21771  1.0000
  C   C695      1.0  0.57573  0.00304  0.27115  1.0000
  C   C696      1.0  0.58131  0.01968  0.26402  1.0000
  C   C697      1.0  0.57830  0.02364  0.23486  1.0000
  C   C698      1.0  0.56978  0.01107  0.21307  1.0000
  Fe  Fe108     1.0  0.40686  0.11975  0.00883  1.0000
  H   H1178     1.0  0.58228  0.03638  0.22926  1.0000
  H   H1179     1.0  0.38340  0.23872  0.09215  1.0000
  C   C699      1.0  0.51572  0.04466  0.26252  1.0000
  H   H1180     1.0  0.57591  0.14283  0.30406  1.0000
  H   H1181     1.0  0.37687  0.04304  0.17123  1.0000
  C   C700      1.0  0.37566  0.06593  0.47164  1.0000
  H   H1182     1.0  0.38323  0.11716  0.43622  1.0000
  H   H1183     1.0  0.34719  0.08324  0.46851  1.0000
  H   H1184     1.0  0.52877  0.04997  0.20681  1.0000
  H   H1185     1.0  0.51217  0.99691  0.23636  1.0000
  H   H1186     1.0  0.56565  0.11342  0.32524  1.0000
  S   S212      1.0  0.42281  0.11478  0.48128  1.0000
  C   C701      1.0  0.63881  0.04044  0.17684  1.0000
  C   C702      1.0  0.40565  0.19454  0.02502  1.0000
  C   C703      1.0  0.41368  0.20043  0.05320  1.0000
  C   C704      1.0  0.41818  0.21705  0.06242  1.0000
  H   H1187     1.0  0.53097  0.99898  0.21827  1.0000
  C   C705      1.0  0.40660  0.22208  0.01561  1.0000
  H   H1188     1.0  0.41647  0.19222  0.06787  1.0000
  H   H1189     1.0  0.42442  0.22145  0.08422  1.0000
  C   C706      1.0  0.39124  0.04663  0.13227  1.0000
  H   H1190     1.0  0.56733  0.01420  0.19062  1.0000
  C   C707      1.0  0.42775  0.12763  0.27772  1.0000
  H   H1191     1.0  0.39414  0.00862  0.15435  1.0000
  H   H1192     1.0  0.37100  0.05642  0.40188  1.0000
  H   H1193     1.0  0.35595  0.22423  0.48073  1.0000
  H   H1194     1.0  0.50396  0.04371  0.25073  1.0000
  H   H1195     1.0  0.53015  0.02308  0.20575  1.0000
  H   H1196     1.0  0.55521  0.05168  0.31960  1.0000
  H   H1197     1.0  0.63580  0.11767  0.18107  1.0000
  H   H1198     1.0  0.33348  0.20482  0.02642  1.0000
  C   C708      1.0  0.54651  0.04026  0.30726  1.0000
  H   H1199     1.0  0.41953  0.03190  0.18503  1.0000
  C   C709      1.0  0.64528  0.11321  0.38662  1.0000
  H   H1200     1.0  0.34892  0.07327  0.42075  1.0000
  C   C710      1.0  0.36452  0.21991  0.00537  1.0000
  H   H1201     1.0  0.40395  0.05414  0.12520  1.0000
  C   C711      1.0  0.46675  0.13940  0.23118  1.0000
  C   C712      1.0  0.35444  0.19523  0.05542  1.0000
  H   H1202     1.0  0.43549  0.06087  0.19348  1.0000
  C   C713      1.0  0.52521  0.99832  0.24006  1.0000
  C   C714      1.0  0.35835  0.21847  0.09111  1.0000
  C   C715      1.0  0.53956  0.03262  0.22112  1.0000
  N   N50       1.0  0.39900  0.03934  0.18553  1.0000
  C   C716      1.0  0.39030  0.04776  0.16657  1.0000
  H   H1203     1.0  0.62542  0.06047  0.20764  1.0000
  H   H1204     1.0  0.37454  0.22960  0.99370  1.0000
  H   H1205     1.0  0.56094  0.04340  0.26849  1.0000
  C   C717      1.0  0.62682  0.04065  0.24678  1.0000
  H   H1206     1.0  0.36625  0.10056  0.41729  1.0000
  H   H1207     1.0  0.32941  0.12711  0.09000  1.0000
  H   H1208     1.0  0.36560  0.20813  0.00053  1.0000
  N   N51       1.0  0.53515  0.02953  0.25331  1.0000
  H   H1209     1.0  0.39283  0.01674  0.20912  1.0000
  H   H1210     1.0  0.54902  0.05510  0.26911  1.0000
  H   H1211     1.0  0.57794  0.99985  0.29370  1.0000
  H   H1212     1.0  0.43825  0.05641  0.15561  1.0000
  H   H1213     1.0  0.32128  0.18851  0.07146  1.0000
  H   H1214     1.0  0.45671  0.15987  0.00615  1.0000
  H   H1215     1.0  0.37997  0.22684  0.04570  1.0000
  C   C718      1.0  0.42892  0.05688  0.17108  1.0000
  H   H1216     1.0  0.55034  0.05996  0.22163  1.0000
  H   H1217     1.0  0.53134  0.00972  0.28397  1.0000
  H   H1218     1.0  0.38358  0.03455  0.24454  1.0000
  H   H1219     1.0  0.37116  0.18317  0.04788  1.0000
  C   C719      1.0  0.41456  0.03970  0.17219  1.0000
  C   C720      1.0  0.37093  0.19348  0.06199  1.0000
  H   H1220     1.0  0.40394  0.23034  0.00087  1.0000
  H   H1221     1.0  0.60473  0.04771  0.19683  1.0000
  C   C721      1.0  0.54101  0.04918  0.20874  1.0000
  H   H1222     1.0  0.37734  0.22962  0.12711  1.0000
  H   H1223     1.0  0.41160  0.06164  0.21346  1.0000
  H   H1224     1.0  0.53377  0.03783  0.31386  1.0000
  C   C722      1.0  0.60903  0.02398  0.16708  1.0000
  C   C723      1.0  0.61772  0.05133  0.19009  1.0000
  C   C724      1.0  0.61961  0.06092  0.16107  1.0000
  C   C725      1.0  0.38746  0.02172  0.19077  1.0000
  H   H1225     1.0  0.37582  0.99675  0.17230  1.0000
  H   H1226     1.0  0.61853  0.04705  0.25064  1.0000
  C   C726      1.0  0.35781  0.06788  0.42834  1.0000
  S   S213      1.0  0.38796  0.12903  0.99201  1.0000
  H   H1227     1.0  0.61045  0.02831  0.14377  1.0000
  H   H1228     1.0  0.39533  0.06120  0.17244  1.0000
  H   H1229     1.0  0.36758  0.05254  0.46887  1.0000
  H   H1230     1.0  0.32537  0.20758  0.09225  1.0000
  H   H1231     1.0  0.39449  0.05573  0.25488  1.0000
  H   H1232     1.0  0.45054  0.99211  0.22828  1.0000
  H   H1233     1.0  0.51423  0.04672  0.28657  1.0000
  C   C727      1.0  0.38954  0.04699  0.23528  1.0000
  H   H1234     1.0  0.43260  0.17354  0.00402  1.0000
  H   H1235     1.0  0.54862  0.01417  0.26193  1.0000
  C   C728      1.0  0.60910  0.00664  0.16570  1.0000
  N   N52       1.0  0.35470  0.21223  0.05880  1.0000
  H   H1236     1.0  0.62720  0.02055  0.21992  1.0000
  H   H1237     1.0  0.37485  0.01144  0.14681  1.0000
  H   H1238     1.0  0.50923  0.02150  0.23820  1.0000
  H   H1239     1.0  0.38597  0.09901  0.47549  1.0000
  C   C729      1.0  0.38306  0.00926  0.16409  1.0000
  H   H1240     1.0  0.51264  0.02100  0.27752  1.0000
  H   H1241     1.0  0.35332  0.22793  0.09513  1.0000
  N   N53       1.0  0.36717  0.07600  0.45736  1.0000
  H   H1242     1.0  0.35261  0.21961  0.99548  1.0000
  C   C730      1.0  0.39858  0.99950  0.26794  1.0000
  H   H1243     1.0  0.38370  0.21897  0.09978  1.0000
  H   H1244     1.0  0.33764  0.22339  0.04663  1.0000
  C   C731      1.0  0.44911  0.13030  0.24234  1.0000
  H   H1245     1.0  0.42351  0.00348  0.19734  1.0000
  C   C732      1.0  0.37269  0.10519  0.43955  1.0000
  H   H1246     1.0  0.59925  0.99882  0.14887  1.0000
  C   C733      1.0  0.45479  0.15006  0.32209  1.0000
  H   H1247     1.0  0.59623  0.02224  0.17265  1.0000
  H   H1248     1.0  0.37244  0.19088  0.08589  1.0000
  C   C734      1.0  0.54832  0.04263  0.27334  1.0000
  H   H1249     1.0  0.40258  0.08036  0.46957  1.0000
  S   S214      1.0  0.64504  0.09443  0.21587  1.0000
  H   H1250     1.0  0.34934  0.18955  0.03278  1.0000
  C   C735      1.0  0.56415  0.99442  0.22022  1.0000
  H   H1251     1.0  0.36633  0.23674  0.04195  1.0000
  H   H1252     1.0  0.37535  0.02094  0.19858  1.0000
  H   H1253     1.0  0.62105  0.00684  0.15846  1.0000
  C   C736      1.0  0.37966  0.09338  0.45350  1.0000
  C   C737      1.0  0.40401  0.04825  0.21581  1.0000
  H   H1254     1.0  0.45745  0.12962  0.29982  1.0000
  H   H1255     1.0  0.44801  0.11792  0.24917  1.0000
  C   C738      1.0  0.45715  0.14155  0.29334  1.0000
  C   C739      1.0  0.44477  0.15537  0.25897  1.0000
  C   C740      1.0  0.41273  0.12360  0.25527  1.0000
  C   C741      1.0  0.43859  0.15673  0.22651  1.0000
  H   H1256     1.0  0.44037  0.12770  0.22250  1.0000
  H   H1257     1.0  0.43737  0.15922  0.27453  1.0000
  H   H1258     1.0  0.45775  0.16499  0.26167  1.0000
  H   H1259     1.0  0.41008  0.13459  0.25127  1.0000
  H   H1260     1.0  0.40152  0.11434  0.26505  1.0000
  H   H1261     1.0  0.41417  0.11806  0.23388  1.0000
  H   H1262     1.0  0.43250  0.16550  0.22669  1.0000
  H   H1263     1.0  0.42938  0.14519  0.21564  1.0000
  H   H1264     1.0  0.44925  0.16223  0.21204  1.0000
  N   N54       1.0  0.58980  0.12826  0.34714  1.0000
  C   C742      1.0  0.57876  0.12041  0.31938  1.0000
  C   C743      1.0  0.59006  0.11441  0.36593  1.0000
  C   C744      1.0  0.60710  0.13813  0.33724  1.0000
  C   C745      1.0  0.58295  0.13912  0.36287  1.0000
  C   C746      1.0  0.57304  0.10248  0.37640  1.0000
  C   C747      1.0  0.62049  0.14773  0.36191  1.0000
  C   C748      1.0  0.58781  0.14307  0.39674  1.0000
  H   H1265     1.0  0.58262  0.11125  0.30850  1.0000
  H   H1266     1.0  0.59861  0.11887  0.38612  1.0000
  H   H1267     1.0  0.59522  0.10683  0.35327  1.0000
  H   H1268     1.0  0.61170  0.12998  0.32482  1.0000
  H   H1269     1.0  0.60714  0.14762  0.32136  1.0000
  H   H1270     1.0  0.58660  0.15106  0.35160  1.0000
  H   H1271     1.0  0.56907  0.13333  0.36093  1.0000
  H   H1272     1.0  0.56596  0.10892  0.38636  1.0000
  H   H1273     1.0  0.56535  0.09408  0.35776  1.0000
  H   H1274     1.0  0.57508  0.09457  0.39373  1.0000
  H   H1275     1.0  0.62190  0.13981  0.37968  1.0000
  H   H1276     1.0  0.61816  0.15807  0.37171  1.0000
  H   H1277     1.0  0.63274  0.15323  0.35169  1.0000
  H   H1278     1.0  0.59020  0.15614  0.40178  1.0000
  H   H1279     1.0  0.59906  0.14149  0.40500  1.0000
  H   H1280     1.0  0.57723  0.13573  0.41033  1.0000
  H   H1281     1.0  0.45420  0.16205  0.31778  1.0000
  C   C749      1.0  0.57798  0.13220  0.29496  1.0000
  H   H1282     1.0  0.60602  0.00038  0.18725  1.0000
  C   C750      1.0  0.41456  0.22797  0.04384  1.0000
  H   H1283     1.0  0.58929  0.13650  0.28189  1.0000
  H   H1284     1.0  0.44374  0.14209  0.33389  1.0000
  H   H1285     1.0  0.42794  0.11567  0.28436  1.0000
  H   H1286     1.0  0.46740  0.13403  0.20891  1.0000
  H   H1287     1.0  0.46565  0.15253  0.33807  1.0000
  H   H1288     1.0  0.34955  0.05479  0.43172  1.0000
  C   C751      1.0  0.41663  0.00229  0.21721  1.0000
  H   H1289     1.0  0.35191  0.20836  0.10641  1.0000
  H   H1290     1.0  0.47619  0.13763  0.24636  1.0000
  H   H1291     1.0  0.38190  0.20432  0.05614  1.0000
  H   H1292     1.0  0.36092  0.06711  0.38045  1.0000
  H   H1293     1.0  0.56734  0.12541  0.27868  1.0000
  H   H1294     1.0  0.38720  0.03390  0.12325  1.0000
  H   H1295     1.0  0.47014  0.15271  0.22859  1.0000
  H   H1296     1.0  0.46443  0.99707  0.17924  1.0000
  C   C752      1.0  0.36689  0.22448  0.03915  1.0000
  H   H1297     1.0  0.38293  0.05183  0.12139  1.0000
  N   N55       1.0  0.44455  0.13891  0.26747  1.0000
  H   H1298     1.0  0.46994  0.14935  0.28689  1.0000
  H   H1299     1.0  0.34559  0.18674  0.07072  1.0000
  C   C753      1.0  0.39289  0.06842  0.46083  1.0000
  H   H1300     1.0  0.42460  0.06630  0.16319  1.0000
  H   H1301     1.0  0.41199  0.03427  0.14904  1.0000
  C   C754      1.0  0.35468  0.07690  0.47863  1.0000
  H   H1302     1.0  0.64181  0.02945  0.17736  1.0000
  C   C755      1.0  0.32335  0.20159  0.06962  1.0000
  H   H1303     1.0  0.47718  0.00944  0.21007  1.0000
  H   H1304     1.0  0.37842  0.23318  0.48520  1.0000
  H   H1305     1.0  0.33385  0.05242  0.47039  1.0000
  H   H1306     1.0  0.41216  0.04371  0.22924  1.0000
  H   H1307     1.0  0.52568  0.05572  0.25431  1.0000
  C   C756      1.0  0.47101  0.99661  0.20070  1.0000
  H   H1308     1.0  0.54535  0.05006  0.18563  1.0000
  C   C757      1.0  0.36817  0.06751  0.40168  1.0000
  H   H1309     1.0  0.36435  0.10786  0.45462  1.0000
  C   C758      1.0  0.33754  0.21096  0.04900  1.0000
  H   H1310     1.0  0.62634  0.03336  0.26693  1.0000
  C   C759      1.0  0.64587  0.11604  0.17051  1.0000
  H   H1311     1.0  0.55010  0.03025  0.31475  1.0000
  C   C760      1.0  0.53565  0.01325  0.26109  1.0000
  H   H1312     1.0  0.39327  0.06766  0.43625  1.0000
  H   H1313     1.0  0.65102  0.09420  0.36639  1.0000
  C   C761      1.0  0.62055  0.02886  0.21894  1.0000
  H   H1314     1.0  0.61649  0.07166  0.16539  1.0000
  H   H1315     1.0  0.37985  0.07862  0.40035  1.0000
  H   H1316     1.0  0.63903  0.04322  0.15262  1.0000
  H   H1317     1.0  0.38010  0.05014  0.22287  1.0000
  H   H1318     1.0  0.63976  0.04983  0.24570  1.0000
  C   C762      1.0  0.37678  0.22677  0.10271  1.0000
  H   H1319     1.0  0.61100  0.05345  0.14244  1.0000
  H   H1320     1.0  0.45394  0.18322  0.99606  1.0000
  C   C763      1.0  0.40226  0.20553  0.00627  1.0000
  H   H1321     1.0  0.64260  0.13244  0.41293  1.0000
  H   H1322     1.0  0.65091  0.06453  0.20229  1.0000
  C   C764      1.0  0.64899  0.12435  0.41146  1.0000
  C   C765      1.0  0.32369  0.07986  0.09179  1.0000
  H   H1323     1.0  0.39139  0.99842  0.28740  1.0000
  H   H1324     1.0  0.39649  0.05873  0.47005  1.0000
  H   H1325     1.0  0.44176  0.20291  0.00604  1.0000
  H   H1326     1.0  0.48099  0.99243  0.19625  1.0000
  H   H1327     1.0  0.64726  0.13290  0.13544  1.0000
  H   H1328     1.0  0.41907  0.22010  0.48760  1.0000
  C   C766      1.0  0.43693  0.05790  0.90990  1.0000
  Fe  Fe109     1.0  0.62143  0.08453  0.73908  1.0000
  S   S215      1.0  0.62497  0.06968  0.77710  1.0000
  S   S216      1.0  0.63276  0.08486  0.69359  1.0000
  Fe  Fe110     1.0  0.59262  0.08898  0.76885  1.0000
  S   S217      1.0  0.59413  0.07449  0.80855  1.0000
  S   S218      1.0  0.57418  0.10049  0.75769  1.0000
  Fe  Fe111     1.0  0.62203  0.08844  0.80817  1.0000
  H   H1329     1.0  0.61534  0.12691  0.93236  1.0000
  Fe  Fe112     1.0  0.59709  0.05680  0.77550  1.0000
  S   S219      1.0  0.58464  0.02951  0.78387  1.0000
  S   S220      1.0  0.62043  0.10441  0.77012  1.0000
  S   S221      1.0  0.59354  0.07015  0.73577  1.0000
  Fe  Fe113     1.0  0.48078  0.08667  0.80031  1.0000
  S   S222      1.0  0.45994  0.07168  0.82923  1.0000
  S   S223      1.0  0.50694  0.09108  0.81956  1.0000
  Fe  Fe114     1.0  0.45589  0.08689  0.74977  1.0000
  S   S224      1.0  0.43354  0.07141  0.77468  1.0000
  S   S225      1.0  0.45577  0.09391  0.70084  1.0000
  Fe  Fe115     1.0  0.44715  0.08798  0.81509  1.0000
  S   S226      1.0  0.43043  0.09655  0.84275  1.0000
  Fe  Fe116     1.0  0.44798  0.05642  0.78727  1.0000
  S   S227      1.0  0.44034  0.02883  0.78959  1.0000
  S   S228      1.0  0.46889  0.10439  0.78911  1.0000
  S   S229      1.0  0.46936  0.07052  0.75940  1.0000
  Fe  Fe117     1.0  0.40197  0.15179  0.54643  1.0000
  C   C767      1.0  0.40904  0.01791  0.84319  1.0000
  S   S230      1.0  0.40565  0.17758  0.56424  1.0000
  Fe  Fe118     1.0  0.40117  0.12107  0.57976  1.0000
  S   S231      1.0  0.38995  0.10421  0.53934  1.0000
  S   S232      1.0  0.40217  0.11233  0.62734  1.0000
  C   C768      1.0  0.39510  0.04437  0.91872  1.0000
  H   H1330     1.0  0.38136  0.05146  0.86225  1.0000
  Fe  Fe119     1.0  0.37349  0.11773  0.53218  1.0000
  S   S233      1.0  0.34581  0.10592  0.51882  1.0000
  S   S234      1.0  0.42068  0.14054  0.55436  1.0000
  S   S235      1.0  0.38321  0.13311  0.57423  1.0000
  C   C769      1.0  0.33156  0.09126  0.54150  1.0000
  C   C770      1.0  0.33698  0.08436  0.56536  1.0000
  H   H1331     1.0  0.35017  0.08798  0.57030  1.0000
  C   C771      1.0  0.44107  0.09965  0.68123  1.0000
  C   C772      1.0  0.42693  0.09950  0.69444  1.0000
  C   C773      1.0  0.41521  0.10346  0.67757  1.0000
  C   C774      1.0  0.41743  0.10752  0.64733  1.0000
  C   C775      1.0  0.43156  0.10765  0.63411  1.0000
  C   C776      1.0  0.44335  0.10382  0.65104  1.0000
  H   H1332     1.0  0.42497  0.09625  0.71758  1.0000
  H   H1333     1.0  0.40427  0.10325  0.68798  1.0000
  H   H1334     1.0  0.43337  0.11058  0.61081  1.0000
  H   H1335     1.0  0.45420  0.10386  0.64057  1.0000
  C   C777      1.0  0.42602  0.10835  0.94257  1.0000
  C   C778      1.0  0.41394  0.10777  0.92057  1.0000
  C   C779      1.0  0.41571  0.10447  0.89020  1.0000
  C   C780      1.0  0.42947  0.10156  0.88131  1.0000
  C   C781      1.0  0.44158  0.10220  0.90330  1.0000
  C   C782      1.0  0.43983  0.10555  0.93366  1.0000
  H   H1336     1.0  0.40314  0.10967  0.92698  1.0000
  H   H1337     1.0  0.40621  0.10396  0.87348  1.0000
  H   H1338     1.0  0.45227  0.10006  0.89695  1.0000
  H   H1339     1.0  0.44928  0.10597  0.95041  1.0000
  C   C783      1.0  0.40930  0.01470  0.75947  1.0000
  C   C784      1.0  0.42365  0.01283  0.76964  1.0000
  H   H1340     1.0  0.43284  0.06787  0.86844  1.0000
  H   H1341     1.0  0.40828  0.02626  0.76357  1.0000
  H   H1342     1.0  0.62561  0.12040  0.86977  1.0000
  C   C785      1.0  0.55467  0.09610  0.77362  1.0000
  C   C786      1.0  0.55045  0.08781  0.80035  1.0000
  C   C787      1.0  0.53562  0.08602  0.81374  1.0000
  C   C788      1.0  0.52445  0.09187  0.80001  1.0000
  C   C789      1.0  0.52835  0.09956  0.77264  1.0000
  C   C790      1.0  0.54346  0.10185  0.75978  1.0000
  H   H1343     1.0  0.55873  0.08301  0.81095  1.0000
  H   H1344     1.0  0.53277  0.08008  0.83492  1.0000
  H   H1345     1.0  0.52002  0.10432  0.76198  1.0000
  H   H1346     1.0  0.54655  0.10830  0.73914  1.0000
  H   H1347     1.0  0.55956  0.00739  0.68319  1.0000
  H   H1348     1.0  0.37437  0.19300  0.53458  1.0000
  C   C791      1.0  0.57380  0.01388  0.75644  1.0000
  C   C792      1.0  0.57007  0.01744  0.72738  1.0000
  C   C793      1.0  0.56229  0.00459  0.70572  1.0000
  H   H1349     1.0  0.42709  0.03077  0.87822  1.0000
  H   H1350     1.0  0.57329  0.03008  0.72158  1.0000
  H   H1351     1.0  0.40571  0.05027  0.93540  1.0000
  H   H1352     1.0  0.41114  0.15941  0.96523  1.0000
  H   H1353     1.0  0.59865  0.09617  0.91013  1.0000
  H   H1354     1.0  0.62426  0.05119  0.71779  1.0000
  C   C794      1.0  0.45559  0.15544  0.98247  1.0000
  N   N56       1.0  0.62152  0.02607  0.71065  1.0000
  H   H1355     1.0  0.44072  0.18351  0.89236  1.0000
  H   H1356     1.0  0.56930  0.12564  0.86652  1.0000
  H   H1357     1.0  0.32965  0.20141  0.55198  1.0000
  C   C795      1.0  0.41386  0.22896  0.52939  1.0000
  C   C796      1.0  0.40945  0.22481  0.55876  1.0000
  C   C797      1.0  0.40704  0.20907  0.56891  1.0000
  C   C798      1.0  0.40867  0.19713  0.54977  1.0000
  C   C799      1.0  0.41285  0.20119  0.52029  1.0000
  C   C800      1.0  0.41559  0.21705  0.51032  1.0000
  H   H1358     1.0  0.36913  0.22145  0.61472  1.0000
  H   H1359     1.0  0.57390  0.08123  0.85595  1.0000
  H   H1360     1.0  0.43040  0.04797  0.92527  1.0000
  H   H1361     1.0  0.41726  0.17567  0.94080  1.0000
  H   H1362     1.0  0.41425  0.19224  0.50530  1.0000
  C   C801      1.0  0.43890  0.15364  0.96685  1.0000
  H   H1363     1.0  0.35387  0.19833  0.57680  1.0000
  H   H1364     1.0  0.33358  0.06285  0.50453  1.0000
  C   C802      1.0  0.36195  0.22311  0.59491  1.0000
  H   H1365     1.0  0.56193  0.11239  0.89660  1.0000
  H   H1366     1.0  0.33829  0.22311  0.55780  1.0000
  N   N57       1.0  0.42713  0.03846  0.67641  1.0000
  C   C803      1.0  0.44590  0.04448  0.67806  1.0000
  C   C804      1.0  0.42208  0.04304  0.64639  1.0000
  C   C805      1.0  0.41983  0.01996  0.67865  1.0000
  C   C806      1.0  0.42258  0.04664  0.70225  1.0000
  C   C807      1.0  0.45351  0.03777  0.70367  1.0000
  C   C808      1.0  0.42809  0.06164  0.64162  1.0000
  C   C809      1.0  0.40135  0.01032  0.66837  1.0000
  C   C810      1.0  0.40435  0.04463  0.70297  1.0000
  H   H1367     1.0  0.45030  0.04133  0.65685  1.0000
  H   H1368     1.0  0.45205  0.05816  0.68072  1.0000
  H   H1369     1.0  0.40839  0.03778  0.64203  1.0000
  H   H1370     1.0  0.42664  0.03766  0.62798  1.0000
  H   H1371     1.0  0.42677  0.01456  0.66492  1.0000
  H   H1372     1.0  0.42133  0.01651  0.70205  1.0000
  H   H1373     1.0  0.42550  0.04217  0.72388  1.0000
  H   H1374     1.0  0.43058  0.06008  0.70410  1.0000
  H   H1375     1.0  0.46726  0.04464  0.70497  1.0000
  H   H1376     1.0  0.44913  0.03933  0.72581  1.0000
  H   H1377     1.0  0.45090  0.02459  0.69958  1.0000
  H   H1378     1.0  0.44185  0.06815  0.64332  1.0000
  H   H1379     1.0  0.42387  0.06356  0.61877  1.0000
  H   H1380     1.0  0.42262  0.06745  0.65755  1.0000
  H   H1381     1.0  0.53131  0.00545  0.74066  1.0000
  H   H1382     1.0  0.59729  0.00838  0.72272  1.0000
  H   H1383     1.0  0.41086  0.13975  0.92735  1.0000
  H   H1384     1.0  0.39707  0.03418  0.71684  1.0000
  H   H1385     1.0  0.39783  0.04311  0.68073  1.0000
  H   H1386     1.0  0.40413  0.05603  0.71311  1.0000
  H   H1387     1.0  0.45089  0.16796  0.91988  1.0000
  N   N58       1.0  0.43251  0.16649  0.65113  1.0000
  C   C811      1.0  0.44419  0.15785  0.65276  1.0000
  C   C812      1.0  0.43434  0.17534  0.68101  1.0000
  C   C813      1.0  0.43774  0.17866  0.62639  1.0000
  C   C814      1.0  0.41512  0.15361  0.64431  1.0000
  C   C815      1.0  0.44633  0.14999  0.62313  1.0000
  C   C816      1.0  0.42933  0.16427  0.70824  1.0000
  C   C817      1.0  0.43271  0.19336  0.62814  1.0000
  C   C818      1.0  0.40065  0.15912  0.64528  1.0000
  H   H1388     1.0  0.45689  0.16649  0.66138  1.0000
  H   H1389     1.0  0.43997  0.14763  0.66867  1.0000
  H   H1390     1.0  0.42696  0.18288  0.68129  1.0000
  H   H1391     1.0  0.44747  0.18436  0.68555  1.0000
  H   H1392     1.0  0.45156  0.18431  0.62549  1.0000
  H   H1393     1.0  0.43288  0.17232  0.60407  1.0000
  H   H1394     1.0  0.41401  0.14808  0.62143  1.0000
  H   H1395     1.0  0.41228  0.14292  0.65897  1.0000
  H   H1396     1.0  0.43449  0.14005  0.61445  1.0000
  H   H1397     1.0  0.45151  0.15911  0.60567  1.0000
  H   H1398     1.0  0.45521  0.14416  0.62741  1.0000
  H   H1399     1.0  0.43030  0.17205  0.72851  1.0000
  H   H1400     1.0  0.41626  0.15503  0.70563  1.0000
  H   H1401     1.0  0.43778  0.15801  0.71285  1.0000
  H   H1402     1.0  0.41923  0.18958  0.63047  1.0000
  H   H1403     1.0  0.43572  0.20006  0.60695  1.0000
  H   H1404     1.0  0.43989  0.20229  0.64652  1.0000
  H   H1405     1.0  0.39831  0.16358  0.62325  1.0000
  H   H1406     1.0  0.40231  0.16850  0.66301  1.0000
  H   H1407     1.0  0.38918  0.14837  0.65056  1.0000
  N   N59       1.0  0.60684  0.11629  0.66596  1.0000
  C   C819      1.0  0.59755  0.10045  0.68143  1.0000
  C   C820      1.0  0.61951  0.12800  0.68866  1.0000
  C   C821      1.0  0.61549  0.11244  0.64027  1.0000
  C   C822      1.0  0.59425  0.12271  0.65483  1.0000
  C   C823      1.0  0.58548  0.08584  0.66118  1.0000
  C   C824      1.0  0.61249  0.13294  0.71636  1.0000
  C   C825      1.0  0.63170  0.12630  0.63062  1.0000
  C   C826      1.0  0.60116  0.13977  0.64113  1.0000
  H   H1408     1.0  0.60649  0.09625  0.69309  1.0000
  H   H1409     1.0  0.58988  0.10221  0.69912  1.0000
  H   H1410     1.0  0.62740  0.13973  0.67857  1.0000
  H   H1411     1.0  0.62830  0.12261  0.69692  1.0000
  H   H1412     1.0  0.61926  0.10221  0.64593  1.0000
  H   H1413     1.0  0.60685  0.10791  0.61998  1.0000
  H   H1414     1.0  0.58546  0.11420  0.63731  1.0000
  H   H1415     1.0  0.58637  0.12321  0.67330  1.0000
  C   C827      1.0  0.41348  0.15240  0.92012  1.0000
  H   H1416     1.0  0.57514  0.08837  0.65074  1.0000
  H   H1417     1.0  0.57965  0.07501  0.67522  1.0000
  H   H1418     1.0  0.60579  0.12233  0.73023  1.0000
  C   C828      1.0  0.39603  0.00141  0.74469  1.0000
  H   H1419     1.0  0.64217  0.04107  0.74156  1.0000
  H   H1420     1.0  0.63047  0.13786  0.62560  1.0000
  H   H1421     1.0  0.63573  0.12209  0.61009  1.0000
  C   C829      1.0  0.58858  0.12018  0.89133  1.0000
  H   H1422     1.0  0.61012  0.14944  0.65671  1.0000
  H   H1423     1.0  0.59068  0.14341  0.63595  1.0000
  H   H1424     1.0  0.60683  0.13952  0.61967  1.0000
  N   N60       1.0  0.41174  0.04456  0.87179  1.0000
  S   S236      1.0  0.39098  0.13694  0.50315  1.0000
  C   C830      1.0  0.42496  0.06018  0.88586  1.0000
  C   C831      1.0  0.40328  0.04895  0.84531  1.0000
  C   C832      1.0  0.39928  0.03467  0.89374  1.0000
  H   H1425     1.0  0.61412  0.13749  0.82858  1.0000
  H   H1426     1.0  0.62303  0.14172  0.73092  1.0000
  C   C833      1.0  0.39318  0.05911  0.85211  1.0000
  H   H1427     1.0  0.61241  0.00015  0.72122  1.0000
  H   H1428     1.0  0.60530  0.10792  0.83147  1.0000
  C   C834      1.0  0.63223  0.02830  0.68429  1.0000
  H   H1429     1.0  0.40450  0.01997  0.82078  1.0000
  H   H1430     1.0  0.40026  0.07030  0.86627  1.0000
  H   H1431     1.0  0.41263  0.05586  0.82903  1.0000
  H   H1432     1.0  0.39427  0.03775  0.83283  1.0000
  H   H1433     1.0  0.38731  0.02660  0.88163  1.0000
  H   H1434     1.0  0.40363  0.02609  0.90562  1.0000
  H   H1435     1.0  0.60430  0.13928  0.71026  1.0000
  H   H1436     1.0  0.56561  0.10427  0.86261  1.0000
  H   H1437     1.0  0.38027  0.20934  0.50809  1.0000
  H   H1438     1.0  0.34930  0.22062  0.60225  1.0000
  H   H1439     1.0  0.59400  0.13644  0.83866  1.0000
  H   H1440     1.0  0.52738  0.01487  0.70824  1.0000
  C   C835      1.0  0.41970  0.16485  0.94703  1.0000
  C   C836      1.0  0.35377  0.19941  0.51858  1.0000
  C   C837      1.0  0.44628  0.18962  0.91446  1.0000
  H   H1441     1.0  0.41647  0.01059  0.83914  1.0000
  H   H1442     1.0  0.59325  0.02918  0.67840  1.0000
  H   H1443     1.0  0.38973  0.06339  0.83067  1.0000
  H   H1444     1.0  0.61860  0.03415  0.77366  1.0000
  H   H1445     1.0  0.40388  0.20613  0.59179  1.0000
  C   C838      1.0  0.36681  0.23019  0.52843  1.0000
  C   C839      1.0  0.62351  0.12454  0.91656  1.0000
  C   C840      1.0  0.60074  0.00029  0.67887  1.0000
  H   H1446     1.0  0.44679  0.05527  0.89926  1.0000
  N   N61       1.0  0.35503  0.21366  0.53884  1.0000
  H   H1447     1.0  0.59193  0.08208  0.64374  1.0000
  H   H1448     1.0  0.41946  0.06806  0.89623  1.0000
  C   C841      1.0  0.56931  0.99741  0.76386  1.0000
  H   H1449     1.0  0.64347  0.08332  0.63448  1.0000
  C   C842      1.0  0.65132  0.09536  0.64418  1.0000
  H   H1450     1.0  0.34048  0.13159  0.62574  1.0000
  H   H1451     1.0  0.59616  0.12756  0.80387  1.0000
  C   C843      1.0  0.33730  0.11860  0.63135  1.0000
  H   H1452     1.0  0.51140  0.00694  0.73428  1.0000
  C   C844      1.0  0.33786  0.21316  0.54206  1.0000
  C   C845      1.0  0.57053  0.11518  0.87805  1.0000
  H   H1453     1.0  0.62483  0.02639  0.66272  1.0000
  S   S237      1.0  0.63508  0.09299  0.85522  1.0000
  H   H1454     1.0  0.56932  0.08525  0.89378  1.0000
  C   C846      1.0  0.36143  0.21098  0.56937  1.0000
  H   H1455     1.0  0.39930  0.01039  0.64372  1.0000
  H   H1456     1.0  0.58785  0.11685  0.91529  1.0000
  H   H1457     1.0  0.43700  0.14537  0.94680  1.0000
  H   H1458     1.0  0.60461  0.09156  0.87494  1.0000
  H   H1459     1.0  0.62497  0.11305  0.92208  1.0000
  H   H1460     1.0  0.63933  0.02012  0.73755  1.0000
  H   H1461     1.0  0.57811  0.07084  0.88657  1.0000
  C   C847      1.0  0.59605  0.09616  0.88559  1.0000
  H   H1462     1.0  0.39758  0.99720  0.67397  1.0000
  H   H1463     1.0  0.59451  0.13389  0.89171  1.0000
  H   H1464     1.0  0.58433  0.10447  0.83341  1.0000
  H   H1465     1.0  0.61249  0.04389  0.66410  1.0000
  H   H1466     1.0  0.46259  0.18424  0.94610  1.0000
  H   H1467     1.0  0.63614  0.13463  0.92018  1.0000
  C   C848      1.0  0.63249  0.02825  0.73880  1.0000
  C   C849      1.0  0.61738  0.12411  0.88351  1.0000
  H   H1468     1.0  0.38465  0.03567  0.93108  1.0000
  C   C850      1.0  0.52142  0.00468  0.72356  1.0000
  H   H1469     1.0  0.44331  0.06955  0.92349  1.0000
  H   H1470     1.0  0.34796  0.05351  0.50217  1.0000
  C   C851      1.0  0.57825  0.08287  0.87983  1.0000
  H   H1471     1.0  0.43006  0.04147  0.84432  1.0000
  N   N62       1.0  0.43750  0.16942  0.95833  1.0000
  H   H1472     1.0  0.60054  0.05051  0.68758  1.0000
  C   C852      1.0  0.42037  0.03428  0.85982  1.0000
  H   H1473     1.0  0.33827  0.11758  0.65592  1.0000
  H   H1474     1.0  0.39290  0.01457  0.67979  1.0000
  H   H1475     1.0  0.64197  0.12902  0.64794  1.0000
  H   H1476     1.0  0.60564  0.03633  0.73048  1.0000
  H   H1477     1.0  0.61334  0.01238  0.76882  1.0000
  H   H1478     1.0  0.43554  0.99594  0.77342  1.0000
  H   H1479     1.0  0.32960  0.06745  0.60138  1.0000
  H   H1480     1.0  0.45598  0.14311  0.98312  1.0000
  C   C853      1.0  0.37025  0.19765  0.51428  1.0000
  C   C854      1.0  0.60465  0.04043  0.68364  1.0000
  H   H1481     1.0  0.37437  0.21187  0.56861  1.0000
  Fe  Fe120     1.0  0.40834  0.12431  0.51279  1.0000
  C   C855      1.0  0.62355  0.02483  0.76847  1.0000
  C   C856      1.0  0.44992  0.17753  0.93514  1.0000
  H   H1482     1.0  0.62029  0.13713  0.87815  1.0000
  H   H1483     1.0  0.39114  0.05389  0.91022  1.0000
  H   H1484     1.0  0.39839  0.01027  0.85622  1.0000
  H   H1485     1.0  0.40151  0.15215  0.91050  1.0000
  N   N63       1.0  0.59927  0.11326  0.87555  1.0000
  H   H1486     1.0  0.37775  0.06866  0.49631  1.0000
  C   C857      1.0  0.60793  0.00878  0.70984  1.0000
  C   C858      1.0  0.65033  0.10729  0.88121  1.0000
  H   H1487     1.0  0.42236  0.15553  0.90211  1.0000
  H   H1488     1.0  0.36117  0.08436  0.49922  1.0000
  C   C859      1.0  0.61429  0.03879  0.71208  1.0000
  H   H1489     1.0  0.63743  0.01876  0.68400  1.0000
  H   H1490     1.0  0.45826  0.19983  0.90964  1.0000
  H   H1491     1.0  0.37992  0.23257  0.53562  1.0000
  H   H1492     1.0  0.40820  0.23384  0.57379  1.0000
  H   H1493     1.0  0.34491  0.18757  0.52727  1.0000
  C   C860      1.0  0.60056  0.12968  0.82789  1.0000
  H   H1494     1.0  0.57213  0.99457  0.78633  1.0000
  H   H1495     1.0  0.34704  0.11521  0.62203  1.0000
  C   C861      1.0  0.32529  0.07268  0.58288  1.0000
  C   C862      1.0  0.59697  0.11292  0.84186  1.0000
  H   H1496     1.0  0.64642  0.08906  0.91458  1.0000
  H   H1497     1.0  0.42889  0.14659  0.98186  1.0000
  C   C863      1.0  0.42455  0.99754  0.76523  1.0000
  H   H1498     1.0  0.46648  0.16348  0.97041  1.0000
  C   C864      1.0  0.64700  0.04523  0.68277  1.0000
  H   H1499     1.0  0.59670  0.00779  0.66368  1.0000
  H   H1500     1.0  0.43844  0.19540  0.92366  1.0000
  S   S238      1.0  0.42456  0.11246  0.98134  1.0000
  H   H1501     1.0  0.63268  0.02576  0.78717  1.0000
  H   H1502     1.0  0.38489  0.00287  0.73700  1.0000
  H   H1503     1.0  0.36439  0.24023  0.53953  1.0000
  C   C865      1.0  0.64898  0.09953  0.67362  1.0000
  H   H1504     1.0  0.60984  0.99671  0.66768  1.0000
  H   H1505     1.0  0.45031  0.20544  0.97026  1.0000
  H   H1506     1.0  0.42785  0.19595  0.97394  1.0000
  H   H1507     1.0  0.64299  0.05555  0.68284  1.0000
  H   H1508     1.0  0.36822  0.23613  0.58881  1.0000
  H   H1509     1.0  0.31905  0.09412  0.61997  1.0000
  H   H1510     1.0  0.32675  0.20577  0.49573  1.0000
  C   C866      1.0  0.44011  0.19699  0.98334  1.0000
  H   H1511     1.0  0.34843  0.19983  0.49592  1.0000
  H   H1512     1.0  0.39615  0.20118  0.98435  1.0000
  H   H1513     1.0  0.36838  0.18843  0.49586  1.0000
  C   C867      1.0  0.32865  0.21529  0.51343  1.0000
  H   H1514     1.0  0.33496  0.22782  0.50483  1.0000
  C   C868      1.0  0.32019  0.10693  0.61683  1.0000
  H   H1515     1.0  0.32125  0.10873  0.59241  1.0000
  C   C869      1.0  0.36680  0.23296  0.49433  1.0000
  C   C870      1.0  0.44114  0.18021  0.98642  1.0000
  C   C871      1.0  0.34193  0.06032  0.48918  1.0000
  H   H1516     1.0  0.46578  0.48972  0.18304  1.0000
  Fe  Fe121     1.0  0.48472  0.40493  0.29666  1.0000
  S   S239      1.0  0.46431  0.40102  0.32825  1.0000
  S   S240      1.0  0.51195  0.42137  0.31224  1.0000
  Fe  Fe122     1.0  0.46031  0.37743  0.25212  1.0000
  S   S241      1.0  0.43850  0.37227  0.28088  1.0000
  S   S242      1.0  0.46153  0.36084  0.21321  1.0000
  Fe  Fe123     1.0  0.44854  0.40000  0.28641  1.0000
  S   S243      1.0  0.43370  0.41555  0.29191  1.0000
  Fe  Fe124     1.0  0.45590  0.37369  0.32063  1.0000
  S   S244      1.0  0.45053  0.35211  0.35263  1.0000
  S   S245      1.0  0.46937  0.40524  0.25508  1.0000
  S   S246      1.0  0.47728  0.37757  0.29150  1.0000
  S   S247      1.0  0.38778  0.47109  0.15992  1.0000
  Fe  Fe125     1.0  0.36842  0.47240  0.23581  1.0000
  S   S248      1.0  0.35744  0.45087  0.20307  1.0000
  S   S249      1.0  0.35713  0.47453  0.28015  1.0000
  Fe  Fe126     1.0  0.38380  0.45402  0.19797  1.0000
  S   S250      1.0  0.39098  0.43262  0.19034  1.0000
  Fe  Fe127     1.0  0.36216  0.46962  0.16739  1.0000
  S   S251      1.0  0.33907  0.46383  0.13551  1.0000
  N   N64       1.0  0.44318  0.35400  0.03015  1.0000
  H   H1517     1.0  0.61254  0.46593  0.24893  1.0000
  Fe  Fe128     1.0  0.40998  0.30052  0.06700  1.0000
  S   S252      1.0  0.39453  0.30149  0.02616  1.0000
  S   S253      1.0  0.41265  0.32113  0.10141  1.0000
  Fe  Fe129     1.0  0.41195  0.26892  0.04159  1.0000
  H   H1518     1.0  0.62335  0.47387  0.19687  1.0000
  H   H1519     1.0  0.45536  0.38064  0.03206  1.0000
  C   C872      1.0  0.33421  0.38291  0.08621  1.0000
  Fe  Fe130     1.0  0.38044  0.27432  0.02943  1.0000
  S   S254      1.0  0.35248  0.26173  0.01925  1.0000
  S   S255      1.0  0.42881  0.29624  0.03930  1.0000
  S   S256      1.0  0.39436  0.27347  0.07209  1.0000
  C   C873      1.0  0.45577  0.36999  0.01937  1.0000
  C   C874      1.0  0.33812  0.25336  0.04716  1.0000
  C   C875      1.0  0.33876  0.42658  0.40061  1.0000
  C   C876      1.0  0.34095  0.45976  0.30002  1.0000
  C   C877      1.0  0.33653  0.46465  0.32724  1.0000
  H   H1520     1.0  0.35654  0.25960  0.08386  1.0000
  H   H1521     1.0  0.34321  0.47718  0.33586  1.0000
  C   C878      1.0  0.44292  0.33938  0.01232  1.0000
  C   C879      1.0  0.33443  0.45825  0.09654  1.0000
  C   C880      1.0  0.34684  0.46159  0.07605  1.0000
  C   C881      1.0  0.34248  0.45719  0.04534  1.0000
  H   H1522     1.0  0.35979  0.46775  0.08377  1.0000
  H   H1523     1.0  0.35220  0.45998  0.02972  1.0000
  C   C882      1.0  0.42629  0.33172  0.13275  1.0000
  C   C883      1.0  0.44065  0.32930  0.14087  1.0000
  C   C884      1.0  0.45129  0.33841  0.16537  1.0000
  C   C885      1.0  0.44769  0.34994  0.18227  1.0000
  C   C886      1.0  0.43329  0.35231  0.17424  1.0000
  C   C887      1.0  0.42274  0.34332  0.14955  1.0000
  H   H1524     1.0  0.44362  0.32050  0.12815  1.0000
  H   H1525     1.0  0.46240  0.33648  0.17131  1.0000
  H   H1526     1.0  0.43033  0.36113  0.18691  1.0000
  H   H1527     1.0  0.41170  0.34535  0.14343  1.0000
  C   C888      1.0  0.44299  0.34578  0.38897  1.0000
  C   C889      1.0  0.43983  0.32960  0.39734  1.0000
  C   C890      1.0  0.43398  0.32394  0.42578  1.0000
  C   C891      1.0  0.43138  0.33446  0.44662  1.0000
  C   C892      1.0  0.43475  0.35072  0.43837  1.0000
  C   C893      1.0  0.44040  0.35631  0.40978  1.0000
  H   H1528     1.0  0.44185  0.32131  0.38167  1.0000
  H   H1529     1.0  0.43158  0.31146  0.43165  1.0000
  H   H1530     1.0  0.43282  0.35902  0.45415  1.0000
  H   H1531     1.0  0.44275  0.36878  0.40390  1.0000
  C   C894      1.0  0.42196  0.42005  0.26310  1.0000
  C   C895      1.0  0.41990  0.41318  0.23407  1.0000
  C   C896      1.0  0.41028  0.41705  0.21193  1.0000
  C   C897      1.0  0.40286  0.42793  0.21861  1.0000
  C   C898      1.0  0.40509  0.43492  0.24754  1.0000
  C   C899      1.0  0.41454  0.43093  0.26970  1.0000
  H   H1532     1.0  0.42558  0.40479  0.22877  1.0000
  H   H1533     1.0  0.40861  0.41160  0.18957  1.0000
  H   H1534     1.0  0.39934  0.44322  0.25298  1.0000
  H   H1535     1.0  0.41609  0.43627  0.29213  1.0000
  C   C900      1.0  0.54858  0.47385  0.28799  1.0000
  C   C901      1.0  0.55257  0.46556  0.31136  1.0000
  C   C902      1.0  0.54123  0.44959  0.31843  1.0000
  C   C903      1.0  0.52565  0.44171  0.30254  1.0000
  C   C904      1.0  0.52164  0.45006  0.27930  1.0000
  C   C905      1.0  0.53304  0.46594  0.27204  1.0000
  H   H1536     1.0  0.56441  0.47141  0.32393  1.0000
  H   H1537     1.0  0.54455  0.44333  0.33645  1.0000
  H   H1538     1.0  0.50978  0.44424  0.26676  1.0000
  H   H1539     1.0  0.52976  0.47217  0.25392  1.0000
  S   S257      1.0  0.39466  0.47412  0.23349  1.0000
  H   H1540     1.0  0.42636  0.45320  0.16146  1.0000
  H   H1541     1.0  0.46635  0.46109  0.27854  1.0000
  C   C906      1.0  0.35980  0.41499  0.39290  1.0000
  Fe  Fe131     1.0  0.41245  0.29603  0.99833  1.0000
  H   H1542     1.0  0.49042  0.35651  0.43340  1.0000
  H   H1543     1.0  0.33206  0.41623  0.41521  1.0000
  H   H1544     1.0  0.59454  0.45205  0.20778  1.0000
  H   H1545     1.0  0.45117  0.36241  0.10788  1.0000
  H   H1546     1.0  0.36232  0.38863  0.12611  1.0000
  N   N65       1.0  0.59558  0.47496  0.22667  1.0000
  H   H1547     1.0  0.42913  0.46964  0.24696  1.0000
  C   C907      1.0  0.42590  0.35384  0.02930  1.0000
  C   C908      1.0  0.43780  0.48131  0.23751  1.0000
  H   H1548     1.0  0.32049  0.45739  0.36454  1.0000
  C   C909      1.0  0.44635  0.36444  0.08558  1.0000
  H   H1549     1.0  0.43292  0.32792  0.01982  1.0000
  H   H1550     1.0  0.56881  0.44973  0.17017  1.0000
  N   N66       1.0  0.34811  0.42153  0.37782  1.0000
  C   C910      1.0  0.45633  0.46122  0.26262  1.0000
  C   C911      1.0  0.45921  0.33677  0.01353  1.0000
  C   C912      1.0  0.34346  0.25335  0.07707  1.0000
  H   H1551     1.0  0.33622  0.47507  0.22247  1.0000
  C   C913      1.0  0.62663  0.48242  0.21673  1.0000
  H   H1552     1.0  0.32019  0.40926  0.10026  1.0000
  H   H1553     1.0  0.57064  0.48813  0.21636  1.0000
  H   H1554     1.0  0.35427  0.42586  0.31235  1.0000
  H   H1555     1.0  0.46151  0.35418  0.06470  1.0000
  H   H1556     1.0  0.35225  0.43598  0.13231  1.0000
  H   H1557     1.0  0.46247  0.33379  0.03626  1.0000
  H   H1558     1.0  0.63802  0.48217  0.22805  1.0000
  C   C914      1.0  0.33535  0.40795  0.35791  1.0000
  H   H1559     1.0  0.37818  0.43823  0.41526  1.0000
  H   H1560     1.0  0.34221  0.39491  0.15428  1.0000
  C   C915      1.0  0.58272  0.45488  0.26878  1.0000
  H   H1561     1.0  0.44095  0.33968  0.06977  1.0000
  H   H1562     1.0  0.43562  0.45294  0.21331  1.0000
  C   C916      1.0  0.59006  0.46176  0.20199  1.0000
  C   C917      1.0  0.32569  0.44940  0.03458  1.0000
  N   N67       1.0  0.34438  0.41057  0.11635  1.0000
  H   H1563     1.0  0.57165  0.45087  0.28251  1.0000
  C   C918      1.0  0.34508  0.40161  0.08786  1.0000
  C   C919      1.0  0.35298  0.42884  0.11219  1.0000
  C   C920      1.0  0.35180  0.40557  0.14361  1.0000
  H   H1564     1.0  0.42651  0.36634  0.03469  1.0000
  S   S258      1.0  0.42034  0.24875  0.05695  1.0000
  C   C921      1.0  0.43130  0.46494  0.17500  1.0000
  C   C922      1.0  0.36640  0.40052  0.13886  1.0000
  H   H1565     1.0  0.32621  0.47379  0.18712  1.0000
  C   C923      1.0  0.32282  0.41594  0.14737  1.0000
  H   H1566     1.0  0.35798  0.40324  0.08374  1.0000
  H   H1567     1.0  0.34111  0.40690  0.06806  1.0000
  H   H1568     1.0  0.41841  0.34578  0.04687  1.0000
  H   H1569     1.0  0.33534  0.43957  0.26827  1.0000
  H   H1570     1.0  0.35621  0.41565  0.16124  1.0000
  C   C924      1.0  0.44317  0.46386  0.20063  1.0000
  C   C925      1.0  0.33211  0.44355  0.28911  1.0000
  H   H1571     1.0  0.37919  0.43561  0.12655  1.0000
  H   H1572     1.0  0.43764  0.47493  0.15960  1.0000
  H   H1573     1.0  0.32279  0.44697  0.19077  1.0000
  H   H1574     1.0  0.32748  0.41273  0.34432  1.0000
  H   H1575     1.0  0.37437  0.42943  0.08693  1.0000
  H   H1576     1.0  0.38504  0.43205  0.38173  1.0000
  H   H1577     1.0  0.40374  0.35023  0.00096  1.0000
  C   C926      1.0  0.32360  0.45346  0.34354  1.0000
  H   H1578     1.0  0.37680  0.40993  0.12775  1.0000
  N   N68       1.0  0.50737  0.38906  0.38403  1.0000
  C   C927      1.0  0.52064  0.40615  0.39111  1.0000
  C   C928      1.0  0.49139  0.39085  0.37611  1.0000
  C   C929      1.0  0.51234  0.38226  0.35682  1.0000
  C   C930      1.0  0.50613  0.37848  0.41072  1.0000
  C   C931      1.0  0.53857  0.40747  0.39685  1.0000
  C   C932      1.0  0.48590  0.40018  0.39975  1.0000
  C   C933      1.0  0.50080  0.36460  0.34598  1.0000
  C   C934      1.0  0.48904  0.36416  0.41495  1.0000
  H   H1579     1.0  0.52091  0.41457  0.37271  1.0000
  H   H1580     1.0  0.51786  0.41168  0.41152  1.0000
  H   H1581     1.0  0.48087  0.37879  0.37137  1.0000
  H   H1582     1.0  0.49249  0.39749  0.35491  1.0000
  H   H1583     1.0  0.51359  0.39043  0.33756  1.0000
  H   H1584     1.0  0.52474  0.38193  0.36087  1.0000
  H   H1585     1.0  0.51550  0.37305  0.41008  1.0000
  H   H1586     1.0  0.50931  0.38603  0.43205  1.0000
  H   H1587     1.0  0.54646  0.41982  0.40712  1.0000
  H   H1588     1.0  0.53925  0.39816  0.41242  1.0000
  H   H1589     1.0  0.48787  0.39689  0.42294  1.0000
  H   H1590     1.0  0.49265  0.41370  0.39772  1.0000
  H   H1591     1.0  0.47242  0.39719  0.39567  1.0000
  H   H1592     1.0  0.48759  0.36264  0.34278  1.0000
  H   H1593     1.0  0.50206  0.35546  0.36135  1.0000
  H   H1594     1.0  0.50464  0.36204  0.32383  1.0000
  H   H1595     1.0  0.47959  0.36866  0.42159  1.0000
  H   H1596     1.0  0.41005  0.33366  0.99797  1.0000
  H   H1597     1.0  0.48395  0.35587  0.39494  1.0000
  C   C935      1.0  0.33192  0.24474  0.09806  1.0000
  H   H1598     1.0  0.32997  0.38819  0.39058  1.0000
  H   H1599     1.0  0.45367  0.37748  0.08065  1.0000
  H   H1600     1.0  0.33621  0.24446  0.12102  1.0000
  H   H1601     1.0  0.59593  0.46697  0.18084  1.0000
  H   H1602     1.0  0.34149  0.40307  0.34147  1.0000
  C   C936      1.0  0.37160  0.43571  0.10614  1.0000
  H   H1603     1.0  0.37571  0.44883  0.10043  1.0000
  H   H1604     1.0  0.46972  0.34743  0.00513  1.0000
  N   N69       1.0  0.42651  0.31841  0.26930  1.0000
  C   C937      1.0  0.42666  0.32415  0.23765  1.0000
  C   C938      1.0  0.44343  0.32859  0.28424  1.0000
  C   C939      1.0  0.41349  0.32206  0.28495  1.0000
  C   C940      1.0  0.42242  0.30019  0.26815  1.0000
  C   C941      1.0  0.41012  0.31617  0.21842  1.0000
  C   C942      1.0  0.45834  0.32704  0.26983  1.0000
  C   C943      1.0  0.41077  0.31693  0.31764  1.0000
  C   C944      1.0  0.42786  0.29305  0.29602  1.0000
  H   H1605     1.0  0.43044  0.33773  0.23771  1.0000
  H   H1606     1.0  0.43604  0.32178  0.22478  1.0000
  H   H1607     1.0  0.44426  0.32585  0.30812  1.0000
  H   H1608     1.0  0.44581  0.34189  0.28462  1.0000
  H   H1609     1.0  0.41641  0.33549  0.28461  1.0000
  H   H1610     1.0  0.40104  0.31572  0.27313  1.0000
  H   H1611     1.0  0.40878  0.29303  0.26378  1.0000
  H   H1612     1.0  0.42836  0.29709  0.24888  1.0000
  H   H1613     1.0  0.41260  0.31920  0.19465  1.0000
  H   H1614     1.0  0.40446  0.30257  0.21904  1.0000
  H   H1615     1.0  0.40105  0.32124  0.22479  1.0000
  H   H1616     1.0  0.45647  0.31409  0.26570  1.0000
  H   H1617     1.0  0.46115  0.33363  0.24860  1.0000
  H   H1618     1.0  0.46962  0.33301  0.28515  1.0000
  H   H1619     1.0  0.42223  0.32242  0.33240  1.0000
  H   H1620     1.0  0.40511  0.30335  0.31917  1.0000
  H   H1621     1.0  0.40180  0.32145  0.32680  1.0000
  H   H1622     1.0  0.41791  0.28080  0.30015  1.0000
  H   H1623     1.0  0.43014  0.30043  0.31713  1.0000
  H   H1624     1.0  0.43904  0.29070  0.29169  1.0000
  C   C945      1.0  0.61273  0.47741  0.23916  1.0000
  H   H1625     1.0  0.54417  0.40654  0.37554  1.0000
  H   H1626     1.0  0.35679  0.45237  0.41083  1.0000
  H   H1627     1.0  0.34658  0.43241  0.09333  1.0000
  S   S259      1.0  0.32106  0.44454  0.99536  1.0000
  S   S260      1.0  0.39713  0.26849  0.99895  1.0000
  H   H1628     1.0  0.43313  0.36223  0.08799  1.0000
  H   H1629     1.0  0.57679  0.48442  0.17955  1.0000
  C   C946      1.0  0.57107  0.45256  0.19467  1.0000
  C   C947      1.0  0.44824  0.35237  0.06229  1.0000
  C   C948      1.0  0.41481  0.34726  0.00009  1.0000
  Fe  Fe132     1.0  0.39774  0.49155  0.19579  1.0000
  H   H1630     1.0  0.58858  0.48085  0.26966  1.0000
  H   H1631     1.0  0.56614  0.44042  0.20527  1.0000
  H   H1632     1.0  0.35449  0.40855  0.41358  1.0000
  H   H1633     1.0  0.42960  0.48441  0.22145  1.0000
  C   C949      1.0  0.32337  0.39285  0.37396  1.0000
  H   H1634     1.0  0.36126  0.40541  0.37840  1.0000
  N   N70       1.0  0.45132  0.47896  0.22121  1.0000
  H   H1635     1.0  0.46861  0.37075  0.02374  1.0000
  C   C950      1.0  0.58428  0.47056  0.25246  1.0000
  H   H1636     1.0  0.42034  0.46638  0.18357  1.0000
  H   H1637     1.0  0.45737  0.32593  0.99878  1.0000
  H   H1638     1.0  0.56347  0.45936  0.20050  1.0000
  C   C951      1.0  0.46367  0.47596  0.24214  1.0000
  H   H1639     1.0  0.44647  0.46202  0.27627  1.0000
  C   C952      1.0  0.35688  0.43590  0.35846  1.0000
  H   H1640     1.0  0.37152  0.39877  0.16109  1.0000
  H   H1641     1.0  0.34822  0.44145  0.35070  1.0000
  S   S261      1.0  0.37213  0.49141  0.20057  1.0000
  C   C953      1.0  0.32628  0.40669  0.12084  1.0000
  H   H1642     1.0  0.37101  0.42404  0.33488  1.0000
  H   H1643     1.0  0.47324  0.47400  0.22907  1.0000
  H   H1644     1.0  0.57149  0.46901  0.24562  1.0000
  H   H1645     1.0  0.34031  0.44439  0.43543  1.0000
  H   H1646     1.0  0.32899  0.42974  0.38915  1.0000
  H   H1647     1.0  0.45276  0.46065  0.19011  1.0000
  H   H1648     1.0  0.32100  0.38042  0.08017  1.0000
  C   C954      1.0  0.37771  0.42755  0.40170  1.0000
  H   H1649     1.0  0.36713  0.44607  0.37116  1.0000
  C   C955      1.0  0.36421  0.43194  0.33021  1.0000
  C   C956      1.0  0.34905  0.44112  0.42233  1.0000
  H   H1650     1.0  0.37302  0.44360  0.32103  1.0000
  C   C957      1.0  0.32614  0.47766  0.21071  1.0000
  H   H1651     1.0  0.33844  0.37696  0.06828  1.0000
  H   H1652     1.0  0.38420  0.42136  0.41534  1.0000
  H   H1653     1.0  0.58109  0.44450  0.25318  1.0000
  H   H1654     1.0  0.59367  0.45740  0.28453  1.0000
  H   H1655     1.0  0.35662  0.43762  0.43900  1.0000
  H   H1656     1.0  0.45154  0.44927  0.24981  1.0000
  H   H1657     1.0  0.31927  0.39338  0.12481  1.0000
  H   H1658     1.0  0.33490  0.37695  0.10751  1.0000
  C   C958      1.0  0.32107  0.24520  0.03869  1.0000
  H   H1659     1.0  0.32354  0.47385  0.26738  1.0000
  S   S262      1.0  0.42443  0.32827  0.48338  1.0000
  H   H1660     1.0  0.32549  0.42885  0.14196  1.0000
  H   H1661     1.0  0.32991  0.41567  0.16834  1.0000
  C   C959      1.0  0.31898  0.43246  0.30509  1.0000
  H   H1662     1.0  0.47085  0.48679  0.25718  1.0000
  H   H1663     1.0  0.61703  0.48690  0.25787  1.0000
  H   H1664     1.0  0.43344  0.49162  0.27893  1.0000
  C   C960      1.0  0.59690  0.49121  0.21488  1.0000
  H   H1665     1.0  0.41074  0.33216  0.58934  1.0000
  Fe  Fe133     1.0  0.48286  0.40905  0.79086  1.0000
  S   S263      1.0  0.46252  0.40049  0.82371  1.0000
  S   S264      1.0  0.50245  0.43560  0.80271  1.0000
  Fe  Fe134     1.0  0.46481  0.37667  0.75229  1.0000
  S   S265      1.0  0.44343  0.36638  0.78233  1.0000
  S   S266      1.0  0.46816  0.36312  0.71074  1.0000
  Fe  Fe135     1.0  0.44467  0.39219  0.78319  1.0000
  S   S267      1.0  0.42147  0.39731  0.78372  1.0000
  Fe  Fe136     1.0  0.46276  0.37534  0.82093  1.0000
  S   S268      1.0  0.46480  0.36048  0.86177  1.0000
  S   S269      1.0  0.46467  0.40198  0.75045  1.0000
  S   S270      1.0  0.48444  0.38427  0.79070  1.0000
  S   S271      1.0  0.38923  0.47215  0.66047  1.0000
  Fe  Fe137     1.0  0.37198  0.46810  0.73980  1.0000
  S   S272      1.0  0.36570  0.44652  0.70760  1.0000
  S   S273      1.0  0.36407  0.46315  0.78844  1.0000
  Fe  Fe138     1.0  0.39279  0.45742  0.69829  1.0000
  S   S274      1.0  0.40881  0.44358  0.68844  1.0000
  Fe  Fe139     1.0  0.36251  0.46284  0.67187  1.0000
  S   S275      1.0  0.33905  0.44992  0.64020  1.0000
  S   S276      1.0  0.39973  0.47801  0.73271  1.0000
  H   H1666     1.0  0.32759  0.43501  0.86878  1.0000
  Fe  Fe140     1.0  0.41095  0.29614  0.57746  1.0000
  S   S277      1.0  0.39636  0.30491  0.54482  1.0000
  S   S278      1.0  0.41344  0.30673  0.62555  1.0000
  Fe  Fe141     1.0  0.41145  0.27029  0.53129  1.0000
  H   H1667     1.0  0.35796  0.26103  0.58725  1.0000
  H   H1668     1.0  0.32996  0.45777  0.76747  1.0000
  S   S279      1.0  0.41720  0.31128  0.95545  1.0000
  Fe  Fe142     1.0  0.38101  0.27822  0.53318  1.0000
  S   S280      1.0  0.35279  0.26684  0.52416  1.0000
  S   S281      1.0  0.42947  0.29667  0.54366  1.0000
  S   S282      1.0  0.39430  0.26922  0.56767  1.0000
  H   H1669     1.0  0.32103  0.38909  0.62901  1.0000
  H   H1670     1.0  0.42899  0.33731  0.55156  1.0000
  H   H1671     1.0  0.48967  0.48235  0.81946  1.0000
  C   C961      1.0  0.34421  0.45340  0.80402  1.0000
  H   H1672     1.0  0.33771  0.41796  0.61921  1.0000
  S   S283      1.0  0.39732  0.27819  0.49588  1.0000
  C   C962      1.0  0.32954  0.45282  0.78951  1.0000
  H   H1673     1.0  0.49046  0.46786  0.77410  1.0000
  C   C963      1.0  0.33519  0.44712  0.60049  1.0000
  C   C964      1.0  0.34693  0.45617  0.58041  1.0000
  C   C965      1.0  0.34303  0.45377  0.54919  1.0000
  H   H1674     1.0  0.35892  0.46522  0.58892  1.0000
  H   H1675     1.0  0.35212  0.46110  0.53396  1.0000
  C   C966      1.0  0.42893  0.32258  0.64851  1.0000
  C   C967      1.0  0.42390  0.32978  0.67224  1.0000
  C   C968      1.0  0.43568  0.34231  0.69129  1.0000
  C   C969      1.0  0.45270  0.34762  0.68713  1.0000
  C   C970      1.0  0.45773  0.34026  0.66369  1.0000
  C   C971      1.0  0.44595  0.32787  0.64439  1.0000
  H   H1676     1.0  0.41078  0.32569  0.67581  1.0000
  H   H1677     1.0  0.43158  0.34777  0.70929  1.0000
  H   H1678     1.0  0.47088  0.34412  0.66052  1.0000
  H   H1679     1.0  0.45004  0.32221  0.62671  1.0000
  C   C972      1.0  0.45121  0.34691  0.88757  1.0000
  C   C973      1.0  0.43419  0.34341  0.88753  1.0000
  C   C974      1.0  0.42402  0.33240  0.90819  1.0000
  C   C975      1.0  0.43066  0.32480  0.92941  1.0000
  C   C976      1.0  0.44769  0.32837  0.92950  1.0000
  C   C977      1.0  0.45783  0.33930  0.90878  1.0000
  H   H1680     1.0  0.42883  0.34920  0.87167  1.0000
  H   H1681     1.0  0.41090  0.32983  0.90784  1.0000
  H   H1682     1.0  0.45304  0.32253  0.94524  1.0000
  H   H1683     1.0  0.47095  0.34184  0.90911  1.0000
  C   C978      1.0  0.41753  0.40961  0.75653  1.0000
  C   C979      1.0  0.42536  0.41239  0.72943  1.0000
  C   C980      1.0  0.42241  0.42270  0.70862  1.0000
  C   C981      1.0  0.41169  0.43036  0.71480  1.0000
  C   C982      1.0  0.40366  0.42741  0.74169  1.0000
  C   C983      1.0  0.40651  0.41697  0.76242  1.0000
  H   H1684     1.0  0.43366  0.40657  0.72452  1.0000
  H   H1685     1.0  0.42853  0.42485  0.68772  1.0000
  H   H1686     1.0  0.39535  0.43324  0.74661  1.0000
  H   H1687     1.0  0.40035  0.41479  0.78330  1.0000
  C   C984      1.0  0.55289  0.47456  0.77303  1.0000
  C   C985      1.0  0.54633  0.47656  0.80002  1.0000
  C   C986      1.0  0.53094  0.46457  0.80853  1.0000
  C   C987      1.0  0.52196  0.45018  0.79063  1.0000
  C   C988      1.0  0.52852  0.44817  0.76367  1.0000
  C   C989      1.0  0.54379  0.46029  0.75494  1.0000
  S   S284      1.0  0.36749  0.48425  0.70474  1.0000
  H   H1688     1.0  0.52610  0.46630  0.82950  1.0000
  H   H1689     1.0  0.52186  0.43726  0.74954  1.0000
  H   H1690     1.0  0.54867  0.45850  0.73405  1.0000
  H   H1691     1.0  0.38124  0.42727  0.59121  1.0000
  N   N71       1.0  0.44344  0.35944  0.57934  1.0000
  C   C990      1.0  0.45987  0.36572  0.59755  1.0000
  C   C991      1.0  0.32808  0.44016  0.84696  1.0000
  C   C992      1.0  0.42981  0.35694  0.60055  1.0000
  C   C993      1.0  0.44435  0.37224  0.55695  1.0000
  H   H1692     1.0  0.47508  0.44952  0.81972  1.0000
  C   C994      1.0  0.41196  0.34505  0.59005  1.0000
  H   H1693     1.0  0.31967  0.39212  0.59001  1.0000
  C   C995      1.0  0.34248  0.48079  0.87826  1.0000
  H   H1694     1.0  0.45604  0.37630  0.54480  1.0000
  C   C996      1.0  0.33903  0.25608  0.55174  1.0000
  C   C997      1.0  0.45455  0.34403  0.54285  1.0000
  H   H1695     1.0  0.33303  0.47200  0.86192  1.0000
  H   H1696     1.0  0.43244  0.35193  0.62189  1.0000
  N   N72       1.0  0.33591  0.47985  0.90901  1.0000
  H   H1697     1.0  0.44535  0.38374  0.56868  1.0000
  H   H1698     1.0  0.43653  0.43711  0.81519  1.0000
  H   H1699     1.0  0.45116  0.33160  0.53241  1.0000
  S   S285      1.0  0.32281  0.44067  0.49798  1.0000
  H   H1700     1.0  0.36829  0.39659  0.68514  1.0000
  Fe  Fe143     1.0  0.41405  0.30436  0.51018  1.0000
  H   H1701     1.0  0.44583  0.47003  0.81087  1.0000
  H   H1702     1.0  0.42401  0.35477  0.52582  1.0000
  H   H1703     1.0  0.35765  0.40410  0.71026  1.0000
  H   H1704     1.0  0.33246  0.38208  0.60334  1.0000
  C   C998      1.0  0.32942  0.46222  0.91827  1.0000
  H   H1705     1.0  0.35115  0.46127  0.94386  1.0000
  N   N73       1.0  0.46398  0.45570  0.78023  1.0000
  C   C999      1.0  0.46505  0.44158  0.76259  1.0000
  C   C1000     1.0  0.46372  0.45155  0.81284  1.0000
  C   C1001     1.0  0.47938  0.47096  0.77493  1.0000
  C   C1002     1.0  0.44840  0.45750  0.76893  1.0000
  C   C1003     1.0  0.46773  0.44413  0.72881  1.0000
  H   H1706     1.0  0.34515  0.41435  0.67105  1.0000
  H   H1707     1.0  0.42937  0.36891  0.60691  1.0000
  H   H1708     1.0  0.33821  0.24449  0.62412  1.0000
  H   H1709     1.0  0.47536  0.43860  0.77209  1.0000
  H   H1710     1.0  0.45360  0.43016  0.76422  1.0000
  H   H1711     1.0  0.46424  0.46180  0.82780  1.0000
  C   C1004     1.0  0.32741  0.44225  0.53754  1.0000
  C   C1005     1.0  0.31966  0.43542  0.58882  1.0000
  H   H1712     1.0  0.40772  0.34793  0.56816  1.0000
  H   H1713     1.0  0.44954  0.46172  0.74554  1.0000
  H   H1714     1.0  0.44908  0.43520  0.84622  1.0000
  H   H1715     1.0  0.45754  0.44628  0.71686  1.0000
  H   H1716     1.0  0.47992  0.45419  0.72476  1.0000
  H   H1717     1.0  0.46782  0.43273  0.71845  1.0000
  H   H1718     1.0  0.41995  0.37150  0.54161  1.0000
  C   C1006     1.0  0.42972  0.36786  0.53334  1.0000
  H   H1719     1.0  0.43755  0.44538  0.76682  1.0000
  H   H1720     1.0  0.35741  0.38633  0.62777  1.0000
  C   C1007     1.0  0.44850  0.43632  0.82154  1.0000
  H   H1721     1.0  0.46217  0.39085  0.60992  1.0000
  C   C1008     1.0  0.36385  0.40647  0.68869  1.0000
  C   C1009     1.0  0.44310  0.46947  0.78645  1.0000
  H   H1722     1.0  0.38746  0.44745  0.60779  1.0000
  H   H1723     1.0  0.34133  0.39341  0.66320  1.0000
  H   H1724     1.0  0.35454  0.44718  0.84416  1.0000
  C   C1010     1.0  0.44111  0.34324  0.56447  1.0000
  H   H1725     1.0  0.34695  0.41243  0.58885  1.0000
  H   H1726     1.0  0.44857  0.42487  0.81174  1.0000
  H   H1727     1.0  0.42932  0.46507  0.78375  1.0000
  C   C1011     1.0  0.34299  0.40913  0.61198  1.0000
  C   C1012     1.0  0.46312  0.38006  0.62043  1.0000
  H   H1728     1.0  0.45526  0.35232  0.52422  1.0000
  N   N74       1.0  0.35760  0.41064  0.63281  1.0000
  C   C1013     1.0  0.37672  0.43539  0.60351  1.0000
  C   C1014     1.0  0.38339  0.40320  0.63170  1.0000
  H   H1729     1.0  0.33597  0.44195  0.93005  1.0000
  C   C1015     1.0  0.34483  0.25486  0.58084  1.0000
  H   H1730     1.0  0.38822  0.41114  0.65219  1.0000
  H   H1731     1.0  0.37452  0.41855  0.69183  1.0000
  H   H1732     1.0  0.47811  0.47598  0.75275  1.0000
  C   C1016     1.0  0.36964  0.42849  0.63369  1.0000
  C   C1017     1.0  0.34253  0.45505  0.92433  1.0000
  H   H1733     1.0  0.43437  0.37454  0.51263  1.0000
  H   H1734     1.0  0.34203  0.47820  0.97292  1.0000
  H   H1735     1.0  0.45471  0.37615  0.63923  1.0000
  H   H1736     1.0  0.36454  0.39888  0.59651  1.0000
  H   H1737     1.0  0.38471  0.39155  0.63641  1.0000
  H   H1738     1.0  0.38039  0.43105  0.64965  1.0000
  H   H1739     1.0  0.36740  0.43777  0.58907  1.0000
  C   C1018     1.0  0.36502  0.39918  0.62146  1.0000
  C   C1019     1.0  0.32190  0.24806  0.54390  1.0000
  C   C1020     1.0  0.48448  0.48532  0.79835  1.0000
  C   C1021     1.0  0.34332  0.44693  0.83278  1.0000
  H   H1740     1.0  0.34971  0.45526  0.90455  1.0000
  H   H1741     1.0  0.36362  0.43639  0.64233  1.0000
  H   H1742     1.0  0.44062  0.33417  0.58171  1.0000
  H   H1743     1.0  0.46116  0.35566  0.61037  1.0000
  C   C1022     1.0  0.35114  0.40614  0.66354  1.0000
  N   N75       1.0  0.44743  0.31864  0.78356  1.0000
  C   C1023     1.0  0.45172  0.32072  0.75114  1.0000
  C   C1024     1.0  0.46052  0.33295  0.80132  1.0000
  C   C1025     1.0  0.43051  0.31906  0.78584  1.0000
  C   C1026     1.0  0.44713  0.30232  0.79294  1.0000
  C   C1027     1.0  0.43872  0.30856  0.72815  1.0000
  C   C1028     1.0  0.47855  0.33443  0.80047  1.0000
  C   C1029     1.0  0.42628  0.32388  0.81667  1.0000
  C   C1030     1.0  0.44491  0.29830  0.82632  1.0000
  H   H1744     1.0  0.45380  0.33336  0.74426  1.0000
  H   H1745     1.0  0.46359  0.31947  0.74766  1.0000
  H   H1746     1.0  0.45788  0.33277  0.82524  1.0000
  H   H1747     1.0  0.46047  0.34476  0.79355  1.0000
  H   H1748     1.0  0.42904  0.32810  0.77021  1.0000
  H   H1749     1.0  0.42041  0.30693  0.77871  1.0000
  H   H1750     1.0  0.43672  0.29204  0.78063  1.0000
  H   H1751     1.0  0.45836  0.30064  0.78609  1.0000
  H   H1752     1.0  0.42671  0.30989  0.72754  1.0000
  H   H1753     1.0  0.44349  0.31133  0.70541  1.0000
  H   H1754     1.0  0.43660  0.29560  0.73188  1.0000
  H   H1755     1.0  0.47980  0.32315  0.80797  1.0000
  H   H1756     1.0  0.48352  0.33769  0.77803  1.0000
  H   H1757     1.0  0.48659  0.34467  0.81621  1.0000
  H   H1758     1.0  0.41300  0.32203  0.81573  1.0000
  H   H1759     1.0  0.43369  0.33713  0.82234  1.0000
  H   H1760     1.0  0.42804  0.31652  0.83507  1.0000
  H   H1761     1.0  0.43150  0.29229  0.83092  1.0000
  H   H1762     1.0  0.45119  0.30899  0.84203  1.0000
  H   H1763     1.0  0.45079  0.28971  0.83213  1.0000
  H   H1764     1.0  0.39176  0.40878  0.61339  1.0000
  H   H1765     1.0  0.52117  0.48118  0.74514  1.0000
  H   H1766     1.0  0.47597  0.38416  0.63068  1.0000
  H   H1767     1.0  0.47054  0.37001  0.58278  1.0000
  H   H1768     1.0  0.40323  0.34564  0.60672  1.0000
  H   H1769     1.0  0.46694  0.34757  0.55458  1.0000
  H   H1770     1.0  0.35286  0.47670  0.87836  1.0000
  H   H1771     1.0  0.47417  0.48885  0.80329  1.0000
  S   S286      1.0  0.41752  0.24874  0.51536  1.0000
  H   H1772     1.0  0.32096  0.47964  0.59447  1.0000
  C   C1031     1.0  0.34555  0.49055  0.96354  1.0000
  H   H1773     1.0  0.42106  0.35233  0.97945  1.0000
  C   C1032     1.0  0.32836  0.39201  0.60876  1.0000
  H   H1774     1.0  0.55314  0.48732  0.81440  1.0000
  C   C1033     1.0  0.33360  0.24550  0.60172  1.0000
  C   C1034     1.0  0.32178  0.48535  0.90919  1.0000
  H   H1775     1.0  0.44873  0.48203  0.77760  1.0000
  H   H1776     1.0  0.45485  0.36387  0.97082  1.0000
  H   H1777     1.0  0.32020  0.45396  0.90100  1.0000
  C   C1035     1.0  0.34984  0.49090  0.93039  1.0000
  H   H1778     1.0  0.36702  0.24536  0.49053  1.0000
  H   H1779     1.0  0.36100  0.48804  0.92911  1.0000
  H   H1780     1.0  0.32244  0.46058  0.93889  1.0000
  H   H1781     1.0  0.51346  0.47943  0.70708  1.0000
  S   S287      1.0  0.57197  0.48958  0.76022  1.0000
  H   H1782     1.0  0.44259  0.37530  0.98067  1.0000
  H   H1783     1.0  0.46463  0.38517  0.98107  1.0000
  H   H1784     1.0  0.53544  0.48931  0.71588  1.0000
  C   C1036     1.0  0.52312  0.48769  0.72372  1.0000
  C   C1037     1.0  0.45410  0.37347  0.98604  1.0000
  H   H1785     1.0  0.43963  0.33998  0.98833  1.0000
  H   H1786     1.0  0.31882  0.40161  0.82648  1.0000
  Fe  Fe144     1.0  0.60493  0.55263  0.28737  1.0000
  S   S288      1.0  0.59691  0.53238  0.25232  1.0000
  S   S289      1.0  0.60207  0.57661  0.28109  1.0000
  Fe  Fe145     1.0  0.62042  0.53532  0.32909  1.0000
  S   S290      1.0  0.61355  0.51355  0.29608  1.0000
  S   S291      1.0  0.63005  0.53591  0.37813  1.0000
  Fe  Fe146     1.0  0.62232  0.53267  0.26052  1.0000
  C   C1038     1.0  0.62212  0.56233  0.14562  1.0000
  Fe  Fe147     1.0  0.58841  0.51459  0.28962  1.0000
  S   S292      1.0  0.63104  0.55414  0.29389  1.0000
  S   S293      1.0  0.59463  0.53523  0.32433  1.0000
  Fe  Fe148     1.0  0.53456  0.62969  0.22578  1.0000
  S   S294      1.0  0.54925  0.62564  0.18849  1.0000
  S   S295      1.0  0.55044  0.65137  0.25787  1.0000
  Fe  Fe149     1.0  0.50184  0.60140  0.20110  1.0000
  S   S296      1.0  0.51445  0.59624  0.16237  1.0000
  S   S297      1.0  0.47376  0.58729  0.20747  1.0000
  Fe  Fe150     1.0  0.53503  0.59876  0.19631  1.0000
  S   S298      1.0  0.54359  0.57794  0.19456  1.0000
  Fe  Fe151     1.0  0.52760  0.62375  0.15756  1.0000
  S   S299      1.0  0.52805  0.63251  0.10916  1.0000
  S   S300      1.0  0.52191  0.60273  0.23568  1.0000
  S   S301      1.0  0.51344  0.62896  0.19430  1.0000
  Fe  Fe152     1.0  0.56468  0.69354  0.42509  1.0000
  S   S302      1.0  0.58203  0.69174  0.46243  1.0000
  S   S303      1.0  0.54751  0.67175  0.39440  1.0000
  H   H1787     1.0  0.33503  0.50198  0.23422  1.0000
  H   H1788     1.0  0.57335  0.55042  0.25075  1.0000
  Fe  Fe153     1.0  0.59848  0.71805  0.45227  1.0000
  C   C1039     1.0  0.62654  0.58832  0.21753  1.0000
  H   H1789     1.0  0.43722  0.60544  0.09733  1.0000
  S   S304      1.0  0.57247  0.69804  0.04126  1.0000
  S   S305      1.0  0.58228  0.71887  0.41264  1.0000
  S   S306      1.0  0.55074  0.70313  0.45596  1.0000
  C   C1040     1.0  0.44318  0.59730  0.10562  1.0000
  S   S307      1.0  0.42451  0.51052  0.18849  1.0000
  C   C1041     1.0  0.46041  0.56580  0.20268  1.0000
  C   C1042     1.0  0.46577  0.55428  0.19063  1.0000
  C   C1043     1.0  0.45459  0.53755  0.18638  1.0000
  C   C1044     1.0  0.43793  0.53194  0.19442  1.0000
  C   C1045     1.0  0.43259  0.54345  0.20659  1.0000
  C   C1046     1.0  0.44371  0.56022  0.21050  1.0000
  H   H1790     1.0  0.47850  0.55829  0.18431  1.0000
  H   H1791     1.0  0.45889  0.52890  0.17660  1.0000
  H   H1792     1.0  0.41986  0.53945  0.21288  1.0000
  H   H1793     1.0  0.43935  0.56895  0.21980  1.0000
  C   C1047     1.0  0.54901  0.65713  0.29548  1.0000
  C   C1048     1.0  0.53493  0.64895  0.31161  1.0000
  C   C1049     1.0  0.53473  0.65361  0.34184  1.0000
  C   C1050     1.0  0.54850  0.66659  0.35621  1.0000
  C   C1051     1.0  0.56246  0.67495  0.33993  1.0000
  C   C1052     1.0  0.56270  0.67022  0.30977  1.0000
  H   H1794     1.0  0.52424  0.63900  0.30081  1.0000
  H   H1795     1.0  0.52382  0.64712  0.35420  1.0000
  H   H1796     1.0  0.57314  0.68495  0.35064  1.0000
  H   H1797     1.0  0.57364  0.67666  0.29744  1.0000
  C   C1053     1.0  0.54092  0.65072  0.09074  1.0000
  C   C1054     1.0  0.53883  0.65134  0.05937  1.0000
  C   C1055     1.0  0.54843  0.66552  0.04380  1.0000
  C   C1056     1.0  0.56024  0.67946  0.05940  1.0000
  C   C1057     1.0  0.56232  0.67883  0.09076  1.0000
  C   C1058     1.0  0.55282  0.66460  0.10630  1.0000
  H   H1798     1.0  0.52972  0.64075  0.04694  1.0000
  H   H1799     1.0  0.54661  0.66572  0.01976  1.0000
  H   H1800     1.0  0.57135  0.68948  0.10318  1.0000
  H   H1801     1.0  0.55463  0.66445  0.13035  1.0000
  H   H1802     1.0  0.48375  0.63359  0.15949  1.0000
  H   H1803     1.0  0.51766  0.70227  0.30274  1.0000
  H   H1804     1.0  0.45029  0.56827  0.09723  1.0000
  C   C1059     1.0  0.51607  0.68816  0.38910  1.0000
  H   H1805     1.0  0.65062  0.57579  0.47698  1.0000
  H   H1806     1.0  0.62954  0.58113  0.11098  1.0000
  H   H1807     1.0  0.64451  0.52467  0.15932  1.0000
  H   H1808     1.0  0.52757  0.69340  0.40382  1.0000
  C   C1060     1.0  0.58578  0.57675  0.25692  1.0000
  C   C1061     1.0  0.58543  0.59188  0.24945  1.0000
  C   C1062     1.0  0.57236  0.59240  0.23081  1.0000
  C   C1063     1.0  0.55971  0.57778  0.21917  1.0000
  C   C1064     1.0  0.56029  0.56267  0.22605  1.0000
  C   C1065     1.0  0.57321  0.56214  0.24507  1.0000
  H   H1809     1.0  0.59529  0.60322  0.25822  1.0000
  H   H1810     1.0  0.57222  0.60407  0.22481  1.0000
  H   H1811     1.0  0.55060  0.55132  0.21688  1.0000
  H   H1812     1.0  0.46296  0.61345  0.07926  1.0000
  H   H1813     1.0  0.54780  0.71544  0.38559  1.0000
  H   H1814     1.0  0.61242  0.58779  0.13810  1.0000
  H   H1815     1.0  0.60072  0.56165  0.20793  1.0000
  H   H1816     1.0  0.46102  0.58810  0.14608  1.0000
  N   N76       1.0  0.53074  0.70731  0.34644  1.0000
  H   H1817     1.0  0.58324  0.58359  0.15697  1.0000
  C   C1066     1.0  0.53065  0.70656  0.31267  1.0000
  C   C1067     1.0  0.52304  0.71879  0.35639  1.0000
  C   C1068     1.0  0.54785  0.71214  0.36147  1.0000
  H   H1818     1.0  0.45588  0.59209  0.06991  1.0000
  H   H1819     1.0  0.51009  0.67482  0.39355  1.0000
  H   H1820     1.0  0.61334  0.55127  0.19951  1.0000
  H   H1821     1.0  0.48550  0.50575  0.22355  1.0000
  H   H1822     1.0  0.61205  0.55337  0.13042  1.0000
  C   C1069     1.0  0.59448  0.58434  0.17045  1.0000
  H   H1823     1.0  0.62340  0.73183  0.39125  1.0000
  C   C1070     1.0  0.53831  0.69529  0.29925  1.0000
  S   S308      1.0  0.58653  0.72875  0.48499  1.0000
  H   H1824     1.0  0.50993  0.71434  0.34701  1.0000
  C   C1071     1.0  0.45989  0.56917  0.11486  1.0000
  N   N77       1.0  0.61512  0.57018  0.16837  1.0000
  H   H1825     1.0  0.32236  0.50012  0.19985  1.0000
  H   H1826     1.0  0.48849  0.62703  0.10899  1.0000
  H   H1827     1.0  0.53710  0.71878  0.30323  1.0000
  C   C1072     1.0  0.51969  0.69019  0.35564  1.0000
  H   H1828     1.0  0.58947  0.57715  0.19025  1.0000
  H   H1829     1.0  0.47087  0.51348  0.23727  1.0000
  H   H1830     1.0  0.61553  0.59128  0.21828  1.0000
  H   H1831     1.0  0.63449  0.59499  0.17306  1.0000
  H   H1832     1.0  0.49899  0.62292  0.06888  1.0000
  C   C1073     1.0  0.48571  0.59784  0.08617  1.0000
  C   C1074     1.0  0.47472  0.62205  0.14795  1.0000
  N   N78       1.0  0.47403  0.60054  0.10727  1.0000
  H   H1833     1.0  0.63906  0.56685  0.10966  1.0000
  C   C1075     1.0  0.49165  0.61008  0.06066  1.0000
  H   H1834     1.0  0.64013  0.57978  0.18912  1.0000
  H   H1835     1.0  0.46995  0.61301  0.16565  1.0000
  H   H1836     1.0  0.43401  0.58454  0.09987  1.0000
  H   H1837     1.0  0.49704  0.59804  0.09883  1.0000
  H   H1838     1.0  0.47980  0.58552  0.07461  1.0000
  H   H1839     1.0  0.62534  0.57844  0.23336  1.0000
  H   H1840     1.0  0.46471  0.62507  0.13747  1.0000
  C   C1076     1.0  0.45939  0.60115  0.08922  1.0000
  C   C1077     1.0  0.64784  0.54307  0.19396  1.0000
  H   H1841     1.0  0.50012  0.60668  0.04706  1.0000
  H   H1842     1.0  0.46883  0.56464  0.10567  1.0000
  H   H1843     1.0  0.48118  0.60958  0.04532  1.0000
  H   H1844     1.0  0.48018  0.58698  0.14209  1.0000
  C   C1078     1.0  0.46904  0.58672  0.12890  1.0000
  C   C1079     1.0  0.48383  0.61663  0.12432  1.0000
  H   H1845     1.0  0.63722  0.53655  0.44154  1.0000
  H   H1846     1.0  0.55110  0.69828  0.30869  1.0000
  H   H1847     1.0  0.55134  0.70143  0.36160  1.0000
  S   S309      1.0  0.62687  0.72984  0.45654  1.0000
  H   H1848     1.0  0.59583  0.56850  0.13441  1.0000
  C   C1080     1.0  0.47458  0.50854  0.21743  1.0000
  C   C1081     1.0  0.64885  0.54659  0.40081  1.0000
  H   H1849     1.0  0.62832  0.55508  0.15697  1.0000
  H   H1850     1.0  0.59306  0.53520  0.15765  1.0000
  H   H1851     1.0  0.50726  0.69355  0.39545  1.0000
  N   N79       1.0  0.55914  0.61417  0.32720  1.0000
  C   C1082     1.0  0.55606  0.61580  0.29417  1.0000
  C   C1083     1.0  0.54294  0.60262  0.33922  1.0000
  C   C1084     1.0  0.57200  0.60724  0.33275  1.0000
  C   C1085     1.0  0.56550  0.63102  0.34232  1.0000
  C   C1086     1.0  0.57148  0.62581  0.27682  1.0000
  C   C1087     1.0  0.52953  0.60950  0.34190  1.0000
  C   C1088     1.0  0.56760  0.58994  0.31867  1.0000
  C   C1089     1.0  0.56828  0.63184  0.37679  1.0000
  H   H1852     1.0  0.54970  0.60355  0.28240  1.0000
  H   H1853     1.0  0.54732  0.62186  0.29060  1.0000
  H   H1854     1.0  0.54497  0.59815  0.36150  1.0000
  H   H1855     1.0  0.53714  0.59122  0.32464  1.0000
  H   H1856     1.0  0.58432  0.61567  0.32512  1.0000
  H   H1857     1.0  0.57425  0.60629  0.35720  1.0000
  H   H1858     1.0  0.57773  0.63914  0.33393  1.0000
  H   H1859     1.0  0.55745  0.63752  0.33627  1.0000
  H   H1860     1.0  0.56740  0.62590  0.25297  1.0000
  H   H1861     1.0  0.57743  0.63888  0.28475  1.0000
  H   H1862     1.0  0.58071  0.62029  0.27720  1.0000
  H   H1863     1.0  0.51809  0.59973  0.34998  1.0000
  H   H1864     1.0  0.53346  0.62001  0.35840  1.0000
  H   H1865     1.0  0.52600  0.61315  0.31998  1.0000
  H   H1866     1.0  0.55722  0.58039  0.32980  1.0000
  H   H1867     1.0  0.57856  0.58678  0.32169  1.0000
  H   H1868     1.0  0.56442  0.58918  0.29435  1.0000
  H   H1869     1.0  0.58131  0.63384  0.38338  1.0000
  H   H1870     1.0  0.55978  0.62077  0.38771  1.0000
  H   H1871     1.0  0.56583  0.64224  0.38620  1.0000
  H   H1872     1.0  0.49514  0.61629  0.13593  1.0000
  H   H1873     1.0  0.52524  0.68133  0.35027  1.0000
  S   S310      1.0  0.63366  0.52861  0.21751  1.0000
  C   C1090     1.0  0.63492  0.57419  0.12509  1.0000
  H   H1874     1.0  0.63749  0.59942  0.22611  1.0000
  Fe  Fe154     1.0  0.56954  0.72850  0.44586  1.0000
  H   H1875     1.0  0.58292  0.53425  0.19151  1.0000
  C   C1091     1.0  0.60456  0.57740  0.15161  1.0000
  H   H1876     1.0  0.57191  0.72216  0.34070  1.0000
  H   H1877     1.0  0.50739  0.68551  0.34283  1.0000
  H   H1878     1.0  0.45122  0.49807  0.19166  1.0000
  C   C1092     1.0  0.56247  0.72651  0.34819  1.0000
  H   H1879     1.0  0.58355  0.50473  0.19527  1.0000
  S   S311      1.0  0.56258  0.49377  0.27691  1.0000
  H   H1880     1.0  0.60197  0.59739  0.17759  1.0000
  H   H1881     1.0  0.45352  0.56063  0.13259  1.0000
  H   H1882     1.0  0.44472  0.59918  0.13022  1.0000
  H   H1883     1.0  0.45471  0.49670  0.27530  1.0000
  C   C1093     1.0  0.62957  0.58350  0.18581  1.0000
  C   C1094     1.0  0.60521  0.55682  0.18883  1.0000
  H   H1884     1.0  0.44436  0.50689  0.25272  1.0000
  C   C1095     1.0  0.44315  0.49501  0.26226  1.0000
  C   C1096     1.0  0.58970  0.54269  0.17398  1.0000
  H   H1885     1.0  0.64630  0.58279  0.13788  1.0000
  H   H1886     1.0  0.52250  0.71905  0.38119  1.0000
  H   H1887     1.0  0.58081  0.54722  0.16333  1.0000
  H   H1888     1.0  0.53911  0.69696  0.27472  1.0000
  H   H1889     1.0  0.34324  0.50201  0.19859  1.0000
  H   H1890     1.0  0.53047  0.68208  0.30215  1.0000
  H   H1891     1.0  0.47887  0.51862  0.20134  1.0000
  Fe  Fe155     1.0  0.57671  0.70595  0.99225  1.0000
  H   H1892     1.0  0.56880  0.73621  0.36594  1.0000
  C   C1097     1.0  0.64870  0.54443  0.43198  1.0000
  C   C1098     1.0  0.53198  0.73703  0.34876  1.0000
  H   H1893     1.0  0.55914  0.73267  0.32942  1.0000
  C   C1099     1.0  0.64115  0.73994  0.42909  1.0000
  C   C1100     1.0  0.63625  0.73899  0.39866  1.0000
  H   H1894     1.0  0.53336  0.73893  0.32448  1.0000
  C   C1101     1.0  0.33177  0.49650  0.21112  1.0000
  H   H1895     1.0  0.60175  0.50097  0.23304  1.0000
  H   H1896     1.0  0.63021  0.49521  0.20953  1.0000
  C   C1102     1.0  0.46019  0.49348  0.20209  1.0000
  C   C1103     1.0  0.65070  0.53759  0.16590  1.0000
  C   C1104     1.0  0.58087  0.49181  0.20087  1.0000
  H   H1897     1.0  0.60595  0.49535  0.19709  1.0000
  Fe  Fe156     1.0  0.59779  0.54972  0.79134  1.0000
  S   S312      1.0  0.59283  0.53579  0.74741  1.0000
  S   S313      1.0  0.58400  0.56540  0.80391  1.0000
  Fe  Fe157     1.0  0.62468  0.53788  0.81257  1.0000
  S   S314      1.0  0.62069  0.52243  0.76975  1.0000
  H   H1898     1.0  0.56066  0.53547  0.73403  1.0000
  Fe  Fe158     1.0  0.62055  0.54443  0.74566  1.0000
  S   S315      1.0  0.63477  0.55981  0.70731  1.0000
  Fe  Fe159     1.0  0.59292  0.51483  0.77500  1.0000
  S   S316      1.0  0.62531  0.55993  0.78803  1.0000
  S   S317      1.0  0.59705  0.52869  0.81956  1.0000
  Fe  Fe160     1.0  0.53213  0.63226  0.73204  1.0000
  S   S318      1.0  0.54570  0.63014  0.69167  1.0000
  S   S319      1.0  0.54910  0.65444  0.76185  1.0000
  Fe  Fe161     1.0  0.50131  0.60068  0.71235  1.0000
  S   S320      1.0  0.51302  0.59685  0.67106  1.0000
  S   S321      1.0  0.47583  0.58295  0.72802  1.0000
  Fe  Fe162     1.0  0.53610  0.60331  0.70105  1.0000
  S   S322      1.0  0.55295  0.59008  0.69410  1.0000
  Fe  Fe163     1.0  0.52184  0.62421  0.66454  1.0000
  S   S323      1.0  0.51987  0.63143  0.61563  1.0000
  S   S324      1.0  0.52415  0.60559  0.74306  1.0000
  S   S325      1.0  0.50848  0.62785  0.70422  1.0000
  Fe  Fe164     1.0  0.56631  0.69851  0.92521  1.0000
  S   S326      1.0  0.58302  0.69164  0.95658  1.0000
  S   S327      1.0  0.54531  0.67972  0.89473  1.0000
  H   H1899     1.0  0.54265  0.50184  0.77092  1.0000
  H   H1900     1.0  0.55807  0.57734  0.79999  1.0000
  Fe  Fe165     1.0  0.60326  0.71601  0.94528  1.0000
  C   C1105     1.0  0.55004  0.52259  0.69177  1.0000
  H   H1901     1.0  0.51739  0.53178  0.70504  1.0000
  S   S328      1.0  0.56363  0.69463  0.54171  1.0000
  S   S329      1.0  0.58693  0.72167  0.91140  1.0000
  S   S330      1.0  0.55875  0.71162  0.96154  1.0000
  H   H1902     1.0  0.56786  0.62999  0.64495  1.0000
  S   S331      1.0  0.41424  0.51704  0.67862  1.0000
  C   C1106     1.0  0.45969  0.56368  0.71487  1.0000
  C   C1107     1.0  0.44635  0.55556  0.73313  1.0000
  C   C1108     1.0  0.43282  0.54080  0.72315  1.0000
  C   C1109     1.0  0.43220  0.53410  0.69435  1.0000
  C   C1110     1.0  0.44561  0.54215  0.67616  1.0000
  C   C1111     1.0  0.45939  0.55661  0.68654  1.0000
  H   H1903     1.0  0.44636  0.56083  0.75511  1.0000
  H   H1904     1.0  0.42256  0.53497  0.73733  1.0000
  H   H1905     1.0  0.44531  0.53715  0.65384  1.0000
  H   H1906     1.0  0.46964  0.56238  0.67245  1.0000
  C   C1112     1.0  0.54737  0.66155  0.79840  1.0000
  C   C1113     1.0  0.56103  0.67498  0.81191  1.0000
  C   C1114     1.0  0.56072  0.68054  0.84147  1.0000
  C   C1115     1.0  0.54653  0.67298  0.85766  1.0000
  C   C1116     1.0  0.53272  0.65978  0.84395  1.0000
  C   C1117     1.0  0.53316  0.65399  0.81456  1.0000
  H   H1907     1.0  0.57204  0.68100  0.79955  1.0000
  H   H1908     1.0  0.57142  0.69073  0.85166  1.0000
  H   H1909     1.0  0.52166  0.65389  0.85625  1.0000
  H   H1910     1.0  0.52253  0.64370  0.80447  1.0000
  C   C1118     1.0  0.53197  0.64928  0.59562  1.0000
  C   C1119     1.0  0.54319  0.66392  0.61008  1.0000
  C   C1120     1.0  0.55258  0.67761  0.59320  1.0000
  C   C1121     1.0  0.55106  0.67692  0.56161  1.0000
  C   C1122     1.0  0.53985  0.66225  0.54716  1.0000
  C   C1123     1.0  0.53034  0.64861  0.56405  1.0000
  H   H1911     1.0  0.54458  0.66479  0.63428  1.0000
  H   H1912     1.0  0.56113  0.68886  0.60474  1.0000
  H   H1913     1.0  0.53845  0.66145  0.52296  1.0000
  H   H1914     1.0  0.52169  0.63743  0.55247  1.0000
  C   C1124     1.0  0.47213  0.60146  0.65408  1.0000
  H   H1915     1.0  0.43242  0.59289  0.64917  1.0000
  H   H1916     1.0  0.58383  0.65698  0.66557  1.0000
  C   C1125     1.0  0.47435  0.59267  0.60311  1.0000
  C   C1126     1.0  0.64133  0.54041  0.90229  1.0000
  C   C1127     1.0  0.44704  0.58165  0.62482  1.0000
  H   H1917     1.0  0.62868  0.53281  0.89425  1.0000
  S   S332      1.0  0.64890  0.54524  0.84218  1.0000
  C   C1128     1.0  0.57510  0.57189  0.77327  1.0000
  C   C1129     1.0  0.58048  0.57171  0.74441  1.0000
  C   C1130     1.0  0.57348  0.57717  0.72033  1.0000
  C   C1131     1.0  0.56104  0.58288  0.72486  1.0000
  C   C1132     1.0  0.55535  0.58270  0.75360  1.0000
  C   C1133     1.0  0.56247  0.57737  0.77779  1.0000
  H   H1918     1.0  0.59035  0.56772  0.74065  1.0000
  H   H1919     1.0  0.57791  0.57719  0.69816  1.0000
  H   H1920     1.0  0.54541  0.58661  0.75709  1.0000
  H   H1921     1.0  0.44406  0.57419  0.60339  1.0000
  H   H1922     1.0  0.50642  0.69402  0.84167  1.0000
  C   C1134     1.0  0.52092  0.71859  0.86122  1.0000
  H   H1923     1.0  0.46543  0.56569  0.60924  1.0000
  H   H1924     1.0  0.52326  0.71048  0.92059  1.0000
  H   H1925     1.0  0.50976  0.50167  0.73923  1.0000
  H   H1926     1.0  0.45176  0.59668  0.68414  1.0000
  C   C1135     1.0  0.62757  0.59745  0.89642  1.0000
  C   C1136     1.0  0.55167  0.52289  0.72640  1.0000
  C   C1137     1.0  0.46330  0.60700  0.67803  1.0000
  C   C1138     1.0  0.57430  0.64834  0.57726  1.0000
  Fe  Fe166     1.0  0.58069  0.73467  0.94979  1.0000
  N   N80       1.0  0.57143  0.63405  0.59739  1.0000
  C   C1139     1.0  0.55674  0.72376  0.85723  1.0000
  C   C1140     1.0  0.57036  0.63987  0.62876  1.0000
  C   C1141     1.0  0.43110  0.58440  0.62997  1.0000
  C   C1142     1.0  0.58577  0.62905  0.59474  1.0000
  H   H1927     1.0  0.56545  0.65403  0.58167  1.0000
  S   S333      1.0  0.59831  0.73012  0.98303  1.0000
  H   H1928     1.0  0.59972  0.61744  0.61948  1.0000
  H   H1929     1.0  0.35414  0.50396  0.92394  1.0000
  H   H1930     1.0  0.48386  0.62522  0.58934  1.0000
  H   H1931     1.0  0.59722  0.65229  0.64185  1.0000
  H   H1932     1.0  0.55411  0.60143  0.62037  1.0000
  N   N81       1.0  0.53356  0.72816  0.88597  1.0000
  H   H1933     1.0  0.54795  0.53423  0.80375  1.0000
  H   H1934     1.0  0.54576  0.71205  0.89716  1.0000
  N   N82       1.0  0.46324  0.59675  0.62353  1.0000
  H   H1935     1.0  0.52391  0.55046  0.72687  1.0000
  H   H1936     1.0  0.63563  0.57578  0.95819  1.0000
  H   H1937     1.0  0.56402  0.53102  0.78410  1.0000
  H   H1938     1.0  0.57533  0.65606  0.53132  1.0000
  H   H1939     1.0  0.44811  0.57332  0.64239  1.0000
  H   H1940     1.0  0.58692  0.65833  0.58191  1.0000
  C   C1143     1.0  0.55511  0.62015  0.58702  1.0000
  H   H1941     1.0  0.54132  0.61244  0.62786  1.0000
  H   H1942     1.0  0.35671  0.49907  0.97711  1.0000
  H   H1943     1.0  0.48397  0.57816  0.63193  1.0000
  H   H1944     1.0  0.62095  0.55722  0.90552  1.0000
  H   H1945     1.0  0.52689  0.50713  0.78523  1.0000
  N   N83       1.0  0.57608  0.62951  0.81860  1.0000
  C   C1144     1.0  0.56423  0.62279  0.79138  1.0000
  C   C1145     1.0  0.56588  0.62428  0.84576  1.0000
  C   C1146     1.0  0.58865  0.62192  0.81804  1.0000
  C   C1147     1.0  0.58447  0.64796  0.81649  1.0000
  C   C1148     1.0  0.57225  0.62530  0.76082  1.0000
  C   C1149     1.0  0.55292  0.63162  0.84962  1.0000
  C   C1150     1.0  0.59792  0.62163  0.84798  1.0000
  C   C1151     1.0  0.59500  0.65801  0.84421  1.0000
  H   H1946     1.0  0.55666  0.60936  0.79313  1.0000
  H   H1947     1.0  0.55508  0.62847  0.78975  1.0000
  H   H1948     1.0  0.57374  0.62742  0.86692  1.0000
  H   H1949     1.0  0.55916  0.61061  0.84542  1.0000
  H   H1950     1.0  0.58257  0.60882  0.80970  1.0000
  H   H1951     1.0  0.59834  0.62824  0.80197  1.0000
  H   H1952     1.0  0.59298  0.65133  0.79775  1.0000
  H   H1953     1.0  0.57533  0.65316  0.80991  1.0000
  H   H1954     1.0  0.58111  0.61939  0.75904  1.0000
  H   H1955     1.0  0.56231  0.61937  0.74295  1.0000
  H   H1956     1.0  0.57831  0.63851  0.75563  1.0000
  H   H1957     1.0  0.54699  0.62776  0.87120  1.0000
  H   H1958     1.0  0.55871  0.64526  0.85063  1.0000
  H   H1959     1.0  0.54274  0.62711  0.83183  1.0000
  H   H1960     1.0  0.58951  0.61247  0.86295  1.0000
  H   H1961     1.0  0.60370  0.63381  0.85974  1.0000
  H   H1962     1.0  0.60806  0.61764  0.84346  1.0000
  H   H1963     1.0  0.60819  0.65978  0.84321  1.0000
  H   H1964     1.0  0.59028  0.65285  0.86587  1.0000
  H   H1965     1.0  0.59458  0.67035  0.84472  1.0000
  N   N84       1.0  0.53589  0.51806  0.74287  1.0000
  C   C1152     1.0  0.53866  0.51213  0.77329  1.0000
  H   H1966     1.0  0.45341  0.60690  0.58778  1.0000
  C   C1153     1.0  0.53158  0.53265  0.74786  1.0000
  H   H1967     1.0  0.55671  0.61343  0.56703  1.0000
  C   C1154     1.0  0.55207  0.52489  0.79478  1.0000
  C   C1155     1.0  0.57266  0.64444  0.54319  1.0000
  C   C1156     1.0  0.54868  0.72420  0.88713  1.0000
  C   C1157     1.0  0.58653  0.61567  0.61555  1.0000
  C   C1158     1.0  0.46013  0.61081  0.61020  1.0000
  H   H1968     1.0  0.46077  0.61774  0.67142  1.0000
  H   H1969     1.0  0.48701  0.60284  0.60364  1.0000
  H   H1970     1.0  0.50965  0.72131  0.86198  1.0000
  H   H1971     1.0  0.50821  0.69441  0.88155  1.0000
  H   H1972     1.0  0.54202  0.54287  0.76023  1.0000
  H   H1973     1.0  0.63604  0.53717  0.94906  1.0000
  S   S334      1.0  0.62883  0.71725  0.93446  1.0000
  H   H1974     1.0  0.59799  0.63986  0.59730  1.0000
  H   H1975     1.0  0.58224  0.61623  0.63819  1.0000
  H   H1976     1.0  0.55952  0.64328  0.62970  1.0000
  H   H1977     1.0  0.47163  0.63633  0.59744  1.0000
  H   H1978     1.0  0.45184  0.61440  0.62385  1.0000
  H   H1979     1.0  0.55784  0.51444  0.73191  1.0000
  C   C1159     1.0  0.64556  0.54287  0.93340  1.0000
  C   C1160     1.0  0.64412  0.73515  0.91996  1.0000
  C   C1161     1.0  0.64689  0.58495  0.91540  1.0000
  H   H1980     1.0  0.58766  0.66613  0.63008  1.0000
  H   H1981     1.0  0.54582  0.62512  0.57970  1.0000
  H   H1982     1.0  0.61708  0.59575  0.87995  1.0000
  H   H1983     1.0  0.47148  0.61087  0.69886  1.0000
  H   H1984     1.0  0.57941  0.60318  0.60518  1.0000
  C   C1162     1.0  0.54623  0.60715  0.61002  1.0000
  C   C1163     1.0  0.52776  0.54056  0.71975  1.0000
  H   H1985     1.0  0.53927  0.52454  0.68200  1.0000
  C   C1164     1.0  0.64483  0.58718  0.94901  1.0000
  H   H1986     1.0  0.55983  0.63592  0.53548  1.0000
  H   H1987     1.0  0.58171  0.63956  0.53604  1.0000
  H   H1988     1.0  0.53525  0.59710  0.59856  1.0000
  C   C1165     1.0  0.52509  0.72327  0.91517  1.0000
  C   C1166     1.0  0.47715  0.57698  0.61004  1.0000
  H   H1989     1.0  0.46932  0.59124  0.57940  1.0000
  H   H1990     1.0  0.58571  0.62421  0.57164  1.0000
  H   H1991     1.0  0.42087  0.57240  0.63455  1.0000
  H   H1992     1.0  0.55684  0.71144  0.85329  1.0000
  H   H1993     1.0  0.48300  0.63197  0.62749  1.0000
  H   H1994     1.0  0.61365  0.56996  0.92605  1.0000
  H   H1995     1.0  0.52070  0.52930  0.76210  1.0000
  H   H1996     1.0  0.42703  0.58905  0.60958  1.0000
  H   H1997     1.0  0.48476  0.61141  0.65246  1.0000
  H   H1998     1.0  0.47426  0.59099  0.66363  1.0000
  C   C1167     1.0  0.47568  0.62683  0.60610  1.0000
  C   C1168     1.0  0.53407  0.73414  0.94324  1.0000
  H   H1999     1.0  0.52560  0.69593  0.85986  1.0000
  C   C1169     1.0  0.51509  0.69971  0.86147  1.0000
  H   H2000     1.0  0.59211  0.55076  0.89094  1.0000
  H   H2001     1.0  0.53907  0.54671  0.70709  1.0000
  Fe  Fe167     1.0  0.39494  0.49259  0.69554  1.0000
  C   C1170     1.0  0.58580  0.65468  0.64186  1.0000
  C   C1171     1.0  0.34943  0.49799  0.86471  1.0000
  H   H2002     1.0  0.48504  0.57515  0.59290  1.0000
  H   H2003     1.0  0.60376  0.55925  0.85935  1.0000
  H   H2004     1.0  0.63294  0.56653  0.85862  1.0000
  H   H2005     1.0  0.56132  0.53261  0.68369  1.0000
  H   H2006     1.0  0.55013  0.51102  0.68218  1.0000
  C   C1172     1.0  0.52126  0.50418  0.72711  1.0000
  H   H2007     1.0  0.51832  0.50738  0.70441  1.0000
  H   H2008     1.0  0.34313  0.50584  0.87189  1.0000
  H   H2009     1.0  0.52539  0.72226  0.83870  1.0000
  H   H2010     1.0  0.64914  0.51827  0.74038  1.0000
  H   H2011     1.0  0.52843  0.72770  0.96365  1.0000
  H   H2012     1.0  0.55082  0.72652  0.83706  1.0000
  H   H2013     1.0  0.64458  0.53326  0.68835  1.0000
  Fe  Fe168     1.0  0.56884  0.70240  0.49272  1.0000
  H   H2014     1.0  0.55453  0.51850  0.81435  1.0000
  H   H2015     1.0  0.62240  0.59831  0.91833  1.0000
  H   H2016     1.0  0.59601  0.57138  0.88192  1.0000
  H   H2017     1.0  0.36299  0.50456  0.87051  1.0000
  H   H2018     1.0  0.51237  0.72317  0.91347  1.0000
  C   C1173     1.0  0.61751  0.56793  0.90354  1.0000
  C   C1174     1.0  0.60160  0.56224  0.88248  1.0000
  H   H2019     1.0  0.62715  0.58241  0.84625  1.0000
  C   C1175     1.0  0.64115  0.61447  0.89021  1.0000
  H   H2020     1.0  0.32641  0.49899  0.90942  1.0000
  H   H2021     1.0  0.64995  0.57410  0.91290  1.0000
  N   N85       1.0  0.63220  0.58293  0.89442  1.0000
  H   H2022     1.0  0.55854  0.73299  0.90265  1.0000
  H   H2023     1.0  0.64161  0.61662  0.86580  1.0000
  C   C1176     1.0  0.63563  0.57979  0.86261  1.0000
  H   H2024     1.0  0.33548  0.49478  0.96679  1.0000
  C   C1177     1.0  0.64881  0.55844  0.68101  1.0000
  H   H2025     1.0  0.34738  0.49657  0.83991  1.0000
  H   H2026     1.0  0.63827  0.62414  0.90154  1.0000
  H   H2027     1.0  0.64161  0.59776  0.95377  1.0000
  H   H2028     1.0  0.56998  0.73274  0.85878  1.0000
  H   H2029     1.0  0.54746  0.73673  0.94524  1.0000
  C   C1178     1.0  0.65156  0.54417  0.67641  1.0000
  H   H2030     1.0  0.49454  0.49632  0.78968  1.0000
  Fe  Fe169     1.0  0.38544  0.91279  0.19795  1.0000
  S   S335      1.0  0.37945  0.92783  0.16296  1.0000
  S   S336      1.0  0.40639  0.90510  0.18470  1.0000
  Fe  Fe170     1.0  0.35938  0.91557  0.23956  1.0000
  S   S337      1.0  0.35277  0.93151  0.20718  1.0000
  S   S338      1.0  0.34946  0.91275  0.28721  1.0000
  Fe  Fe171     1.0  0.35244  0.91336  0.17072  1.0000
  S   S339      1.0  0.33072  0.90710  0.13480  1.0000
  Fe  Fe172     1.0  0.38024  0.94470  0.20150  1.0000
  S   S340      1.0  0.39624  0.97173  0.19330  1.0000
  S   S341      1.0  0.35798  0.89675  0.20349  1.0000
  S   S342      1.0  0.38721  0.93024  0.23612  1.0000
  C   C1179     1.0  0.33201  0.89886  0.30600  1.0000
  C   C1180     1.0  0.63589  0.81131  0.45571  1.0000
  H   H2031     1.0  0.33265  0.87441  0.04500  1.0000
  N   N86       1.0  0.62744  0.78048  0.44055  1.0000
  C   C1181     1.0  0.61466  0.92532  0.40087  1.0000
  N   N87       1.0  0.61230  0.91981  0.34318  1.0000
  H   H2032     1.0  0.34199  0.84878  0.36336  1.0000
  H   H2033     1.0  0.43265  0.97767  0.26143  1.0000
  H   H2034     1.0  0.60695  0.83609  0.05908  1.0000
  C   C1182     1.0  0.32057  0.88395  0.29275  1.0000
  S   S343      1.0  0.59694  0.86958  0.00007  1.0000
  H   H2035     1.0  0.34306  0.88802  0.09533  1.0000
  H   H2036     1.0  0.57255  0.76744  0.99463  1.0000
  H   H2037     1.0  0.59440  0.75410  0.39231  1.0000
  C   C1183     1.0  0.42403  0.95027  0.17771  1.0000
  C   C1184     1.0  0.64065  0.78310  0.41831  1.0000
  H   H2038     1.0  0.38332  0.97476  0.25090  1.0000
  C   C1185     1.0  0.56715  0.99045  0.24937  1.0000
  C   C1186     1.0  0.42746  0.91057  0.19829  1.0000
  H   H2039     1.0  0.42392  0.91537  0.24410  1.0000
  H   H2040     1.0  0.34587  0.89438  0.44330  1.0000
  Fe  Fe173     1.0  0.57997  0.84670  0.45997  1.0000
  H   H2041     1.0  0.62943  0.81855  0.46541  1.0000
  H   H2042     1.0  0.41686  0.96329  0.23551  1.0000
  Fe  Fe174     1.0  0.57056  0.86783  0.41458  1.0000
  S   S344      1.0  0.58008  0.89023  0.44553  1.0000
  S   S345      1.0  0.55921  0.86618  0.36684  1.0000
  Fe  Fe175     1.0  0.60189  0.88357  0.45547  1.0000
  S   S346      1.0  0.62814  0.90353  0.46257  1.0000
  H   H2043     1.0  0.61460  0.75419  0.43089  1.0000
  S   S347      1.0  0.57682  0.90072  0.02761  1.0000
  S   S348      1.0  0.59334  0.86222  0.42217  1.0000
  S   S349      1.0  0.55651  0.85076  0.45018  1.0000
  Fe  Fe176     1.0  0.53925  0.92439  0.24480  1.0000
  S   S350      1.0  0.55432  0.93461  0.20463  1.0000
  S   S351      1.0  0.54949  0.92274  0.29223  1.0000
  Fe  Fe177     1.0  0.50682  0.92478  0.21436  1.0000
  S   S352      1.0  0.51956  0.93476  0.17188  1.0000
  S   S353      1.0  0.48183  0.92233  0.23268  1.0000
  Fe  Fe178     1.0  0.53188  0.91686  0.17689  1.0000
  S   S354      1.0  0.53249  0.89878  0.13963  1.0000
  Fe  Fe179     1.0  0.54126  0.95179  0.20203  1.0000
  S   S355      1.0  0.55325  0.97912  0.19216  1.0000
  S   S356      1.0  0.51746  0.90558  0.21772  1.0000
  S   S357      1.0  0.52793  0.94299  0.24373  1.0000
  C   C1187     1.0  0.46102  0.91773  0.21844  1.0000
  C   C1188     1.0  0.44937  0.91851  0.23834  1.0000
  C   C1189     1.0  0.43276  0.91501  0.22838  1.0000
  C   C1190     1.0  0.43909  0.90972  0.17844  1.0000
  C   C1191     1.0  0.45577  0.91340  0.18833  1.0000
  H   H2044     1.0  0.45319  0.92176  0.26172  1.0000
  H   H2045     1.0  0.43514  0.90609  0.15520  1.0000
  H   H2046     1.0  0.46448  0.91264  0.17269  1.0000
  H   H2047     1.0  0.44361  0.97304  0.16800  1.0000
  H   H2048     1.0  0.56286  0.97767  0.25515  1.0000
  H   H2049     1.0  0.60253  0.81567  0.01744  1.0000
  C   C1192     1.0  0.56461  0.89970  0.05920  1.0000
  C   C1193     1.0  0.56715  0.91437  0.07529  1.0000
  C   C1194     1.0  0.55766  0.91435  0.10003  1.0000
  C   C1195     1.0  0.54529  0.89963  0.10900  1.0000
  C   C1196     1.0  0.54269  0.88496  0.09278  1.0000
  C   C1197     1.0  0.55230  0.88495  0.06822  1.0000
  H   H2050     1.0  0.57659  0.92588  0.06864  1.0000
  H   H2051     1.0  0.55985  0.92575  0.11206  1.0000
  H   H2052     1.0  0.53320  0.87347  0.09939  1.0000
  H   H2053     1.0  0.55011  0.87354  0.05624  1.0000
  C   C1198     1.0  0.55641  0.88199  0.34652  1.0000
  C   C1199     1.0  0.55824  0.89688  0.36035  1.0000
  C   C1200     1.0  0.55611  0.90917  0.34331  1.0000
  C   C1201     1.0  0.55202  0.90673  0.31230  1.0000
  C   C1202     1.0  0.55010  0.89181  0.29846  1.0000
  C   C1203     1.0  0.55226  0.87952  0.31552  1.0000
  H   H2054     1.0  0.56123  0.89891  0.38422  1.0000
  H   H2055     1.0  0.55757  0.92065  0.35429  1.0000
  H   H2056     1.0  0.54700  0.88974  0.27463  1.0000
  H   H2057     1.0  0.55079  0.86803  0.30457  1.0000
  H   H2058     1.0  0.46529  0.96505  0.18156  1.0000
  H   H2059     1.0  0.62993  0.88784  0.40579  1.0000
  C   C1204     1.0  0.56862  0.76981  0.44166  1.0000
  C   C1205     1.0  0.56459  0.78082  0.42404  1.0000
  C   C1206     1.0  0.56887  0.79726  0.43416  1.0000
  C   C1207     1.0  0.57722  0.80292  0.46217  1.0000
  H   H2060     1.0  0.32975  0.86978  0.37064  1.0000
  H   H2061     1.0  0.35891  0.87847  0.43516  1.0000
  H   H2062     1.0  0.34856  0.88354  0.38874  1.0000
  H   H2063     1.0  0.42993  0.97514  0.19369  1.0000
  H   H2064     1.0  0.58764  0.90657  0.32154  1.0000
  C   C1208     1.0  0.33296  0.89059  0.43404  1.0000
  H   H2065     1.0  0.61433  0.76725  0.38059  1.0000
  C   C1209     1.0  0.64811  0.74715  0.37770  1.0000
  H   H2066     1.0  0.60593  0.92228  0.41922  1.0000
  H   H2067     1.0  0.55805  0.77660  0.40242  1.0000
  H   H2068     1.0  0.65049  0.85609  0.03790  1.0000
  C   C1210     1.0  0.61511  0.82585  0.02177  1.0000
  H   H2069     1.0  0.52495  0.98691  0.25031  1.0000
  H   H2070     1.0  0.50652  0.89643  0.36417  1.0000
  H   H2071     1.0  0.54380  0.80105  0.48313  1.0000
  H   H2072     1.0  0.56562  0.80550  0.42034  1.0000
  N   N88       1.0  0.44893  0.96814  0.21374  1.0000
  C   C1211     1.0  0.32422  0.89748  0.09818  1.0000
  C   C1212     1.0  0.49604  0.88458  0.35789  1.0000
  C   C1213     1.0  0.32635  0.88116  0.05540  1.0000
  C   C1214     1.0  0.61213  0.76552  0.42979  1.0000
  H   H2073     1.0  0.47778  0.89255  0.33823  1.0000
  H   H2074     1.0  0.32659  0.89438  0.45166  1.0000
  H   H2075     1.0  0.58939  0.93510  0.32547  1.0000
  Fe  Fe180     1.0  0.58009  0.88280  0.99307  1.0000
  C   C1215     1.0  0.59573  0.93135  0.30781  1.0000
  H   H2076     1.0  0.48288  0.97393  0.23187  1.0000
  H   H2077     1.0  0.35652  0.86477  0.48373  1.0000
  C   C1216     1.0  0.32972  0.90293  0.33559  1.0000
  S   S358      1.0  0.56260  0.74910  0.42787  1.0000
  H   H2078     1.0  0.64389  0.93477  0.37694  1.0000
  C   C1217     1.0  0.35212  0.91290  0.01007  1.0000
  C   C1218     1.0  0.64148  0.89853  0.41031  1.0000
  H   H2079     1.0  0.59119  0.88436  0.33495  1.0000
  C   C1219     1.0  0.34985  0.86188  0.36945  1.0000
  C   C1220     1.0  0.32346  0.84503  0.41303  1.0000
  C   C1221     1.0  0.64298  0.83779  0.00037  1.0000
  H   H2080     1.0  0.62574  0.90632  0.36319  1.0000
  H   H2081     1.0  0.61955  0.79794  0.41897  1.0000
  H   H2082     1.0  0.62299  0.85152  0.04002  1.0000
  H   H2083     1.0  0.33842  0.91443  0.34611  1.0000
  H   H2084     1.0  0.36127  0.86295  0.38254  1.0000
  H   H2085     1.0  0.51635  0.93419  0.32271  1.0000
  H   H2086     1.0  0.60685  0.94208  0.30144  1.0000
  H   H2087     1.0  0.62162  0.82138  0.03910  1.0000
  C   C1222     1.0  0.43688  0.96753  0.18819  1.0000
  H   H2088     1.0  0.33109  0.83806  0.40781  1.0000
  Fe  Fe181     1.0  0.56760  0.87303  0.48214  1.0000
  C   C1223     1.0  0.39399  0.98607  0.24732  1.0000
  H   H2089     1.0  0.61452  0.79568  0.01354  1.0000
  H   H2090     1.0  0.63996  0.77108  0.40943  1.0000
  C   C1224     1.0  0.40278  0.98753  0.22155  1.0000
  C   C1225     1.0  0.60517  0.76596  0.39764  1.0000
  H   H2091     1.0  0.64425  0.74621  0.35419  1.0000
  H   H2092     1.0  0.62671  0.94618  0.34146  1.0000
  C   C1226     1.0  0.45894  0.98589  0.22346  1.0000
  C   C1227     1.0  0.47436  0.96113  0.22524  1.0000
  H   H2093     1.0  0.44881  0.96015  0.25929  1.0000
  C   C1228     1.0  0.33232  0.88889  0.08402  1.0000
  C   C1229     1.0  0.34508  0.86366  0.47058  1.0000
  C   C1230     1.0  0.52563  0.89132  0.00673  1.0000
  H   H2094     1.0  0.34143  0.87329  0.47981  1.0000
  S   S359      1.0  0.58266  0.82341  0.47669  1.0000
  C   C1231     1.0  0.59978  0.91664  0.31697  1.0000
  H   H2095     1.0  0.43344  0.94565  0.23465  1.0000
  H   H2096     1.0  0.60163  0.76342  0.44440  1.0000
  C   C1232     1.0  0.62799  0.93446  0.33640  1.0000
  H   H2097     1.0  0.62411  0.93811  0.40493  1.0000
  H   H2098     1.0  0.62062  0.91661  0.40317  1.0000
  H   H2099     1.0  0.60199  0.84210  0.02365  1.0000
  C   C1233     1.0  0.45992  0.96005  0.20314  1.0000
  C   C1234     1.0  0.64450  0.93588  0.35241  1.0000
  N   N89       1.0  0.33405  0.86329  0.41585  1.0000
  C   C1235     1.0  0.61183  0.83989  0.03670  1.0000
  H   H2100     1.0  0.42097  0.95696  0.27130  1.0000
  H   H2101     1.0  0.41595  0.95159  0.15902  1.0000
  H   H2102     1.0  0.46626  0.98682  0.24491  1.0000
  C   C1236     1.0  0.58129  0.79192  0.47975  1.0000
  H   H2103     1.0  0.60306  0.93499  0.36842  1.0000
  H   H2104     1.0  0.56858  0.79185  0.01430  1.0000
  H   H2105     1.0  0.59195  0.91400  0.37301  1.0000
  C   C1237     1.0  0.62272  0.79498  0.44186  1.0000
  C   C1238     1.0  0.65021  0.85572  0.01304  1.0000
  C   C1239     1.0  0.43989  0.95905  0.24011  1.0000
  H   H2106     1.0  0.61097  0.79201  0.45340  1.0000
  H   H2107     1.0  0.45250  0.94669  0.19812  1.0000
  H   H2108     1.0  0.35467  0.85744  0.43127  1.0000
  H   H2109     1.0  0.53046  0.89418  0.03048  1.0000
  H   H2110     1.0  0.58686  0.92750  0.28780  1.0000
  H   H2111     1.0  0.64516  0.78638  0.47933  1.0000
  C   C1240     1.0  0.32368  0.87185  0.42719  1.0000
  H   H2112     1.0  0.51750  0.89276  0.31709  1.0000
  H   H2113     1.0  0.60405  0.91239  0.29667  1.0000
  H   H2114     1.0  0.49449  0.86181  0.30658  1.0000
  H   H2115     1.0  0.41567  0.94390  0.19548  1.0000
  H   H2116     1.0  0.45712  0.88024  0.29596  1.0000
  H   H2117     1.0  0.63018  0.93449  0.31203  1.0000
  C   C1241     1.0  0.34020  0.87021  0.38606  1.0000
  H   H2118     1.0  0.50512  0.91564  0.28094  1.0000
  C   C1242     1.0  0.60100  0.88874  0.35337  1.0000
  H   H2119     1.0  0.46976  0.95403  0.24550  1.0000
  H   H2120     1.0  0.42993  0.94234  0.16895  1.0000
  H   H2121     1.0  0.48690  0.89095  0.25469  1.0000
  H   H2122     1.0  0.45676  0.88151  0.25616  1.0000
  C   C1243     1.0  0.57706  0.77550  0.46960  1.0000
  C   C1244     1.0  0.60481  0.92335  0.37065  1.0000
  H   H2123     1.0  0.59561  0.89017  0.37459  1.0000
  C   C1245     1.0  0.46439  0.88699  0.27720  1.0000
  C   C1246     1.0  0.34881  0.86600  0.43715  1.0000
  C   C1247     1.0  0.48118  0.88533  0.27575  1.0000
  H   H2124     1.0  0.47763  0.87191  0.27248  1.0000
  H   H2125     1.0  0.35544  0.90659  0.02891  1.0000
  H   H2126     1.0  0.60543  0.87879  0.35657  1.0000
  H   H2127     1.0  0.46576  0.89989  0.27853  1.0000
  H   H2128     1.0  0.50109  0.87517  0.35407  1.0000
  C   C1248     1.0  0.61582  0.90463  0.34582  1.0000
  H   H2129     1.0  0.51515  0.89489  0.27848  1.0000
  H   H2130     1.0  0.62074  0.90211  0.32467  1.0000
  C   C1249     1.0  0.50430  0.86988  0.29238  1.0000
  H   H2131     1.0  0.52239  0.91792  0.33129  1.0000
  C   C1250     1.0  0.51143  0.92096  0.32807  1.0000
  N   N90       1.0  0.49345  0.89240  0.30242  1.0000
  C   C1251     1.0  0.49918  0.91086  0.30228  1.0000
  H   H2132     1.0  0.48192  0.95546  0.21416  1.0000
  H   H2133     1.0  0.48856  0.91451  0.30299  1.0000
  H   H2134     1.0  0.48836  0.88079  0.37767  1.0000
  C   C1252     1.0  0.64384  0.90810  0.43661  1.0000
  H   H2135     1.0  0.35384  0.86819  0.34813  1.0000
  H   H2136     1.0  0.50503  0.91975  0.34924  1.0000
  C   C1253     1.0  0.50823  0.88830  0.29781  1.0000
  H   H2137     1.0  0.50050  0.86613  0.26844  1.0000
  C   C1254     1.0  0.42696  0.96478  0.25245  1.0000
  H   H2138     1.0  0.51782  0.89824  0.00234  1.0000
  H   H2139     1.0  0.54662  0.88763  0.99080  1.0000
  C   C1255     1.0  0.48493  0.88546  0.33072  1.0000
  H   H2140     1.0  0.47551  0.87260  0.32644  1.0000
  H   H2141     1.0  0.33526  0.85139  0.47465  1.0000
  H   H2142     1.0  0.51571  0.86771  0.29748  1.0000
  H   H2143     1.0  0.60037  0.77567  0.39550  1.0000
  H   H2144     1.0  0.32210  0.88058  0.27008  1.0000
  H   H2145     1.0  0.63628  0.80391  0.00464  1.0000
  H   H2146     1.0  0.64862  0.92657  0.34316  1.0000
  H   H2147     1.0  0.33324  0.89767  0.41375  1.0000
  H   H2148     1.0  0.58012  0.76720  0.48359  1.0000
  C   C1256     1.0  0.63306  0.77673  0.47084  1.0000
  C   C1257     1.0  0.62330  0.79991  0.99537  1.0000
  H   H2149     1.0  0.54957  0.90853  0.99551  1.0000
  C   C1258     1.0  0.57151  0.79130  0.99119  1.0000
  H   H2150     1.0  0.52441  0.74367  0.35610  1.0000
  H   H2151     1.0  0.64409  0.81868  0.43842  1.0000
  H   H2152     1.0  0.52982  0.81080  0.47879  1.0000
  H   H2153     1.0  0.63850  0.78949  0.39840  1.0000
  H   H2154     1.0  0.65199  0.89564  0.36906  1.0000
  H   H2155     1.0  0.51791  0.87788  0.00500  1.0000
  H   H2156     1.0  0.34097  0.91476  0.01654  1.0000
  H   H2157     1.0  0.63539  0.76533  0.46917  1.0000
  N   N91       1.0  0.62444  0.82953  0.99339  1.0000
  H   H2158     1.0  0.36275  0.92495  0.00839  1.0000
  H   H2159     1.0  0.64356  0.80974  0.47463  1.0000
  H   H2160     1.0  0.64372  0.86322  0.00431  1.0000
  H   H2161     1.0  0.54418  0.74304  0.36146  1.0000
  H   H2162     1.0  0.64691  0.83075  0.01707  1.0000
  H   H2163     1.0  0.37880  0.88073  0.74568  1.0000
  Fe  Fe182     1.0  0.57808  0.84836  0.97192  1.0000
  H   H2164     1.0  0.37363  0.83101  0.70070  1.0000
  C   C1259     1.0  0.52452  0.87959  0.94308  1.0000
  Fe  Fe183     1.0  0.57351  0.87193  0.92638  1.0000
  S   S360      1.0  0.59251  0.89451  0.95099  1.0000
  S   S361      1.0  0.55646  0.87037  0.88507  1.0000
  Fe  Fe184     1.0  0.60791  0.87963  0.95646  1.0000
  S   S362      1.0  0.63600  0.88686  0.95696  1.0000
  C   C1260     1.0  0.57327  0.80459  0.97286  1.0000
  S   S363      1.0  0.55021  0.87872  0.51324  1.0000
  S   S364      1.0  0.58982  0.85775  0.92872  1.0000
  S   S365      1.0  0.56030  0.86092  0.96802  1.0000
  Fe  Fe185     1.0  0.54172  0.92202  0.74651  1.0000
  S   S366      1.0  0.55547  0.93222  0.70527  1.0000
  S   S367      1.0  0.55812  0.92324  0.78861  1.0000
  Fe  Fe186     1.0  0.50798  0.91648  0.71402  1.0000
  S   S368      1.0  0.51961  0.92548  0.67012  1.0000
  S   S369      1.0  0.48129  0.90978  0.72838  1.0000
  Fe  Fe187     1.0  0.53535  0.91100  0.67947  1.0000
  S   S370      1.0  0.54706  0.89656  0.65209  1.0000
  Fe  Fe188     1.0  0.53913  0.94577  0.69911  1.0000
  S   S371      1.0  0.54833  0.97230  0.68544  1.0000
  S   S372      1.0  0.52206  0.90023  0.72144  1.0000
  S   S373      1.0  0.52698  0.93750  0.74219  1.0000
  Fe  Fe189     1.0  0.39377  0.92045  0.69366  1.0000
  S   S374      1.0  0.38208  0.93509  0.66757  1.0000
  S   S375      1.0  0.41740  0.91959  0.67520  1.0000
  Fe  Fe190     1.0  0.36596  0.90938  0.73802  1.0000
  S   S376      1.0  0.35311  0.92358  0.71549  1.0000
  S   S377      1.0  0.35545  0.89190  0.77631  1.0000
  Fe  Fe191     1.0  0.35743  0.91354  0.67149  1.0000
  S   S378      1.0  0.33367  0.90361  0.63985  1.0000
  Fe  Fe192     1.0  0.37855  0.94396  0.71304  1.0000
  S   S379      1.0  0.38016  0.96998  0.72072  1.0000
  S   S380      1.0  0.36923  0.89820  0.69434  1.0000
  S   S381      1.0  0.39144  0.93051  0.73901  1.0000
  C   C1261     1.0  0.33933  0.89104  0.79990  1.0000
  H   H2165     1.0  0.33627  0.91211  0.78250  1.0000
  H   H2166     1.0  0.40274  0.88501  0.65899  1.0000
  C   C1262     1.0  0.32689  0.88138  0.92611  1.0000
  H   H2167     1.0  0.57333  0.86663  0.73690  1.0000
  H   H2168     1.0  0.33910  0.86962  0.82211  1.0000
  C   C1263     1.0  0.52008  0.84102  0.54264  1.0000
  H   H2169     1.0  0.51586  0.90378  0.95310  1.0000
  C   C1264     1.0  0.32773  0.89593  0.60190  1.0000
  H   H2170     1.0  0.52191  0.80685  0.55317  1.0000
  H   H2171     1.0  0.55598  0.89208  0.75828  1.0000
  H   H2172     1.0  0.55099  0.90074  0.91341  1.0000
  N   N92       1.0  0.50330  0.97318  0.72110  1.0000
  H   H2173     1.0  0.51154  0.83183  0.55733  1.0000
  H   H2174     1.0  0.33407  0.87140  0.69949  1.0000
  C   C1265     1.0  0.56026  0.89076  0.73584  1.0000
  N   N93       1.0  0.34548  0.90932  0.95276  1.0000
  H   H2175     1.0  0.41220  0.97260  0.74684  1.0000
  C   C1266     1.0  0.46475  0.91464  0.71357  1.0000
  C   C1267     1.0  0.45281  0.91525  0.73290  1.0000
  C   C1268     1.0  0.43870  0.91769  0.72186  1.0000
  C   C1269     1.0  0.43613  0.91911  0.69113  1.0000
  C   C1270     1.0  0.44828  0.91891  0.67190  1.0000
  C   C1271     1.0  0.46253  0.91676  0.68302  1.0000
  H   H2176     1.0  0.45441  0.91367  0.75660  1.0000
  H   H2177     1.0  0.42958  0.91797  0.73700  1.0000
  H   H2178     1.0  0.44643  0.91995  0.64807  1.0000
  H   H2179     1.0  0.47144  0.91609  0.66777  1.0000
  H   H2180     1.0  0.51123  0.95786  0.78936  1.0000
  H   H2181     1.0  0.55825  0.97195  0.74823  1.0000
  H   H2182     1.0  0.54762  0.75357  0.90124  1.0000
  C   C1272     1.0  0.55070  0.88525  0.55154  1.0000
  C   C1273     1.0  0.56259  0.88505  0.57326  1.0000
  C   C1274     1.0  0.56140  0.88876  0.60373  1.0000
  C   C1275     1.0  0.54863  0.89324  0.61293  1.0000
  C   C1276     1.0  0.53701  0.89387  0.59109  1.0000
  C   C1277     1.0  0.53795  0.88972  0.56075  1.0000
  H   H2183     1.0  0.57257  0.88179  0.56668  1.0000
  H   H2184     1.0  0.57048  0.88822  0.62030  1.0000
  H   H2185     1.0  0.52705  0.89715  0.59764  1.0000
  H   H2186     1.0  0.52863  0.88990  0.54429  1.0000
  C   C1278     1.0  0.55716  0.88536  0.85873  1.0000
  C   C1279     1.0  0.56996  0.90116  0.85977  1.0000
  C   C1280     1.0  0.56989  0.91262  0.83838  1.0000
  C   C1281     1.0  0.55703  0.90849  0.81577  1.0000
  C   C1282     1.0  0.54416  0.89273  0.81489  1.0000
  C   C1283     1.0  0.54426  0.88125  0.83621  1.0000
  H   H2187     1.0  0.57995  0.90452  0.87697  1.0000
  H   H2188     1.0  0.57991  0.92478  0.83928  1.0000
  H   H2189     1.0  0.53414  0.88938  0.79775  1.0000
  H   H2190     1.0  0.53426  0.86908  0.83528  1.0000
  C   C1284     1.0  0.52928  0.90915  0.94824  1.0000
  H   H2191     1.0  0.57822  0.81364  0.92847  1.0000
  C   C1285     1.0  0.57761  0.77654  0.95031  1.0000
  C   C1286     1.0  0.57901  0.78966  0.93177  1.0000
  C   C1287     1.0  0.57692  0.80361  0.94294  1.0000
  H   H2192     1.0  0.34333  0.90310  0.90503  1.0000
  H   H2193     1.0  0.31959  0.90204  0.96248  1.0000
  C   C1288     1.0  0.33035  0.91305  0.95544  1.0000
  H   H2194     1.0  0.58037  0.92536  0.73533  1.0000
  H   H2195     1.0  0.55917  0.87105  0.78315  1.0000
  N   N94       1.0  0.57807  0.89256  0.73789  1.0000
  C   C1289     1.0  0.60239  0.89653  0.70406  1.0000
  C   C1290     1.0  0.39821  0.84997  0.71339  1.0000
  C   C1291     1.0  0.51213  0.97224  0.75029  1.0000
  H   H2196     1.0  0.55904  0.75427  0.85282  1.0000
  H   H2197     1.0  0.54969  0.87285  0.69743  1.0000
  H   H2198     1.0  0.51924  0.91842  0.91086  1.0000
  H   H2199     1.0  0.48225  0.96095  0.66884  1.0000
  H   H2200     1.0  0.32476  0.89039  0.73659  1.0000
  H   H2201     1.0  0.48990  0.94590  0.65840  1.0000
  H   H2202     1.0  0.57423  0.86280  0.79110  1.0000
  N   N95       1.0  0.40769  0.86839  0.71320  1.0000
  H   H2203     1.0  0.50299  0.96709  0.65539  1.0000
  H   H2204     1.0  0.54103  0.92897  0.91707  1.0000
  H   H2205     1.0  0.61865  0.78575  0.50001  1.0000
  C   C1292     1.0  0.41693  0.87349  0.68489  1.0000
  H   H2206     1.0  0.47393  0.94886  0.73933  1.0000
  H   H2207     1.0  0.32560  0.89211  0.69741  1.0000
  H   H2208     1.0  0.52804  0.79703  0.50941  1.0000
  H   H2209     1.0  0.55203  0.85029  0.56914  1.0000
  C   C1293     1.0  0.56146  0.98458  0.74230  1.0000
  H   H2210     1.0  0.60743  0.90397  0.68427  1.0000
  H   H2211     1.0  0.52863  0.88048  0.89451  1.0000
  C   C1294     1.0  0.65059  0.90266  0.93654  1.0000
  H   H2212     1.0  0.57897  0.83992  0.54756  1.0000
  C   C1295     1.0  0.33849  0.89278  0.58316  1.0000
  C   C1296     1.0  0.51477  0.98814  0.70542  1.0000
  H   H2213     1.0  0.46356  0.96189  0.74600  1.0000
  C   C1297     1.0  0.54734  0.87448  0.72112  1.0000
  H   H2214     1.0  0.57689  0.92051  0.93154  1.0000
  C   C1298     1.0  0.38683  0.87379  0.74581  1.0000
  C   C1299     1.0  0.39667  0.87749  0.71722  1.0000
  H   H2215     1.0  0.59279  0.87962  0.75412  1.0000
  H   H2216     1.0  0.37845  0.86059  0.74684  1.0000
  H   H2217     1.0  0.46392  0.95516  0.70882  1.0000
  C   C1300     1.0  0.50067  0.95830  0.70139  1.0000
  C   C1301     1.0  0.64219  0.74999  0.91918  1.0000
  H   H2218     1.0  0.39390  0.84585  0.73606  1.0000
  H   H2219     1.0  0.37655  0.84986  0.68496  1.0000
  C   C1302     1.0  0.56701  0.91741  0.94784  1.0000
  H   H2220     1.0  0.32731  0.86608  0.73596  1.0000
  H   H2221     1.0  0.63253  0.90752  0.90899  1.0000
  H   H2222     1.0  0.42741  0.88580  0.68854  1.0000
  C   C1303     1.0  0.32477  0.91960  0.92709  1.0000
  H   H2223     1.0  0.39511  0.87800  0.76644  1.0000
  H   H2224     1.0  0.41453  0.86790  0.76049  1.0000
  H   H2225     1.0  0.55911  0.90087  0.72291  1.0000
  C   C1304     1.0  0.37734  0.92423  0.94898  1.0000
  C   C1305     1.0  0.34303  0.89725  0.92697  1.0000
  C   C1306     1.0  0.58407  0.89399  0.70662  1.0000
  C   C1307     1.0  0.55612  0.84404  0.55169  1.0000
  H   H2226     1.0  0.53862  0.74839  0.83345  1.0000
  H   H2227     1.0  0.38100  0.92204  0.97202  1.0000
  N   N96       1.0  0.54208  0.82866  0.53865  1.0000
  H   H2228     1.0  0.51265  0.95700  0.69934  1.0000
  H   H2229     1.0  0.40663  0.84374  0.70902  1.0000
  H   H2230     1.0  0.41547  0.87836  0.63771  1.0000
  H   H2231     1.0  0.51227  0.84530  0.52782  1.0000
  H   H2232     1.0  0.44318  0.87234  0.75819  1.0000
  H   H2233     1.0  0.52126  0.81317  0.60258  1.0000
  H   H2234     1.0  0.38690  0.83782  0.66986  1.0000
  H   H2235     1.0  0.55837  0.81701  0.52565  1.0000
  H   H2236     1.0  0.39641  0.86339  0.64949  1.0000
  H   H2237     1.0  0.48407  0.98125  0.70705  1.0000
  H   H2238     1.0  0.49204  0.95936  0.78004  1.0000
  H   H2239     1.0  0.59825  0.93435  0.76039  1.0000
  H   H2240     1.0  0.35343  0.89318  0.92712  1.0000
  C   C1308     1.0  0.50269  0.95783  0.77024  1.0000
  H   H2241     1.0  0.42277  0.86493  0.67888  1.0000
  H   H2242     1.0  0.58182  0.90377  0.69426  1.0000
  H   H2243     1.0  0.51510  0.98343  0.76484  1.0000
  H   H2244     1.0  0.60036  0.92651  0.72447  1.0000
  C   C1309     1.0  0.42038  0.87342  0.73953  1.0000
  H   H2245     1.0  0.40422  0.89104  0.71734  1.0000
  H   H2246     1.0  0.57955  0.85306  0.57848  1.0000
  H   H2247     1.0  0.42548  0.88694  0.74412  1.0000
  C   C1310     1.0  0.33357  0.87846  0.82064  1.0000
  C   C1311     1.0  0.41134  0.98429  0.75027  1.0000
  H   H2248     1.0  0.61066  0.90344  0.72345  1.0000
  H   H2249     1.0  0.51301  0.87562  0.95561  1.0000
  C   C1312     1.0  0.53271  0.82225  0.59319  1.0000
  C   C1313     1.0  0.55271  0.90079  0.93804  1.0000
  C   C1314     1.0  0.43551  0.86895  0.73671  1.0000
  C   C1315     1.0  0.55803  0.98813  0.71310  1.0000
  C   C1316     1.0  0.58831  0.90765  0.75735  1.0000
  H   H2250     1.0  0.38740  0.87516  0.69824  1.0000
  H   H2251     1.0  0.62681  0.77240  0.51725  1.0000
  C   C1317     1.0  0.53446  0.81589  0.56164  1.0000
  C   C1318     1.0  0.53678  0.80673  0.49582  1.0000
  H   H2252     1.0  0.33431  0.93161  0.92085  1.0000
  H   H2253     1.0  0.60333  0.88450  0.70138  1.0000
  C   C1319     1.0  0.31896  0.90092  0.81676  1.0000
  H   H2254     1.0  0.34141  0.88385  0.53950  1.0000
  C   C1320     1.0  0.62071  0.81332  0.97697  1.0000
  H   H2255     1.0  0.53542  0.91986  0.96437  1.0000
  C   C1321     1.0  0.36017  0.92510  0.94718  1.0000
  C   C1322     1.0  0.33297  0.88629  0.55361  1.0000
  C   C1323     1.0  0.62105  0.77459  0.49607  1.0000
  H   H2256     1.0  0.32571  0.87425  0.94659  1.0000
  H   H2257     1.0  0.53162  0.83418  0.59406  1.0000
  H   H2258     1.0  0.56788  0.83127  0.58057  1.0000
  C   C1324     1.0  0.51837  0.87706  0.90986  1.0000
  H   H2259     1.0  0.55648  0.83103  0.49966  1.0000
  H   H2260     1.0  0.53484  0.87473  0.72095  1.0000
  H   H2261     1.0  0.53213  0.90891  0.89827  1.0000
  H   H2262     1.0  0.35105  0.89527  0.59144  1.0000
  H   H2263     1.0  0.37786  0.91472  0.93323  1.0000
  N   N97       1.0  0.53666  0.89668  0.95331  1.0000
  C   C1325     1.0  0.57138  0.84170  0.56536  1.0000
  H   H2264     1.0  0.58202  0.90778  0.77830  1.0000
  H   H2265     1.0  0.32697  0.87326  0.90707  1.0000
  H   H2266     1.0  0.63102  0.75060  0.92711  1.0000
  C   C1326     1.0  0.40703  0.87497  0.65652  1.0000
  H   H2267     1.0  0.60758  0.80778  0.96785  1.0000
  C   C1327     1.0  0.64563  0.91064  0.91388  1.0000
  C   C1328     1.0  0.54644  0.75412  0.85403  1.0000
  C   C1329     1.0  0.39701  0.98617  0.73995  1.0000
  C   C1330     1.0  0.38313  0.84197  0.69073  1.0000
  H   H2268     1.0  0.61926  0.85112  0.98411  1.0000
  H   H2269     1.0  0.51034  0.88368  0.90460  1.0000
  H   H2270     1.0  0.54829  0.76725  0.85461  1.0000
  H   H2271     1.0  0.44381  0.87610  0.71933  1.0000
  H   H2272     1.0  0.57948  0.88400  0.79994  1.0000
  H   H2273     1.0  0.54210  0.80862  0.56531  1.0000
  C   C1331     1.0  0.32318  0.86854  0.71341  1.0000
  H   H2274     1.0  0.49245  0.94666  0.71115  1.0000
  C   C1332     1.0  0.53072  0.91652  0.91678  1.0000
  H   H2275     1.0  0.57659  0.88266  0.69279  1.0000
  C   C1333     1.0  0.47160  0.95921  0.73021  1.0000
  H   H2276     1.0  0.51057  0.86376  0.90515  1.0000
  C   C1334     1.0  0.57264  0.87387  0.78319  1.0000
  S   S382      1.0  0.58113  0.75966  0.93502  1.0000
  H   H2277     1.0  0.54313  0.82283  0.60882  1.0000
  H   H2278     1.0  0.35876  0.92947  0.92446  1.0000
  H   H2279     1.0  0.49851  0.94563  0.75860  1.0000
  C   C1335     1.0  0.57951  0.87785  0.75176  1.0000
  H   H2280     1.0  0.58768  0.79610  0.50151  1.0000
  H   H2281     1.0  0.60045  0.90761  0.76533  1.0000
  S   S383      1.0  0.59008  0.86796  0.49418  1.0000
  H   H2282     1.0  0.62842  0.81504  0.95726  1.0000
  H   H2283     1.0  0.53003  0.87051  0.94785  1.0000
  H   H2284     1.0  0.38693  0.93625  0.94267  1.0000
  H   H2285     1.0  0.43179  0.85562  0.73222  1.0000
  H   H2286     1.0  0.56073  0.85334  0.53415  1.0000
  H   H2287     1.0  0.52433  0.97178  0.74600  1.0000
  H   H2288     1.0  0.32134  0.91075  0.90765  1.0000
  C   C1336     1.0  0.33195  0.90230  0.79815  1.0000
  H   H2289     1.0  0.58196  0.78912  0.90868  1.0000
  H   H2290     1.0  0.54645  0.86358  0.73374  1.0000
  C   C1337     1.0  0.59196  0.92432  0.74316  1.0000
  H   H2291     1.0  0.52727  0.74927  0.88530  1.0000
  H   H2292     1.0  0.52866  0.85201  0.55596  1.0000
  C   C1338     1.0  0.52914  0.83332  0.52298  1.0000
  H   H2293     1.0  0.36083  0.93519  0.96297  1.0000
  C   C1339     1.0  0.49349  0.95827  0.66927  1.0000
  H   H2294     1.0  0.55742  0.89106  0.94189  1.0000
  C   C1340     1.0  0.48735  0.97514  0.72634  1.0000
  H   H2295     1.0  0.53483  0.84207  0.50501  1.0000
  H   H2296     1.0  0.35862  0.89764  0.97941  1.0000
  C   C1341     1.0  0.62671  0.84409  0.94323  1.0000
  C   C1342     1.0  0.54927  0.82143  0.51522  1.0000
  C   C1343     1.0  0.53837  0.74638  0.88296  1.0000
  H   H2297     1.0  0.62156  0.85190  0.93100  1.0000
  H   H2298     1.0  0.53263  0.74598  0.94343  1.0000
  H   H2299     1.0  0.62415  0.83314  0.92837  1.0000
  H   H2300     1.0  0.50850  0.99008  0.68458  1.0000
  H   H2301     1.0  0.33735  0.89055  0.98579  1.0000
  H   H2302     1.0  0.51904  0.82241  0.51160  1.0000
  S   S384      1.0  0.57127  0.82220  0.98874  1.0000
  H   H2303     1.0  0.56296  0.92766  0.94873  1.0000
  C   C1344     1.0  0.57374  0.77741  0.98009  1.0000
  H   H2304     1.0  0.48907  0.98343  0.74631  1.0000
  C   C1345     1.0  0.32056  0.87709  0.83927  1.0000
  H   H2305     1.0  0.60912  0.76375  0.49182  1.0000
  H   H2306     1.0  0.57288  0.91666  0.96995  1.0000
  H   H2307     1.0  0.64030  0.85147  0.94678  1.0000
  H   H2308     1.0  0.58959  0.98874  0.68202  1.0000
  C   C1346     1.0  0.54053  0.89626  0.98649  1.0000
  H   H2309     1.0  0.60460  0.83268  0.96765  1.0000
  H   H2310     1.0  0.52579  0.98633  0.69796  1.0000
  C   C1347     1.0  0.61819  0.83946  0.97311  1.0000
  C   C1348     1.0  0.34840  0.90186  0.98133  1.0000
  H   H2311     1.0  0.33254  0.92254  0.97354  1.0000
  H   H2312     1.0  0.62058  0.78892  0.98035  1.0000
  H   H2313     1.0  0.65001  0.83743  0.98048  1.0000
  C   C1349     1.0  0.31884  0.88375  0.71501  1.0000
  Fe  Fe193     1.0  0.93628  0.21571  0.11076  1.0000
  S   S385      1.0  0.92472  0.19468  0.07722  1.0000
  C   C1350     1.0  0.77425  0.99882  0.47818  1.0000
  Fe  Fe194     1.0  0.95379  0.19813  0.14801  1.0000
  S   S386      1.0  0.94344  0.17577  0.11604  1.0000
  H   H2314     1.0  0.91313  0.22864  0.00920  1.0000
  Fe  Fe195     1.0  0.95011  0.19408  0.07902  1.0000
  S   S387      1.0  0.96161  0.19165  0.03503  1.0000
  Fe  Fe196     1.0  0.91884  0.17816  0.11678  1.0000
  S   S388      1.0  0.89197  0.15911  0.12337  1.0000
  S   S389      1.0  0.96187  0.21592  0.11073  1.0000
  S   S390      1.0  0.92897  0.19969  0.15069  1.0000
  Fe  Fe197     1.0  0.69348  0.13600  0.06544  1.0000
  S   S391      1.0  0.68861  0.11784  0.02656  1.0000
  S   S392      1.0  0.67386  0.13485  0.09878  1.0000
  Fe  Fe198     1.0  0.72818  0.15948  0.04358  1.0000
  H   H2315     1.0  0.68762  0.14560  0.18061  1.0000
  S   S393      1.0  0.75293  0.18115  0.05927  1.0000
  H   H2316     1.0  0.96458  0.20345  0.43277  1.0000
  S   S394      1.0  0.68478  0.11532  0.46095  1.0000
  Fe  Fe199     1.0  0.71556  0.12204  0.03528  1.0000
  S   S395      1.0  0.72546  0.10219  0.03083  1.0000
  S   S396      1.0  0.70213  0.15816  0.03618  1.0000
  S   S397      1.0  0.71978  0.13866  0.07591  1.0000
  Fe  Fe200     1.0  0.81354  0.06809  0.11957  1.0000
  S   S398      1.0  0.80098  0.07179  0.15987  1.0000
  S   S399      1.0  0.84068  0.08272  0.10716  1.0000
  Fe  Fe201     1.0  0.78250  0.03716  0.09757  1.0000
  S   S400      1.0  0.76771  0.03923  0.13622  1.0000
  S   S401      1.0  0.77067  0.01357  0.06770  1.0000
  Fe  Fe202     1.0  0.77868  0.06637  0.12788  1.0000
  S   S402      1.0  0.76429  0.08221  0.13556  1.0000
  Fe  Fe203     1.0  0.79066  0.04425  0.16576  1.0000
  S   S403      1.0  0.79109  0.03454  0.21342  1.0000
  S   S404      1.0  0.79167  0.06405  0.08692  1.0000
  S   S405      1.0  0.80511  0.04088  0.12776  1.0000
  C   C1351     1.0  0.76921  0.00810  0.02888  1.0000
  C   C1352     1.0  0.76396  0.14268  0.03488  1.0000
  C   C1353     1.0  0.78219  0.13101  0.06062  1.0000
  H   H2317     1.0  0.74074  0.03890  0.28373  1.0000
  H   H2318     1.0  0.80534  0.05322  0.99431  1.0000
  H   H2319     1.0  0.80352  0.06636  0.02297  1.0000
  H   H2320     1.0  0.72722  0.19882  0.20690  1.0000
  C   C1354     1.0  0.77766  0.01812  0.23513  1.0000
  C   C1355     1.0  0.78233  0.01739  0.26549  1.0000
  C   C1356     1.0  0.81629  0.05140  0.03907  1.0000
  C   C1357     1.0  0.77201  0.00501  0.28393  1.0000
  H   H2321     1.0  0.79406  0.02653  0.27489  1.0000
  C   C1358     1.0  0.84363  0.05582  0.01916  1.0000
  C   C1359     1.0  0.66553  0.12279  0.13039  1.0000
  H   H2322     1.0  0.69241  0.17174  0.47923  1.0000
  C   C1360     1.0  0.67205  0.11211  0.14256  1.0000
  H   H2323     1.0  0.86488  0.07917  0.02894  1.0000
  H   H2324     1.0  0.68216  0.11053  0.13206  1.0000
  C   C1361     1.0  0.66913  0.11460  0.43324  1.0000
  C   C1362     1.0  0.66551  0.10356  0.40832  1.0000
  H   H2325     1.0  0.71028  0.16097  0.35866  1.0000
  H   H2326     1.0  0.75862  0.00640  0.20020  1.0000
  H   H2327     1.0  0.74607  0.17592  0.16300  1.0000
  H   H2328     1.0  0.73887  0.19110  0.11842  1.0000
  C   C1363     1.0  0.75385  0.08789  0.10604  1.0000
  C   C1364     1.0  0.74591  0.09836  0.11247  1.0000
  C   C1365     1.0  0.73722  0.10291  0.08965  1.0000
  C   C1366     1.0  0.73635  0.09696  0.06021  1.0000
  C   C1367     1.0  0.74438  0.08658  0.05378  1.0000
  C   C1368     1.0  0.75316  0.08211  0.07655  1.0000
  H   H2329     1.0  0.74635  0.10284  0.13525  1.0000
  H   H2330     1.0  0.73094  0.11076  0.09491  1.0000
  H   H2331     1.0  0.74373  0.08191  0.03106  1.0000
  H   H2332     1.0  0.75919  0.07402  0.07135  1.0000
  C   C1369     1.0  0.78925  0.22911  0.01770  1.0000
  H   H2333     1.0  0.72945  0.05123  0.48132  1.0000
  C   C1370     1.0  0.76201  0.20543  0.01626  1.0000
  C   C1371     1.0  0.76674  0.19929  0.04202  1.0000
  C   C1372     1.0  0.78282  0.20818  0.05548  1.0000
  C   C1373     1.0  0.79406  0.22284  0.04327  1.0000
  H   H2334     1.0  0.75402  0.17472  0.12753  1.0000
  C   C1374     1.0  0.75211  0.99380  0.24190  1.0000
  H   H2335     1.0  0.78669  0.20366  0.07544  1.0000
  H   H2336     1.0  0.69179  0.17751  0.12421  1.0000
  C   C1375     1.0  0.87803  0.13774  0.11856  1.0000
  C   C1376     1.0  0.88260  0.12587  0.10552  1.0000
  C   C1377     1.0  0.87105  0.10920  0.10226  1.0000
  C   C1378     1.0  0.85474  0.10404  0.11200  1.0000
  C   C1379     1.0  0.85015  0.11591  0.12499  1.0000
  C   C1380     1.0  0.86169  0.13257  0.12819  1.0000
  H   H2337     1.0  0.89505  0.12953  0.09799  1.0000
  H   H2338     1.0  0.87484  0.10023  0.09223  1.0000
  H   H2339     1.0  0.83773  0.11226  0.13266  1.0000
  H   H2340     1.0  0.85794  0.14155  0.13833  1.0000
  H   H2341     1.0  0.97513  0.22497  0.31794  1.0000
  H   H2342     1.0  0.74839  0.08707  0.22667  1.0000
  H   H2343     1.0  0.77387  0.04642  0.25341  1.0000
  H   H2344     1.0  0.75197  0.18014  0.43171  1.0000
  H   H2345     1.0  0.68288  0.16228  0.44398  1.0000
  H   H2346     1.0  0.75115  0.23405  0.08451  1.0000
  C   C1381     1.0  0.90336  0.22686  0.08078  1.0000
  H   H2347     1.0  0.80690  0.02127  0.01463  1.0000
  H   H2348     1.0  0.76009  0.15309  0.03734  1.0000
  H   H2349     1.0  0.79016  0.09111  0.21599  1.0000
  H   H2350     1.0  0.80668  0.02259  0.07319  1.0000
  H   H2351     1.0  0.78534  0.10950  0.04412  1.0000
  H   H2352     1.0  0.72606  0.20302  0.14910  1.0000
  H   H2353     1.0  0.94702  0.20411  0.41060  1.0000
  N   N98       1.0  0.71513  0.16409  0.42290  1.0000
  C   C1382     1.0  0.70096  0.15192  0.40306  1.0000
  C   C1383     1.0  0.70841  0.16397  0.45336  1.0000
  C   C1384     1.0  0.72866  0.15778  0.42522  1.0000
  C   C1385     1.0  0.72120  0.18073  0.40909  1.0000
  C   C1386     1.0  0.70479  0.14930  0.37053  1.0000
  C   C1387     1.0  0.69485  0.17073  0.45529  1.0000
  C   C1388     1.0  0.74490  0.16866  0.44328  1.0000
  C   C1389     1.0  0.73156  0.19597  0.42984  1.0000
  H   H2354     1.0  0.69609  0.13957  0.41301  1.0000
  H   H2355     1.0  0.69029  0.15556  0.40122  1.0000
  H   H2356     1.0  0.79663  0.15185  0.01534  1.0000
  H   H2357     1.0  0.85681  0.06834  0.06182  1.0000
  H   H2358     1.0  0.72382  0.14535  0.43499  1.0000
  H   H2359     1.0  0.73275  0.15616  0.40276  1.0000
  H   H2360     1.0  0.72889  0.18099  0.38987  1.0000
  H   H2361     1.0  0.74555  0.05029  0.16917  1.0000
  H   H2362     1.0  0.80638  0.22940  0.05383  1.0000
  H   H2363     1.0  0.83616  0.04584  0.07806  1.0000
  C   C1390     1.0  0.66078  0.12502  0.43463  1.0000
  H   H2364     1.0  0.79356  0.13399  0.07571  1.0000
  H   H2365     1.0  0.98104  0.19676  0.12442  1.0000
  H   H2366     1.0  0.75306  0.16187  0.44510  1.0000
  N   N99       1.0  0.71553  0.17687  0.13852  1.0000
  C   C1391     1.0  0.79539  0.17457  0.02847  1.0000
  H   H2367     1.0  0.77587  0.00470  0.30713  1.0000
  C   C1392     1.0  0.76347  0.13913  0.00073  1.0000
  C   C1393     1.0  0.77312  0.22029  0.00443  1.0000
  C   C1394     1.0  0.75320  0.03825  0.46705  1.0000
  H   H2368     1.0  0.81562  0.00997  0.05564  1.0000
  H   H2369     1.0  0.82313  0.07170  0.00724  1.0000
  C   C1395     1.0  0.96281  0.22339  0.32536  1.0000
  C   C1396     1.0  0.98267  0.21280  0.38114  1.0000
  H   H2370     1.0  0.97249  0.22976  0.20580  1.0000
  H   H2371     1.0  0.71043  0.18292  0.39929  1.0000
  H   H2372     1.0  0.76616  0.07008  0.19379  1.0000
  H   H2373     1.0  0.77822  0.99524  0.45773  1.0000
  H   H2374     1.0  0.71280  0.14240  0.36937  1.0000
  H   H2375     1.0  0.71266  0.20423  0.10649  1.0000
  H   H2376     1.0  0.97368  0.20076  0.38862  1.0000
  H   H2377     1.0  0.75578  0.03391  0.20623  1.0000
  H   H2378     1.0  0.80684  0.15998  0.05016  1.0000
  N   N100      1.0  0.75625  0.05488  0.23200  1.0000
  C   C1397     1.0  0.78215  0.08245  0.23213  1.0000
  S   S406      1.0  0.97169  0.19756  0.18681  1.0000
  C   C1398     1.0  0.83230  0.03651  0.05913  1.0000
  C   C1399     1.0  0.75731  0.99474  0.48140  1.0000
  C   C1400     1.0  0.73753  0.04101  0.18427  1.0000
  C   C1401     1.0  0.94038  0.22153  0.01817  1.0000
  H   H2379     1.0  0.95353  0.21303  0.31130  1.0000
  H   H2380     1.0  0.73488  0.19332  0.45264  1.0000
  H   H2381     1.0  0.74980  0.06995  0.26296  1.0000
  H   H2382     1.0  0.74267  0.07208  0.19595  1.0000
  H   H2383     1.0  0.69289  0.14151  0.35795  1.0000
  C   C1402     1.0  0.66555  0.10352  0.16857  1.0000
  C   C1403     1.0  0.78305  0.11991  0.03459  1.0000
  C   C1404     1.0  0.74702  0.03937  0.21295  1.0000
  H   H2384     1.0  0.76997  0.13614  0.11427  1.0000
  H   H2385     1.0  0.77898  0.03274  0.01320  1.0000
  H   H2386     1.0  0.79257  0.15992  0.09395  1.0000
  H   H2387     1.0  0.96988  0.23238  0.99667  1.0000
  H   H2388     1.0  0.96545  0.24000  0.06111  1.0000
  C   C1405     1.0  0.73031  0.19206  0.18870  1.0000
  H   H2389     1.0  0.74373  0.19866  0.18463  1.0000
  C   C1406     1.0  0.65245  0.10544  0.18278  1.0000
  N   N101      1.0  0.78022  0.14656  0.05254  1.0000
  H   H2390     1.0  0.77802  0.16684  0.07692  1.0000
  H   H2391     1.0  0.76057  0.04589  0.44900  1.0000
  H   H2392     1.0  0.77835  0.06012  0.20768  1.0000
  C   C1407     1.0  0.97829  0.20606  0.01547  1.0000
  H   H2393     1.0  0.73840  0.01953  0.43335  1.0000
  H   H2394     1.0  0.75384  0.13201  0.04431  1.0000
  C   C1408     1.0  0.85320  0.07136  0.03938  1.0000
  H   H2395     1.0  0.77360  0.13611  0.99280  1.0000
  H   H2396     1.0  0.83344  0.01485  0.01617  1.0000
  H   H2397     1.0  0.69473  0.16712  0.18908  1.0000
  H   H2398     1.0  0.71827  0.17080  0.47063  1.0000
  C   C1409     1.0  0.93048  0.20629  0.99743  1.0000
  H   H2399     1.0  0.72668  0.04370  0.18959  1.0000
  N   N102      1.0  0.94821  0.23764  0.00285  1.0000
  H   H2400     1.0  0.79064  0.08003  0.24861  1.0000
  H   H2401     1.0  0.80424  0.04202  0.04591  1.0000
  S   S407      1.0  0.93595  0.24070  0.10298  1.0000
  H   H2402     1.0  0.72391  0.99261  0.99889  1.0000
  H   H2403     1.0  0.98108  0.23289  0.42721  1.0000
  C   C1410     1.0  0.81835  0.02095  0.07051  1.0000
  H   H2404     1.0  0.84604  0.07902  0.04209  1.0000
  C   C1411     1.0  0.76390  0.05037  0.25952  1.0000
  N   N103      1.0  0.97507  0.22527  0.38028  1.0000
  H   H2405     1.0  0.73248  0.05259  0.24734  1.0000
  C   C1412     1.0  0.69202  0.15787  0.17047  1.0000
  H   H2406     1.0  0.84330  0.03358  0.05619  1.0000
  H   H2407     1.0  0.72488  0.20415  0.43198  1.0000
  H   H2408     1.0  0.74972  0.19886  0.00559  1.0000
  C   C1413     1.0  0.71939  0.19124  0.16024  1.0000
  H   H2409     1.0  0.78344  0.17363  0.01759  1.0000
  C   C1414     1.0  0.76700  0.14585  0.10347  1.0000
  H   H2410     1.0  0.95253  0.20611  0.36026  1.0000
  C   C1415     1.0  0.73096  0.17810  0.12339  1.0000
  H   H2411     1.0  0.90314  0.21521  0.08799  1.0000
  H   H2412     1.0  0.72804  0.17992  0.19782  1.0000
  C   C1416     1.0  0.78019  0.15558  0.08147  1.0000
  H   H2413     1.0  0.82140  0.05992  0.05901  1.0000
  H   H2414     1.0  0.72883  0.01703  0.46803  1.0000
  H   H2415     1.0  0.72747  0.17139  0.10121  1.0000
  C   C1417     1.0  0.70758  0.16050  0.15307  1.0000
  H   H2416     1.0  0.75850  0.03645  0.30015  1.0000
  H   H2417     1.0  0.75429  0.14040  0.09259  1.0000
  H   H2418     1.0  0.76694  0.15438  0.12180  1.0000
  C   C1418     1.0  0.76243  0.00617  0.22347  1.0000
  H   H2419     1.0  0.73251  0.02905  0.17140  1.0000
  C   C1419     1.0  0.73619  0.02644  0.45240  1.0000
  C   C1420     1.0  0.74093  0.07397  0.21979  1.0000
  H   H2420     1.0  0.74347  0.20340  0.41966  1.0000
  H   H2421     1.0  0.74812  0.02438  0.26758  1.0000
  H   H2422     1.0  0.69887  0.16634  0.09940  1.0000
  C   C1421     1.0  0.98038  0.22662  0.22148  1.0000
  N   N104      1.0  0.82786  0.04345  0.03111  1.0000
  H   H2423     1.0  0.97775  0.20177  0.33538  1.0000
  H   H2424     1.0  0.73655  0.15747  0.13909  1.0000
  H   H2425     1.0  0.95143  0.22547  0.36555  1.0000
  H   H2426     1.0  0.75957  0.03020  0.47392  1.0000
  H   H2427     1.0  0.80525  0.18052  0.01259  1.0000
  C   C1422     1.0  0.70319  0.17752  0.11447  1.0000
  H   H2428     1.0  0.72019  0.19288  0.08122  1.0000
  C   C1423     1.0  0.98195  0.21170  0.21754  1.0000
  H   H2429     1.0  0.72772  0.07212  0.22109  1.0000
  H   H2430     1.0  0.74297  0.17162  0.46650  1.0000
  C   C1424     1.0  0.74240  0.17114  0.13967  1.0000
  H   H2431     1.0  0.95004  0.21868  0.03068  1.0000
  H   H2432     1.0  0.77529  0.08869  0.24356  1.0000
  C   C1425     1.0  0.77045  0.06646  0.21495  1.0000
  C   C1426     1.0  0.81914  0.03011  0.00733  1.0000
  H   H2433     1.0  0.77096  0.11425  0.02141  1.0000
  H   H2434     1.0  0.68150  0.15771  0.15566  1.0000
  H   H2435     1.0  0.70408  0.15024  0.13591  1.0000
  H   H2436     1.0  0.69933  0.19107  0.07704  1.0000
  H   H2437     1.0  0.69868  0.18317  0.44632  1.0000
  S   S408      1.0  0.72521  0.14278  0.00354  1.0000
  C   C1427     1.0  0.77447  0.01983  0.00687  1.0000
  H   H2438     1.0  0.93199  0.22229  0.03548  1.0000
  H   H2439     1.0  0.71631  0.15824  0.16912  1.0000
  H   H2440     1.0  0.85260  0.05014  0.01548  1.0000
  C   C1428     1.0  0.82897  0.02016  0.99726  1.0000
  H   H2441     1.0  0.73742  0.02985  0.22562  1.0000
  H   H2442     1.0  0.77022  0.06127  0.27505  1.0000
  C   C1429     1.0  0.74462  0.06243  0.24183  1.0000
  H   H2443     1.0  0.67189  0.09545  0.40687  1.0000
  H   H2444     1.0  0.79853  0.18299  0.04855  1.0000
  H   H2445     1.0  0.70781  0.19222  0.16715  1.0000
  H   H2446     1.0  0.70303  0.15121  0.46155  1.0000
  C   C1430     1.0  0.65366  0.10283  0.38524  1.0000
  C   C1431     1.0  0.70949  0.19240  0.09398  1.0000
  C   C1432     1.0  0.75190  0.03675  0.27853  1.0000
  C   C1433     1.0  0.88891  0.22761  0.06764  1.0000
  H   H2447     1.0  0.92610  0.19515  0.01106  1.0000
  H   H2448     1.0  0.77656  0.06777  0.48287  1.0000
  H   H2449     1.0  0.87762  0.21647  0.06465  1.0000
  H   H2450     1.0  0.82239  0.01820  0.09290  1.0000
  H   H2451     1.0  0.66331  0.13350  0.45366  1.0000
  H   H2452     1.0  0.77154  0.12284  0.07324  1.0000
  H   H2453     1.0  0.95354  0.21468  0.44643  1.0000
  C   C1434     1.0  0.95806  0.21129  0.42563  1.0000
  H   H2454     1.0  0.72881  0.03303  0.44318  1.0000
  Fe  Fe204     1.0  0.69854  0.13991  0.99778  1.0000
  H   H2455     1.0  0.96047  0.23437  0.31943  1.0000
  H   H2456     1.0  0.79337  0.12629  0.01996  1.0000
  C   C1435     1.0  0.74310  0.05893  0.48247  1.0000
  H   H2457     1.0  0.74618  0.06295  0.45920  1.0000
  H   H2458     1.0  0.96362  0.23573  0.41184  1.0000
  C   C1436     1.0  0.79515  0.15764  0.03642  1.0000
  C   C1437     1.0  0.81202  0.06114  0.01417  1.0000
  C   C1438     1.0  0.96996  0.22715  0.41144  1.0000
  C   C1439     1.0  0.95987  0.21961  0.35886  1.0000
  H   H2459     1.0  0.67078  0.09538  0.17781  1.0000
  H   H2460     1.0  0.97554  0.17615  0.08495  1.0000
  C   C1440     1.0  0.91789  0.24119  0.08525  1.0000
  H   H2461     1.0  0.75169  0.12840  0.99397  1.0000
  C   C1441     1.0  0.75677  0.99308  0.27226  1.0000
  H   H2462     1.0  0.98495  0.19764  0.48139  1.0000
  H   H2463     1.0  0.66358  0.06027  0.17747  1.0000
  H   H2464     1.0  0.65906  0.04949  0.21201  1.0000
  H   H2465     1.0  0.71182  0.01113  0.00082  1.0000
  H   H2466     1.0  0.84110  0.05987  0.99676  1.0000
  C   C1442     1.0  0.65377  0.05437  0.19346  1.0000
  C   C1443     1.0  0.92003  0.24036  0.99821  1.0000
  C   C1444     1.0  0.65240  0.12467  0.14457  1.0000
  Fe  Fe205     1.0  0.93109  0.21309  0.61062  1.0000
  S   S409      1.0  0.92557  0.19495  0.57181  1.0000
  H   H2467     1.0  0.77641  0.04458  0.53392  1.0000
  Fe  Fe206     1.0  0.95593  0.20213  0.64264  1.0000
  S   S410      1.0  0.95174  0.18293  0.60582  1.0000
  H   H2468     1.0  0.95708  0.15268  0.64211  1.0000
  Fe  Fe207     1.0  0.95340  0.20246  0.57303  1.0000
  H   H2469     1.0  0.89723  0.20996  0.55067  1.0000
  Fe  Fe208     1.0  0.92422  0.17662  0.60688  1.0000
  S   S411      1.0  0.90509  0.14957  0.59975  1.0000
  S   S412      1.0  0.95906  0.22208  0.60974  1.0000
  S   S413      1.0  0.92829  0.19436  0.64593  1.0000
  Fe  Fe209     1.0  0.70046  0.13710  0.57269  1.0000
  S   S414      1.0  0.70053  0.11532  0.54610  1.0000
  S   S415      1.0  0.68931  0.13738  0.61822  1.0000
  Fe  Fe210     1.0  0.72492  0.16247  0.53152  1.0000
  C   C1445     1.0  0.65918  0.12388  0.87503  1.0000
  S   S416      1.0  0.73870  0.18973  0.52020  1.0000
  H   H2470     1.0  0.82931  0.17453  0.58018  1.0000
  S   S417      1.0  0.68783  0.14379  0.95210  1.0000
  Fe  Fe211     1.0  0.72812  0.13014  0.54498  1.0000
  S   S418      1.0  0.74997  0.12286  0.54931  1.0000
  S   S419      1.0  0.69673  0.15019  0.53165  1.0000
  S   S420      1.0  0.72843  0.15107  0.57410  1.0000
  Fe  Fe212     1.0  0.81251  0.07353  0.63159  1.0000
  S   S421      1.0  0.79199  0.06637  0.66418  1.0000
  S   S422      1.0  0.83350  0.09955  0.64127  1.0000
  Fe  Fe213     1.0  0.79384  0.04066  0.59486  1.0000
  S   S423      1.0  0.77233  0.03160  0.62478  1.0000
  S   S424      1.0  0.79685  0.02561  0.55517  1.0000
  Fe  Fe214     1.0  0.77431  0.05768  0.62360  1.0000
  S   S425      1.0  0.75042  0.06162  0.61905  1.0000
  Fe  Fe215     1.0  0.79154  0.04083  0.66342  1.0000
  S   S426      1.0  0.79296  0.02773  0.70706  1.0000
  S   S427      1.0  0.79448  0.06621  0.59090  1.0000
  S   S428      1.0  0.81333  0.04850  0.63353  1.0000
  C   C1446     1.0  0.78133  0.01323  0.52757  1.0000
  H   H2471     1.0  0.88212  0.17876  0.63644  1.0000
  H   H2472     1.0  0.84020  0.02466  0.64603  1.0000
  C   C1447     1.0  0.76437  0.00868  0.53117  1.0000
  H   H2473     1.0  0.79925  0.01135  0.49814  1.0000
  C   C1448     1.0  0.74391  0.03792  0.51766  1.0000
  H   H2474     1.0  0.76041  0.01233  0.55155  1.0000
  C   C1449     1.0  0.77910  0.01185  0.72924  1.0000
  C   C1450     1.0  0.78482  0.00947  0.75802  1.0000
  H   H2475     1.0  0.88109  0.20517  0.59389  1.0000
  H   H2476     1.0  0.86279  0.14980  0.53830  1.0000
  H   H2477     1.0  0.79707  0.01781  0.76678  1.0000
  C   C1451     1.0  0.67059  0.13480  0.89695  1.0000
  C   C1452     1.0  0.67382  0.12236  0.63900  1.0000
  H   H2478     1.0  0.81611  0.03531  0.98662  1.0000
  H   H2479     1.0  0.96082  0.21886  0.72257  1.0000
  S   S429      1.0  0.97566  0.20375  0.67988  1.0000
  H   H2480     1.0  0.91367  0.10895  0.69744  1.0000
  C   C1453     1.0  0.67349  0.12932  0.92516  1.0000
  H   H2481     1.0  0.79223  0.22232  0.60842  1.0000
  Fe  Fe216     1.0  0.69834  0.12915  0.50495  1.0000
  H   H2482     1.0  0.85472  0.13741  0.56945  1.0000
  H   H2483     1.0  0.75853  0.00240  0.69637  1.0000
  H   H2484     1.0  0.86498  0.18509  0.63505  1.0000
  C   C1454     1.0  0.75028  0.07808  0.59786  1.0000
  C   C1455     1.0  0.73507  0.07908  0.59022  1.0000
  C   C1456     1.0  0.73470  0.09256  0.57464  1.0000
  C   C1457     1.0  0.74957  0.10511  0.56676  1.0000
  C   C1458     1.0  0.76471  0.10382  0.57360  1.0000
  C   C1459     1.0  0.76508  0.09037  0.58913  1.0000
  H   H2485     1.0  0.72357  0.06948  0.59666  1.0000
  H   H2486     1.0  0.72296  0.09334  0.56901  1.0000
  H   H2487     1.0  0.77625  0.11348  0.56746  1.0000
  H   H2488     1.0  0.77686  0.08973  0.59500  1.0000
  C   C1460     1.0  0.79522  0.22347  0.52869  1.0000
  H   H2489     1.0  0.67943  0.13854  0.67818  1.0000
  C   C1461     1.0  0.77044  0.06039  0.50218  1.0000
  C   C1462     1.0  0.76057  0.20239  0.52364  1.0000
  C   C1463     1.0  0.77212  0.19667  0.53563  1.0000
  C   C1464     1.0  0.78927  0.20715  0.53817  1.0000
  C   C1465     1.0  0.75248  0.99960  0.50817  1.0000
  S   S430      1.0  0.96641  0.20171  0.52972  1.0000
  H   H2490     1.0  0.76786  0.18418  0.54303  1.0000
  H   H2491     1.0  0.84136  0.16757  0.60381  1.0000
  C   C1466     1.0  0.88519  0.13588  0.61174  1.0000
  C   C1467     1.0  0.87720  0.14021  0.63458  1.0000
  C   C1468     1.0  0.86147  0.12895  0.64317  1.0000
  C   C1469     1.0  0.85342  0.11316  0.62917  1.0000
  C   C1470     1.0  0.86142  0.10883  0.60635  1.0000
  C   C1471     1.0  0.87717  0.12008  0.59781  1.0000
  H   H2492     1.0  0.88311  0.15221  0.64567  1.0000
  H   H2493     1.0  0.85548  0.13248  0.66089  1.0000
  H   H2494     1.0  0.85549  0.09678  0.59530  1.0000
  H   H2495     1.0  0.88317  0.11651  0.58013  1.0000
  H   H2496     1.0  0.88572  0.19961  0.64443  1.0000
  H   H2497     1.0  0.73941  0.99642  0.51103  1.0000
  C   C1472     1.0  0.72875  0.00277  0.91250  1.0000
  C   C1473     1.0  0.87809  0.18861  0.62991  1.0000
  H   H2498     1.0  0.73046  0.03095  0.51113  1.0000
  H   H2499     1.0  0.66516  0.10329  0.60432  1.0000
  H   H2500     1.0  0.79802  0.20254  0.54760  1.0000
  C   C1474     1.0  0.84202  0.17828  0.59089  1.0000
  H   H2501     1.0  0.89144  0.24156  0.61674  1.0000
  C   C1475     1.0  0.76649  0.21873  0.51417  1.0000
  H   H2502     1.0  0.78404  0.23231  0.58241  1.0000
  H   H2503     1.0  0.84459  0.18901  0.60641  1.0000
  H   H2504     1.0  0.72714  0.00528  0.88857  1.0000
  H   H2505     1.0  0.78160  0.23417  0.62212  1.0000
  C   C1476     1.0  0.65927  0.11515  0.68579  1.0000
  C   C1477     1.0  0.79199  0.00045  0.62045  1.0000
  N   N105      1.0  0.93229  0.14501  0.68872  1.0000
  C   C1478     1.0  0.93626  0.13461  0.66587  1.0000
  C   C1479     1.0  0.92604  0.13455  0.71543  1.0000
  C   C1480     1.0  0.94831  0.15959  0.69770  1.0000
  C   C1481     1.0  0.91958  0.15049  0.67457  1.0000
  N   N106      1.0  0.79973  0.99345  0.64425  1.0000
  C   C1482     1.0  0.91049  0.11833  0.70901  1.0000
  C   C1483     1.0  0.94774  0.17134  0.72284  1.0000
  C   C1484     1.0  0.90913  0.15576  0.69595  1.0000
  H   H2506     1.0  0.94475  0.12938  0.67614  1.0000
  H   H2507     1.0  0.92478  0.12390  0.65758  1.0000
  H   H2508     1.0  0.92292  0.14121  0.73356  1.0000
  H   H2509     1.0  0.93604  0.13130  0.72577  1.0000
  H   H2510     1.0  0.95821  0.15536  0.70473  1.0000
  H   H2511     1.0  0.95307  0.16757  0.67836  1.0000
  H   H2512     1.0  0.92564  0.16080  0.65947  1.0000
  H   H2513     1.0  0.91040  0.14031  0.65994  1.0000
  H   H2514     1.0  0.77128  0.06969  0.51970  1.0000
  H   H2515     1.0  0.74441  0.07277  0.52512  1.0000
  H   H2516     1.0  0.73153  0.02394  0.98612  1.0000
  C   C1485     1.0  0.71976  0.01284  0.98147  1.0000
  H   H2517     1.0  0.93648  0.14876  0.62564  1.0000
  C   C1486     1.0  0.96163  0.23694  0.98380  1.0000
  H   H2518     1.0  0.75772  0.22333  0.50484  1.0000
  H   H2519     1.0  0.65774  0.11856  0.70841  1.0000
  H   H2520     1.0  0.78797  0.24168  0.50912  1.0000
  H   H2521     1.0  0.90703  0.16623  0.68626  1.0000
  H   H2522     1.0  0.91475  0.15989  0.71877  1.0000
  H   H2523     1.0  0.89652  0.14574  0.69724  1.0000
  N   N107      1.0  0.73387  0.11390  0.65577  1.0000
  C   C1487     1.0  0.73726  0.12583  0.63068  1.0000
  C   C1488     1.0  0.71722  0.09990  0.64809  1.0000
  C   C1489     1.0  0.74746  0.10760  0.65736  1.0000
  C   C1490     1.0  0.73397  0.12317  0.68435  1.0000
  C   C1491     1.0  0.75519  0.13927  0.63037  1.0000
  C   C1492     1.0  0.70228  0.10468  0.64426  1.0000
  C   C1493     1.0  0.72927  0.11324  0.71296  1.0000
  H   H2524     1.0  0.78389  0.04423  0.49689  1.0000
  H   H2525     1.0  0.72888  0.13243  0.63101  1.0000
  H   H2526     1.0  0.71392  0.09025  0.66490  1.0000
  H   H2527     1.0  0.75898  0.11677  0.66924  1.0000
  H   H2528     1.0  0.74658  0.13299  0.68979  1.0000
  H   H2529     1.0  0.72604  0.13020  0.68176  1.0000
  H   H2530     1.0  0.76439  0.13399  0.62612  1.0000
  H   H2531     1.0  0.93826  0.20425  0.98041  1.0000
  H   H2532     1.0  0.96068  0.18020  0.72913  1.0000
  H   H2533     1.0  0.69066  0.09331  0.64070  1.0000
  H   H2534     1.0  0.70082  0.11133  0.66434  1.0000
  H   H2535     1.0  0.70310  0.11205  0.62415  1.0000
  H   H2536     1.0  0.73940  0.09052  0.69493  1.0000
  H   H2537     1.0  0.74039  0.11249  0.72444  1.0000
  H   H2538     1.0  0.71936  0.10075  0.70918  1.0000
  H   H2539     1.0  0.72403  0.11951  0.72853  1.0000
  C   C1494     1.0  0.88151  0.19293  0.59694  1.0000
  H   H2540     1.0  0.65668  0.04729  0.70101  1.0000
  H   H2541     1.0  0.65309  0.04566  0.66140  1.0000
  C   C1495     1.0  0.98174  0.21642  0.50807  1.0000
  C   C1496     1.0  0.85665  0.14940  0.55954  1.0000
  H   H2542     1.0  0.89476  0.19497  0.59501  1.0000
  C   C1497     1.0  0.66363  0.10667  0.62697  1.0000
  S   S431      1.0  0.76764  0.99247  0.92941  1.0000
  C   C1498     1.0  0.79017  0.23372  0.60506  1.0000
  H   H2543     1.0  0.97130  0.19108  0.97462  1.0000
  C   C1499     1.0  0.78159  0.05196  0.51424  1.0000
  C   C1500     1.0  0.77495  0.99632  0.77554  1.0000
  S   S432      1.0  0.72613  0.14229  0.50241  1.0000
  H   H2544     1.0  0.86175  0.16034  0.60369  1.0000
  C   C1501     1.0  0.81550  0.00739  0.65656  1.0000
  H   H2545     1.0  0.73403  0.01481  0.92502  1.0000
  H   H2546     1.0  0.71769  0.09344  0.62687  1.0000
  H   H2547     1.0  0.87971  0.16232  0.58556  1.0000
  H   H2548     1.0  0.75505  0.08859  0.67329  1.0000
  C   C1502     1.0  0.74355  0.09092  0.67195  1.0000
  H   H2549     1.0  0.82064  0.00971  0.98221  1.0000
  C   C1503     1.0  0.98016  0.20241  0.98546  1.0000
  H   H2550     1.0  0.75111  0.10594  0.63444  1.0000
  C   C1504     1.0  0.97227  0.21909  0.73293  1.0000
  C   C1505     1.0  0.67160  0.12646  0.66857  1.0000
  H   H2551     1.0  0.79398  0.06155  0.52180  1.0000
  H   H2552     1.0  0.82518  0.02110  0.61580  1.0000
  H   H2553     1.0  0.85751  0.19587  0.56164  1.0000
  C   C1506     1.0  0.88730  0.20169  0.53454  1.0000
  C   C1507     1.0  0.85471  0.18280  0.56635  1.0000
  C   C1508     1.0  0.86759  0.16338  0.58193  1.0000
  H   H2554     1.0  0.73448  0.11917  0.60849  1.0000
  S   S433      1.0  0.91567  0.22783  0.61853  1.0000
  C   C1509     1.0  0.66471  0.11271  0.93124  1.0000
  H   H2555     1.0  0.73423  0.08058  0.65798  1.0000
  H   H2556     1.0  0.94514  0.13400  0.62147  1.0000
  C   C1510     1.0  0.78367  0.22920  0.51660  1.0000
  C   C1511     1.0  0.87998  0.18371  0.54466  1.0000
  H   H2557     1.0  0.75898  0.14712  0.65116  1.0000
  N   N108      1.0  0.87061  0.18060  0.57301  1.0000
  H   H2558     1.0  0.73366  0.04912  0.55096  1.0000
  H   H2559     1.0  0.95614  0.22789  0.96469  1.0000
  C   C1512     1.0  0.65317  0.10183  0.90946  1.0000
  H   H2560     1.0  0.75583  0.14746  0.61155  1.0000
  C   C1513     1.0  0.94422  0.14326  0.63740  1.0000
  H   H2561     1.0  0.66673  0.10827  0.95278  1.0000
  C   C1514     1.0  0.77387  0.01481  0.97658  1.0000
  H   H2562     1.0  0.70356  0.99809  0.92242  1.0000
  H   H2563     1.0  0.73786  0.99713  0.91391  1.0000
  H   H2564     1.0  0.75612  0.05678  0.55447  1.0000
  H   H2565     1.0  0.89057  0.17989  0.54699  1.0000
  H   H2566     1.0  0.94103  0.17886  0.71487  1.0000
  H   H2567     1.0  0.78130  0.99563  0.67229  1.0000
  C   C1515     1.0  0.78617  0.00801  0.50114  1.0000
  H   H2568     1.0  0.81258  0.01752  0.66601  1.0000
  H   H2569     1.0  0.96949  0.22962  0.77514  1.0000
  H   H2570     1.0  0.90048  0.12015  0.69566  1.0000
  H   H2571     1.0  0.73702  0.00195  0.97039  1.0000
  H   H2572     1.0  0.80230  0.99733  0.71092  1.0000
  H   H2573     1.0  0.74409  0.03702  0.56617  1.0000
  C   C1516     1.0  0.98192  0.21295  0.71681  1.0000
  C   C1517     1.0  0.76753  0.99802  0.96775  1.0000
  C   C1518     1.0  0.76321  0.00084  0.71835  1.0000
  C   C1519     1.0  0.91072  0.23951  0.59118  1.0000
  H   H2574     1.0  0.90533  0.11311  0.73057  1.0000
  C   C1520     1.0  0.74450  0.04589  0.54868  1.0000
  H   H2575     1.0  0.77824  0.02400  0.95979  1.0000
  H   H2576     1.0  0.94273  0.16515  0.74366  1.0000
  H   H2577     1.0  0.67731  0.14760  0.89196  1.0000
  H   H2578     1.0  0.79138  0.01198  0.62909  1.0000
  H   H2579     1.0  0.71342  0.01562  0.96176  1.0000
  C   C1521     1.0  0.74590  0.07476  0.50095  1.0000
  H   H2580     1.0  0.79974  0.00396  0.60067  1.0000
  H   H2581     1.0  0.87769  0.20661  0.53067  1.0000
  H   H2582     1.0  0.65722  0.12832  0.85347  1.0000
  C   C1522     1.0  0.97723  0.22519  0.76282  1.0000
  S   S434      1.0  0.81703  0.23615  0.53368  1.0000
  H   H2583     1.0  0.77968  0.99467  0.79743  1.0000
  C   C1523     1.0  0.82913  0.01496  0.63409  1.0000
  H   H2584     1.0  0.83964  0.02771  0.98412  1.0000
  H   H2585     1.0  0.82146  0.00375  0.67579  1.0000
  H   H2586     1.0  0.74843  0.02810  0.52085  1.0000
  H   H2587     1.0  0.98158  0.23803  0.53002  1.0000
  N   N109      1.0  0.75266  0.04904  0.49312  1.0000
  H   H2588     1.0  0.84808  0.17609  0.54518  1.0000
  H   H2589     1.0  0.89325  0.20218  0.51299  1.0000
  H   H2590     1.0  0.87189  0.17615  0.52540  1.0000
  H   H2591     1.0  0.73659  0.07952  0.49306  1.0000
  H   H2592     1.0  0.84417  0.14941  0.55504  1.0000
  H   H2593     1.0  0.83322  0.00572  0.62456  1.0000
  C   C1524     1.0  0.72383  0.99768  0.97636  1.0000
  H   H2594     1.0  0.93120  0.23175  0.96345  1.0000
  H   H2595     1.0  0.75834  0.08467  0.49766  1.0000
  H   H2596     1.0  0.77031  0.99575  0.59052  1.0000
  H   H2597     1.0  0.92904  0.23983  0.56067  1.0000
  H   H2598     1.0  0.76919  0.22494  0.98468  1.0000
  H   H2599     1.0  0.91924  0.20694  0.98641  1.0000
  C   C1525     1.0  0.93555  0.24071  0.98293  1.0000
  H   H2600     1.0  0.76304  0.14961  0.98808  1.0000
  Fe  Fe217     1.0  0.93608  0.38980  0.28270  1.0000
  S   S435      1.0  0.92332  0.39136  0.23923  1.0000
  S   S436      1.0  0.96401  0.40256  0.29359  1.0000
  Fe  Fe218     1.0  0.90284  0.37065  0.31220  1.0000
  S   S437      1.0  0.88775  0.37122  0.26996  1.0000
  S   S438      1.0  0.89390  0.36355  0.35988  1.0000
  Fe  Fe219     1.0  0.90626  0.36480  0.24495  1.0000
  S   S439      1.0  0.90407  0.34740  0.20473  1.0000
  Fe  Fe220     1.0  0.90612  0.39783  0.26713  1.0000
  S   S440      1.0  0.89971  0.41914  0.25149  1.0000
  S   S441      1.0  0.92036  0.36283  0.28744  1.0000
  S   S442      1.0  0.91979  0.39772  0.31043  1.0000
  C   C1526     1.0  0.90352  0.25696  0.06249  1.0000
  S   S443      1.0  0.84110  0.29295  0.01529  1.0000
  S   S444      1.0  0.85791  0.29904  0.43633  1.0000
  Fe  Fe221     1.0  0.86361  0.26440  0.03334  1.0000
  S   S445      1.0  0.84206  0.26397  0.05860  1.0000
  Fe  Fe222     1.0  0.85666  0.29158  0.48577  1.0000
  Fe  Fe223     1.0  0.83007  0.26499  0.01414  1.0000
  C   C1527     1.0  0.86087  0.41199  0.39464  1.0000
  Fe  Fe224     1.0  0.85437  0.29161  0.05904  1.0000
  S   S446      1.0  0.85066  0.30388  0.10198  1.0000
  H   H2601     1.0  0.87956  0.39137  0.33146  1.0000
  S   S447      1.0  0.87717  0.29202  0.03732  1.0000
  H   H2602     1.0  0.96051  0.40146  0.22829  1.0000
  H   H2603     1.0  0.79344  0.30585  0.08331  1.0000
  H   H2604     1.0  0.94307  0.46076  0.26817  1.0000
  H   H2605     1.0  0.95173  0.42910  0.31016  1.0000
  C   C1528     1.0  0.90577  0.43945  0.26699  1.0000
  C   C1529     1.0  0.90133  0.45074  0.25109  1.0000
  C   C1530     1.0  0.90501  0.46667  0.26323  1.0000
  C   C1531     1.0  0.91294  0.47144  0.29177  1.0000
  C   C1532     1.0  0.91767  0.46025  0.30745  1.0000
  C   C1533     1.0  0.91430  0.44444  0.29502  1.0000
  H   H2606     1.0  0.89475  0.44705  0.22936  1.0000
  H   H2607     1.0  0.90121  0.47507  0.25093  1.0000
  H   H2608     1.0  0.92392  0.46384  0.32945  1.0000
  H   H2609     1.0  0.91813  0.43606  0.30723  1.0000
  C   C1534     1.0  0.88890  0.33723  0.17507  1.0000
  C   C1535     1.0  0.87179  0.33160  0.17856  1.0000
  C   C1536     1.0  0.86027  0.32175  0.15567  1.0000
  C   C1537     1.0  0.86569  0.31747  0.12896  1.0000
  C   C1538     1.0  0.88278  0.32353  0.12507  1.0000
  C   C1539     1.0  0.89428  0.33325  0.14807  1.0000
  H   H2610     1.0  0.86743  0.33443  0.19925  1.0000
  H   H2611     1.0  0.84708  0.31720  0.15893  1.0000
  H   H2612     1.0  0.88716  0.32054  0.10456  1.0000
  H   H2613     1.0  0.90749  0.33761  0.14506  1.0000
  C   C1540     1.0  0.88446  0.34528  0.38063  1.0000
  C   C1541     1.0  0.87620  0.32961  0.36683  1.0000
  C   C1542     1.0  0.86815  0.31572  0.38423  1.0000
  C   C1543     1.0  0.86844  0.31715  0.41573  1.0000
  C   C1544     1.0  0.87701  0.33276  0.42959  1.0000
  C   C1545     1.0  0.88479  0.34669  0.41214  1.0000
  H   H2614     1.0  0.87569  0.32824  0.34269  1.0000
  H   H2615     1.0  0.86156  0.30377  0.37314  1.0000
  H   H2616     1.0  0.87737  0.33417  0.45371  1.0000
  H   H2617     1.0  0.89107  0.35871  0.42318  1.0000
  H   H2618     1.0  0.91041  0.41266  0.39574  1.0000
  C   C1546     1.0  0.95422  0.47817  0.23543  1.0000
  C   C1547     1.0  0.97321  0.40943  0.23527  1.0000
  H   H2619     1.0  0.79116  0.28839  0.00759  1.0000
  N   N110      1.0  0.89258  0.28195  0.14735  1.0000
  C   C1548     1.0  0.88245  0.28762  0.16748  1.0000
  C   C1549     1.0  0.88146  0.27322  0.12021  1.0000
  C   C1550     1.0  0.90728  0.29705  0.13827  1.0000
  C   C1551     1.0  0.89839  0.27074  0.16494  1.0000
  C   C1552     1.0  0.89205  0.29861  0.19511  1.0000
  C   C1553     1.0  0.89439  0.41996  0.36643  1.0000
  C   C1554     1.0  0.91828  0.29018  0.44540  1.0000
  H   H2620     1.0  0.96490  0.47153  0.27452  1.0000
  H   H2621     1.0  0.87644  0.29454  0.15458  1.0000
  H   H2622     1.0  0.87204  0.27698  0.17639  1.0000
  H   H2623     1.0  0.88819  0.26902  0.10398  1.0000
  H   H2624     1.0  0.87741  0.28188  0.10782  1.0000
  H   H2625     1.0  0.90411  0.30792  0.13761  1.0000
  H   H2626     1.0  0.91795  0.30052  0.15519  1.0000
  H   H2627     1.0  0.90758  0.27775  0.18339  1.0000
  H   H2628     1.0  0.90987  0.25328  0.16269  1.0000
  H   H2629     1.0  0.89664  0.29185  0.21123  1.0000
  H   H2630     1.0  0.90255  0.31004  0.18907  1.0000
  H   H2631     1.0  0.88345  0.30262  0.20704  1.0000
  H   H2632     1.0  0.95433  0.48881  0.24900  1.0000
  C   C1555     1.0  0.95497  0.46501  0.25676  1.0000
  H   H2633     1.0  0.75376  0.25475  0.09212  1.0000
  C   C1556     1.0  0.91402  0.29648  0.10723  1.0000
  H   H2634     1.0  0.92590  0.31054  0.39698  1.0000
  C   C1557     1.0  0.90661  0.26134  0.14730  1.0000
  H   H2635     1.0  0.80695  0.26055  0.06347  1.0000
  C   C1558     1.0  0.94979  0.43089  0.19638  1.0000
  H   H2636     1.0  0.80667  0.28193  0.02130  1.0000
  N   N111      1.0  0.87808  0.41388  0.34803  1.0000
  H   H2637     1.0  0.79921  0.30439  0.12198  1.0000
  H   H2638     1.0  0.87558  0.44254  0.37547  1.0000
  H   H2639     1.0  0.90365  0.26854  0.05515  1.0000
  H   H2640     1.0  0.94994  0.45483  0.19801  1.0000
  H   H2641     1.0  0.90996  0.28050  0.45980  1.0000
  H   H2642     1.0  0.82546  0.26942  0.10976  1.0000
  H   H2643     1.0  0.92994  0.27384  0.43303  1.0000
  H   H2644     1.0  0.92932  0.26732  0.07892  1.0000
  H   H2645     1.0  0.97142  0.44289  0.29877  1.0000
  H   H2646     1.0  0.93693  0.43193  0.26501  1.0000
  H   H2647     1.0  0.90554  0.32345  0.39127  1.0000
  H   H2648     1.0  0.94233  0.47341  0.22148  1.0000
  H   H2649     1.0  0.86832  0.24878  0.13945  1.0000
  H   H2650     1.0  0.85333  0.41916  0.38957  1.0000
  H   H2651     1.0  0.80292  0.29767  0.04161  1.0000
  H   H2652     1.0  0.95954  0.26359  0.01634  1.0000
  H   H2653     1.0  0.81512  0.28180  0.07128  1.0000
  C   C1559     1.0  0.87915  0.40289  0.32283  1.0000
  H   H2654     1.0  0.85167  0.40011  0.35200  1.0000
  H   H2655     1.0  0.92561  0.30772  0.10506  1.0000
  H   H2656     1.0  0.90092  0.39848  0.36514  1.0000
  H   H2657     1.0  0.93374  0.44046  0.21748  1.0000
  H   H2658     1.0  0.89512  0.42893  0.38446  1.0000
  H   H2659     1.0  0.96487  0.48289  0.22099  1.0000
  C   C1560     1.0  0.95071  0.43647  0.26431  1.0000
  H   H2660     1.0  0.85633  0.26133  0.13721  1.0000
  C   C1561     1.0  0.75804  0.24700  0.07816  1.0000
  H   H2661     1.0  0.97679  0.46639  0.19643  1.0000
  H   H2662     1.0  0.78562  0.27628  0.12205  1.0000
  H   H2663     1.0  0.85964  0.25162  0.10452  1.0000
  C   C1562     1.0  0.88110  0.44429  0.35344  1.0000
  H   H2664     1.0  0.86216  0.42455  0.32706  1.0000
  H   H2665     1.0  0.86719  0.38960  0.28109  1.0000
  H   H2666     1.0  0.89487  0.45044  0.35652  1.0000
  C   C1563     1.0  0.89865  0.40662  0.38169  1.0000
  H   H2667     1.0  0.85261  0.38984  0.30714  1.0000
  H   H2668     1.0  0.87717  0.45306  0.34131  1.0000
  C   C1564     1.0  0.86482  0.39740  0.29828  1.0000
  H   H2669     1.0  0.90486  0.42692  0.35223  1.0000
  C   C1565     1.0  0.86351  0.40379  0.36588  1.0000
  H   H2670     1.0  0.86415  0.40794  0.28622  1.0000
  C   C1566     1.0  0.95526  0.25132  0.02652  1.0000
  C   C1567     1.0  0.94730  0.44475  0.21384  1.0000
  H   H2671     1.0  0.81208  0.27692  0.12707  1.0000
  C   C1568     1.0  0.97562  0.45454  0.24034  1.0000
  H   H2672     1.0  0.94597  0.41943  0.20881  1.0000
  H   H2673     1.0  0.98278  0.45962  0.26196  1.0000
  C   C1569     1.0  0.98466  0.41746  0.21373  1.0000
  N   N112      1.0  0.95739  0.45050  0.24322  1.0000
  N   N113      1.0  0.90985  0.30081  0.43359  1.0000
  H   H2674     1.0  0.90506  0.29655  0.08898  1.0000
  H   H2675     1.0  0.95300  0.42571  0.25645  1.0000
  C   C1570     1.0  0.95796  0.44022  0.29704  1.0000
  H   H2676     1.0  0.78033  0.26085  0.03022  1.0000
  H   H2677     1.0  0.89813  0.25312  0.12923  1.0000
  H   H2678     1.0  0.92563  0.32963  0.47276  1.0000
  C   C1571     1.0  0.92228  0.31500  0.41772  1.0000
  H   H2679     1.0  0.95564  0.45029  0.30802  1.0000
  H   H2680     1.0  0.97782  0.44325  0.23623  1.0000
  H   H2681     1.0  0.77882  0.24896  0.10718  1.0000
  C   C1572     1.0  0.92458  0.28171  0.42154  1.0000
  C   C1573     1.0  0.88267  0.27481  0.42230  1.0000
  H   H2682     1.0  0.89998  0.28865  0.39010  1.0000
  H   H2683     1.0  0.88804  0.26563  0.42598  1.0000
  H   H2684     1.0  0.88234  0.43181  0.31345  1.0000
  H   H2685     1.0  0.91715  0.28581  0.10364  1.0000
  C   C1574     1.0  0.97825  0.41172  0.26571  1.0000
  C   C1575     1.0  0.89548  0.29127  0.41160  1.0000
  H   H2686     1.0  0.91446  0.27356  0.40563  1.0000
  H   H2687     1.0  0.92935  0.29756  0.46040  1.0000
  N   N114      1.0  0.78834  0.26902  0.07653  1.0000
  H   H2688     1.0  0.97391  0.26185  0.06319  1.0000
  C   C1576     1.0  0.80586  0.26996  0.07888  1.0000
  C   C1577     1.0  0.78371  0.27211  0.04495  1.0000
  C   C1578     1.0  0.78577  0.28058  0.09877  1.0000
  H   H2689     1.0  0.87232  0.26947  0.40489  1.0000
  H   H2690     1.0  0.98061  0.41574  0.19024  1.0000
  C   C1579     1.0  0.79700  0.28595  0.02843  1.0000
  C   C1580     1.0  0.79801  0.29887  0.09906  1.0000
  H   H2691     1.0  0.96282  0.43469  0.19003  1.0000
  C   C1581     1.0  0.77690  0.25161  0.08344  1.0000
  S   S448      1.0  0.80238  0.24829  0.00260  1.0000
  C   C1582     1.0  0.91801  0.25623  0.07581  1.0000
  C   C1583     1.0  0.91656  0.31851  0.48281  1.0000
  H   H2692     1.0  0.77242  0.27482  0.04441  1.0000
  H   H2693     1.0  0.77317  0.28051  0.09487  1.0000
  H   H2694     1.0  0.80540  0.25502  0.11825  1.0000
  H   H2695     1.0  0.94545  0.25102  0.04159  1.0000
  H   H2696     1.0  0.86376  0.39174  0.37164  1.0000
  H   H2697     1.0  0.89094  0.40909  0.31134  1.0000
  H   H2698     1.0  0.88895  0.39913  0.39668  1.0000
  H   H2699     1.0  0.88831  0.29868  0.40554  1.0000
  H   H2700     1.0  0.93466  0.29079  0.40908  1.0000
  S   S449      1.0  0.87008  0.24277  0.04367  1.0000
  H   H2701     1.0  0.87707  0.27656  0.44293  1.0000
  H   H2702     1.0  0.89513  0.29623  0.47251  1.0000
  C   C1584     1.0  0.88886  0.24265  0.05882  1.0000
  H   H2703     1.0  0.81089  0.30093  0.09418  1.0000
  H   H2704     1.0  0.91841  0.26975  0.13823  1.0000
  H   H2705     1.0  0.85416  0.40225  0.41035  1.0000
  C   C1585     1.0  0.91634  0.32839  0.40779  1.0000
  C   C1586     1.0  0.87549  0.42817  0.33428  1.0000
  H   H2706     1.0  0.94181  0.42781  0.17527  1.0000
  H   H2707     1.0  0.87254  0.41991  0.40731  1.0000
  H   H2708     1.0  0.88785  0.26136  0.17619  1.0000
  C   C1587     1.0  0.90329  0.30680  0.45968  1.0000
  C   C1588     1.0  0.81226  0.26762  0.11045  1.0000
  C   C1589     1.0  0.86560  0.25792  0.12628  1.0000
  H   H2709     1.0  0.92651  0.33814  0.39652  1.0000
  H   H2710     1.0  0.91323  0.33450  0.42688  1.0000
  C   C1590     1.0  0.96963  0.25103  0.04728  1.0000
  H   H2711     1.0  0.93411  0.32112  0.43165  1.0000
  H   H2712     1.0  0.89516  0.31298  0.45192  1.0000
  Fe  Fe225     1.0  0.86327  0.29199  0.99303  1.0000
  H   H2713     1.0  0.92328  0.25079  0.01464  1.0000
  C   C1591     1.0  0.98305  0.25631  0.37396  1.0000
  H   H2714     1.0  0.98053  0.25179  0.03495  1.0000
  H   H2715     1.0  0.98285  0.26046  0.39743  1.0000
  H   H2716     1.0  0.75446  0.24750  0.05420  1.0000
  H   H2717     1.0  0.97082  0.25340  0.36204  1.0000
  C   C1592     1.0  0.98466  0.46702  0.21676  1.0000
  S   S450      1.0  0.91619  0.49062  0.30981  1.0000
  H   H2718     1.0  0.77971  0.24258  0.06972  1.0000
  Fe  Fe226     1.0  0.93430  0.38974  0.78401  1.0000
  S   S451      1.0  0.92152  0.39176  0.74070  1.0000
  S   S452      1.0  0.96243  0.39944  0.79174  1.0000
  Fe  Fe227     1.0  0.90126  0.37154  0.81495  1.0000
  S   S453      1.0  0.88642  0.37256  0.77299  1.0000
  S   S454      1.0  0.88512  0.36060  0.85505  1.0000
  Fe  Fe228     1.0  0.90392  0.36539  0.74701  1.0000
  S   S455      1.0  0.89874  0.34351  0.71406  1.0000
  Fe  Fe229     1.0  0.90523  0.39895  0.77032  1.0000
  S   S456      1.0  0.89667  0.41938  0.75819  1.0000
  S   S457      1.0  0.91779  0.36295  0.78916  1.0000
  S   S458      1.0  0.91904  0.39832  0.81341  1.0000
  H   H2719     1.0  0.97646  0.39968  0.65019  1.0000
  S   S459      1.0  0.83634  0.28689  0.51842  1.0000
  S   S460      1.0  0.87860  0.30669  0.95423  1.0000
  Fe  Fe230     1.0  0.87548  0.27737  0.52789  1.0000
  S   S461      1.0  0.85718  0.27201  0.56389  1.0000
  S   S462      1.0  0.89844  0.27203  0.52386  1.0000
  Fe  Fe231     1.0  0.83710  0.26217  0.52639  1.0000
  H   H2720     1.0  0.78814  0.25657  0.56686  1.0000
  Fe  Fe232     1.0  0.85744  0.29691  0.55440  1.0000
  S   S463      1.0  0.85624  0.31528  0.58992  1.0000
  H   H2721     1.0  0.93364  0.38483  0.65428  1.0000
  S   S464      1.0  0.87738  0.30311  0.52115  1.0000
  H   H2722     1.0  0.95800  0.40918  0.73111  1.0000
  H   H2723     1.0  0.86636  0.38899  0.90173  1.0000
  C   C1593     1.0  0.90263  0.25909  0.54958  1.0000
  H   H2724     1.0  0.88423  0.25860  0.58001  1.0000
  C   C1594     1.0  0.90360  0.44014  0.77232  1.0000
  C   C1595     1.0  0.89664  0.45043  0.75945  1.0000
  C   C1596     1.0  0.90098  0.46663  0.77098  1.0000
  C   C1597     1.0  0.91213  0.47268  0.79603  1.0000
  C   C1598     1.0  0.91913  0.46239  0.80886  1.0000
  C   C1599     1.0  0.91512  0.44635  0.79684  1.0000
  H   H2725     1.0  0.88772  0.44581  0.74048  1.0000
  H   H2726     1.0  0.89538  0.47429  0.76094  1.0000
  H   H2727     1.0  0.92779  0.46692  0.82819  1.0000
  H   H2728     1.0  0.92080  0.43875  0.80675  1.0000
  C   C1600     1.0  0.88719  0.33635  0.67907  1.0000
  C   C1601     1.0  0.88872  0.32326  0.66322  1.0000
  C   C1602     1.0  0.87969  0.31694  0.63562  1.0000
  C   C1603     1.0  0.86877  0.32345  0.62369  1.0000
  C   C1604     1.0  0.86722  0.33651  0.63961  1.0000
  C   C1605     1.0  0.87645  0.34302  0.66699  1.0000
  H   H2729     1.0  0.89693  0.31794  0.67233  1.0000
  H   H2730     1.0  0.88101  0.30687  0.62379  1.0000
  H   H2731     1.0  0.85882  0.34167  0.63065  1.0000
  H   H2732     1.0  0.87511  0.35307  0.67882  1.0000
  C   C1606     1.0  0.88402  0.34616  0.88342  1.0000
  C   C1607     1.0  0.89599  0.33964  0.88764  1.0000
  C   C1608     1.0  0.89411  0.32772  0.90942  1.0000
  C   C1609     1.0  0.88040  0.32222  0.92773  1.0000
  C   C1610     1.0  0.86858  0.32896  0.92386  1.0000
  C   C1611     1.0  0.87040  0.34081  0.90192  1.0000
  H   H2733     1.0  0.90675  0.34381  0.87425  1.0000
  H   H2734     1.0  0.90345  0.32278  0.91229  1.0000
  H   H2735     1.0  0.85799  0.32496  0.93767  1.0000
  H   H2736     1.0  0.86107  0.34576  0.89916  1.0000
  H   H2737     1.0  0.95072  0.35494  0.75596  1.0000
  C   C1612     1.0  0.97660  0.40943  0.76420  1.0000
  C   C1613     1.0  0.97111  0.41245  0.73603  1.0000
  H   H2738     1.0  0.78487  0.26328  0.66810  1.0000
  N   N115      1.0  0.87182  0.31291  0.80147  1.0000
  C   C1614     1.0  0.87418  0.32257  0.77328  1.0000
  C   C1615     1.0  0.88846  0.31952  0.81887  1.0000
  C   C1616     1.0  0.85937  0.31633  0.81932  1.0000
  C   C1617     1.0  0.86560  0.29485  0.79273  1.0000
  C   C1618     1.0  0.85837  0.31944  0.75320  1.0000
  C   C1619     1.0  0.90277  0.31743  0.80319  1.0000
  C   C1620     1.0  0.85481  0.30755  0.84909  1.0000
  C   C1621     1.0  0.86808  0.28339  0.81644  1.0000
  H   H2739     1.0  0.88022  0.33607  0.77872  1.0000
  H   H2740     1.0  0.88273  0.31993  0.75861  1.0000
  H   H2741     1.0  0.88786  0.31407  0.84105  1.0000
  H   H2742     1.0  0.89257  0.33293  0.82416  1.0000
  H   H2743     1.0  0.86381  0.32980  0.82434  1.0000
  H   H2744     1.0  0.84727  0.31260  0.80630  1.0000
  H   H2745     1.0  0.85208  0.28980  0.78586  1.0000
  H   H2746     1.0  0.87182  0.29320  0.77255  1.0000
  H   H2747     1.0  0.85065  0.32525  0.76311  1.0000
  H   H2748     1.0  0.86216  0.32536  0.73147  1.0000
  H   H2749     1.0  0.85085  0.30618  0.74808  1.0000
  H   H2750     1.0  0.91375  0.32106  0.81936  1.0000
  H   H2751     1.0  0.89952  0.30455  0.79550  1.0000
  H   H2752     1.0  0.90682  0.32564  0.78404  1.0000
  H   H2753     1.0  0.86572  0.30997  0.86471  1.0000
  H   H2754     1.0  0.84755  0.29412  0.84531  1.0000
  H   H2755     1.0  0.84667  0.31227  0.86078  1.0000
  H   H2756     1.0  0.85640  0.27208  0.81720  1.0000
  H   H2757     1.0  0.87125  0.28858  0.83961  1.0000
  H   H2758     1.0  0.87774  0.27914  0.80979  1.0000
  N   N116      1.0  0.87789  0.41338  0.85580  1.0000
  C   C1622     1.0  0.89462  0.41309  0.85116  1.0000
  C   C1623     1.0  0.86459  0.39744  0.84284  1.0000
  C   C1624     1.0  0.87531  0.41487  0.88856  1.0000
  C   C1625     1.0  0.87719  0.42807  0.84044  1.0000
  C   C1626     1.0  0.90978  0.42674  0.86803  1.0000
  C   C1627     1.0  0.86289  0.39564  0.80840  1.0000
  C   C1628     1.0  0.87653  0.40115  0.90796  1.0000
  C   C1629     1.0  0.86070  0.43025  0.84190  1.0000
  H   H2759     1.0  0.89480  0.40108  0.85738  1.0000
  H   H2760     1.0  0.89717  0.41416  0.82699  1.0000
  H   H2761     1.0  0.85214  0.39533  0.85087  1.0000
  H   H2762     1.0  0.86696  0.38672  0.85077  1.0000
  H   H2763     1.0  0.88422  0.42698  0.89851  1.0000
  H   H2764     1.0  0.86278  0.41475  0.89167  1.0000
  H   H2765     1.0  0.88699  0.43970  0.85030  1.0000
  H   H2766     1.0  0.88037  0.42832  0.81660  1.0000
  H   H2767     1.0  0.91111  0.43927  0.86233  1.0000
  H   H2768     1.0  0.90948  0.42553  0.89264  1.0000
  H   H2769     1.0  0.92129  0.42562  0.86140  1.0000
  H   H2770     1.0  0.85839  0.40448  0.79821  1.0000
  H   H2771     1.0  0.87476  0.39710  0.79893  1.0000
  H   H2772     1.0  0.85362  0.38308  0.80157  1.0000
  H   H2773     1.0  0.87523  0.40392  0.93177  1.0000
  H   H2774     1.0  0.88866  0.40020  0.90679  1.0000
  H   H2775     1.0  0.93400  0.32872  0.66775  1.0000
  H   H2776     1.0  0.86105  0.43798  0.86190  1.0000
  H   H2777     1.0  0.84961  0.41849  0.84226  1.0000
  H   H2778     1.0  0.85880  0.43636  0.82144  1.0000
  H   H2779     1.0  0.96611  0.35853  0.72978  1.0000
  H   H2780     1.0  0.93660  0.35940  0.63567  1.0000
  H   H2781     1.0  0.81378  0.29268  0.56519  1.0000
  H   H2782     1.0  0.93729  0.36908  0.71864  1.0000
  H   H2783     1.0  0.96273  0.37566  0.74492  1.0000
  H   H2784     1.0  0.83969  0.26709  0.62878  1.0000
  C   C1630     1.0  0.79459  0.26815  0.62381  1.0000
  H   H2785     1.0  0.80097  0.25674  0.66375  1.0000
  H   H2786     1.0  0.95327  0.32646  0.66808  1.0000
  H   H2787     1.0  0.96939  0.35611  0.68189  1.0000
  H   H2788     1.0  0.97523  0.37968  0.64065  1.0000
  H   H2789     1.0  0.92205  0.25721  0.52418  1.0000
  N   N117      1.0  0.94855  0.36339  0.68054  1.0000
  C   C1631     1.0  0.97552  0.45812  0.75184  1.0000
  H   H2790     1.0  0.80895  0.26244  0.55663  1.0000
  S   S465      1.0  0.85564  0.26600  0.49129  1.0000
  H   H2791     1.0  0.79516  0.28078  0.62110  1.0000
  H   H2792     1.0  0.82947  0.27413  0.65664  1.0000
  C   C1632     1.0  0.89390  0.25445  0.57560  1.0000
  C   C1633     1.0  0.92538  0.37242  0.66131  1.0000
  H   H2793     1.0  0.97082  0.45189  0.72952  1.0000
  H   H2794     1.0  0.97432  0.47005  0.75295  1.0000
  H   H2795     1.0  0.79792  0.28135  0.53741  1.0000
  H   H2796     1.0  0.92114  0.37332  0.68389  1.0000
  C   C1634     1.0  0.95658  0.35206  0.67137  1.0000
  H   H2797     1.0  0.92358  0.34776  0.66325  1.0000
  C   C1635     1.0  0.95649  0.36262  0.73683  1.0000
  C   C1636     1.0  0.98259  0.41961  0.71408  1.0000
  H   H2798     1.0  0.79197  0.28561  0.57301  1.0000
  C   C1637     1.0  0.91523  0.25366  0.54422  1.0000
  C   C1638     1.0  0.94288  0.36044  0.71201  1.0000
  H   H2799     1.0  0.82335  0.29097  0.61392  1.0000
  H   H2800     1.0  0.97820  0.42180  0.69228  1.0000
  H   H2801     1.0  0.84669  0.28842  0.63829  1.0000
  H   H2802     1.0  0.78145  0.26008  0.61655  1.0000
  C   C1639     1.0  0.93356  0.36005  0.65941  1.0000
  H   H2803     1.0  0.92316  0.31207  0.49535  1.0000
  H   H2804     1.0  0.80604  0.27854  0.66828  1.0000
  H   H2805     1.0  0.95788  0.38513  0.63119  1.0000
  C   C1640     1.0  0.80109  0.26579  0.57196  1.0000
  N   N118      1.0  0.80672  0.26532  0.60424  1.0000
  H   H2806     1.0  0.95837  0.35254  0.64686  1.0000
  H   H2807     1.0  0.94125  0.25300  0.97299  1.0000
  H   H2808     1.0  0.97212  0.38322  0.69485  1.0000
  H   H2809     1.0  0.96717  0.45005  0.76831  1.0000
  H   H2810     1.0  0.81261  0.24775  0.63073  1.0000
  H   H2811     1.0  0.83114  0.28048  0.58911  1.0000
  H   H2812     1.0  0.91407  0.36803  0.64580  1.0000
  C   C1641     1.0  0.96786  0.38643  0.64836  1.0000
  C   C1642     1.0  0.96106  0.38094  0.67934  1.0000
  H   H2813     1.0  0.94662  0.33166  0.70232  1.0000
  H   H2814     1.0  0.93253  0.34812  0.71386  1.0000
  C   C1643     1.0  0.94689  0.33373  0.67792  1.0000
  C   C1644     1.0  0.82398  0.27887  0.60957  1.0000
  C   C1645     1.0  0.79702  0.26667  0.65781  1.0000
  C   C1646     1.0  0.80130  0.28241  0.56184  1.0000
  C   C1647     1.0  0.83535  0.27678  0.63497  1.0000
  H   H2815     1.0  0.91124  0.24177  0.98099  1.0000
  H   H2816     1.0  0.95580  0.38958  0.68756  1.0000
  H   H2817     1.0  0.91028  0.32294  0.49961  1.0000
  H   H2818     1.0  0.96574  0.25779  0.95424  1.0000
  C   C1648     1.0  0.97287  0.25322  0.96996  1.0000
  C   C1649     1.0  0.80713  0.24868  0.60843  1.0000
  H   H2819     1.0  0.81554  0.24672  0.59245  1.0000
  H   H2820     1.0  0.98221  0.25096  0.95679  1.0000
  C   C1650     1.0  0.89802  0.24480  0.59638  1.0000
  C   C1651     1.0  0.91920  0.24380  0.56484  1.0000
  H   H2821     1.0  0.98001  0.26295  0.98714  1.0000
  S   S466      1.0  0.85109  0.26416  0.98831  1.0000
  H   H2822     1.0  0.69376  0.61337  0.39985  1.0000
  S   S467      1.0  0.85014  0.56661  0.04168  1.0000
  H   H2823     1.0  0.76257  0.62359  0.99345  1.0000
  Fe  Fe233     1.0  0.87699  0.61362  0.03920  1.0000
  S   S468      1.0  0.85593  0.60315  0.06967  1.0000
  S   S469      1.0  0.89077  0.64093  0.03053  1.0000
  Fe  Fe234     1.0  0.86624  0.58396  0.07902  1.0000
  S   S470      1.0  0.86746  0.57728  0.12818  1.0000
  Fe  Fe235     1.0  0.84139  0.58661  0.03048  1.0000
  S   S471      1.0  0.81570  0.58391  0.01053  1.0000
  S   S472      1.0  0.88837  0.59570  0.05094  1.0000
  H   H2824     1.0  0.67313  0.58375  0.18905  1.0000
  Fe  Fe236     1.0  0.93570  0.72769  0.11185  1.0000
  S   S473      1.0  0.92594  0.70096  0.12519  1.0000
  Fe  Fe237     1.0  0.91493  0.53960  0.24598  1.0000
  S   S474      1.0  0.92944  0.56195  0.27580  1.0000
  S   S475      1.0  0.90871  0.54179  0.19617  1.0000
  Fe  Fe238     1.0  0.91796  0.51569  0.29311  1.0000
  S   S476      1.0  0.93217  0.53681  0.32628  1.0000
  Fe  Fe239     1.0  0.91381  0.54752  0.31289  1.0000
  S   S477      1.0  0.90300  0.56228  0.34160  1.0000
  Fe  Fe240     1.0  0.94659  0.54959  0.28719  1.0000
  S   S478      1.0  0.97490  0.56070  0.29329  1.0000
  S   S479      1.0  0.89828  0.52552  0.28213  1.0000
  S   S480      1.0  0.93341  0.52817  0.25494  1.0000
  Fe  Fe241     1.0  0.68914  0.56966  0.01650  1.0000
  S   S481      1.0  0.69506  0.55758  0.05724  1.0000
  S   S482      1.0  0.69743  0.57146  0.46133  1.0000
  Fe  Fe242     1.0  0.71402  0.60385  0.03966  1.0000
  S   S483      1.0  0.72123  0.59430  0.08138  1.0000
  S   S484      1.0  0.72389  0.63087  0.02859  1.0000
  Fe  Fe243     1.0  0.72214  0.57431  0.05088  1.0000
  S   S485      1.0  0.74422  0.56752  0.06300  1.0000
  Fe  Fe244     1.0  0.69388  0.57846  0.08488  1.0000
  S   S486      1.0  0.68256  0.58027  0.12968  1.0000
  S   S487      1.0  0.71625  0.58480  0.00841  1.0000
  S   S488      1.0  0.68668  0.58966  0.04483  1.0000
  S   S489      1.0  0.79240  0.73113  0.15356  1.0000
  H   H2825     1.0  0.85309  0.59338  0.42368  1.0000
  Fe  Fe245     1.0  0.77745  0.71488  0.11468  1.0000
  S   S490      1.0  0.77128  0.68765  0.12011  1.0000
  S   S491      1.0  0.79423  0.73078  0.08096  1.0000
  C   C1652     1.0  0.73756  0.64665  0.05357  1.0000
  C   C1653     1.0  0.74476  0.64303  0.07939  1.0000
  C   C1654     1.0  0.75540  0.65577  0.09916  1.0000
  C   C1655     1.0  0.75867  0.67225  0.09357  1.0000
  C   C1656     1.0  0.75156  0.67594  0.06766  1.0000
  C   C1657     1.0  0.74111  0.66316  0.04763  1.0000
  H   H2826     1.0  0.74197  0.63039  0.08424  1.0000
  H   H2827     1.0  0.76078  0.65286  0.11928  1.0000
  H   H2828     1.0  0.75406  0.68862  0.06312  1.0000
  H   H2829     1.0  0.73562  0.66609  0.02764  1.0000
  H   H2830     1.0  0.81959  0.52644  0.47690  1.0000
  C   C1658     1.0  0.66958  0.56543  0.15420  1.0000
  C   C1659     1.0  0.66146  0.54867  0.14611  1.0000
  H   H2831     1.0  0.92137  0.71663  0.48228  1.0000
  H   H2832     1.0  0.90645  0.60601  0.13693  1.0000
  H   H2833     1.0  0.66341  0.54425  0.12457  1.0000
  H   H2834     1.0  0.96774  0.71782  0.43933  1.0000
  C   C1660     1.0  0.67836  0.56199  0.43887  1.0000
  C   C1661     1.0  0.68247  0.61591  0.40095  1.0000
  H   H2835     1.0  0.82308  0.55639  0.46667  1.0000
  H   H2836     1.0  0.97266  0.61536  0.18948  1.0000
  H   H2837     1.0  0.80162  0.66161  0.05474  1.0000
  H   H2838     1.0  0.68035  0.73362  0.02319  1.0000
  H   H2839     1.0  0.70325  0.73348  0.29947  1.0000
  H   H2840     1.0  0.96872  0.57851  0.24334  1.0000
  H   H2841     1.0  0.94161  0.56910  0.19612  1.0000
  H   H2842     1.0  0.97086  0.62941  0.21707  1.0000
  C   C1662     1.0  0.79594  0.57921  0.02569  1.0000
  H   H2843     1.0  0.93855  0.67003  0.48122  1.0000
  C   C1663     1.0  0.76711  0.57670  0.01814  1.0000
  C   C1664     1.0  0.76396  0.57210  0.04777  1.0000
  C   C1665     1.0  0.77690  0.57103  0.06616  1.0000
  C   C1666     1.0  0.79281  0.57470  0.05534  1.0000
  H   H2844     1.0  0.88619  0.69389  0.15918  1.0000
  H   H2845     1.0  0.95080  0.57148  0.16105  1.0000
  H   H2846     1.0  0.77461  0.56737  0.08905  1.0000
  H   H2847     1.0  0.80258  0.57387  0.06989  1.0000
  C   C1667     1.0  0.87785  0.56608  0.14620  1.0000
  C   C1668     1.0  0.88759  0.55980  0.13072  1.0000
  C   C1669     1.0  0.89636  0.55183  0.14628  1.0000
  C   C1670     1.0  0.89590  0.55039  0.17758  1.0000
  C   C1671     1.0  0.88594  0.55641  0.19301  1.0000
  C   C1672     1.0  0.87685  0.56406  0.17734  1.0000
  H   H2848     1.0  0.88842  0.56115  0.10678  1.0000
  H   H2849     1.0  0.90389  0.54708  0.13404  1.0000
  H   H2850     1.0  0.88531  0.55528  0.21702  1.0000
  H   H2851     1.0  0.86929  0.56878  0.18954  1.0000
  C   C1673     1.0  0.89517  0.56905  0.44209  1.0000
  C   C1674     1.0  0.89349  0.57970  0.42074  1.0000
  C   C1675     1.0  0.89608  0.57749  0.39029  1.0000
  C   C1676     1.0  0.90068  0.56482  0.38068  1.0000
  C   C1677     1.0  0.90267  0.55437  0.40213  1.0000
  C   C1678     1.0  0.89986  0.55644  0.43252  1.0000
  H   H2852     1.0  0.89019  0.58964  0.42761  1.0000
  H   H2853     1.0  0.89456  0.58571  0.37400  1.0000
  H   H2854     1.0  0.90618  0.54456  0.39524  1.0000
  H   H2855     1.0  0.90128  0.54814  0.44873  1.0000
  C   C1679     1.0  0.90022  0.65732  0.05752  1.0000
  C   C1680     1.0  0.89985  0.65483  0.08834  1.0000
  C   C1681     1.0  0.90777  0.66830  0.10885  1.0000
  C   C1682     1.0  0.91607  0.68434  0.09876  1.0000
  C   C1683     1.0  0.91627  0.68682  0.06797  1.0000
  C   C1684     1.0  0.90838  0.67339  0.04751  1.0000
  H   H2856     1.0  0.89361  0.64252  0.09632  1.0000
  H   H2857     1.0  0.90756  0.66626  0.13263  1.0000
  H   H2858     1.0  0.92277  0.69903  0.05987  1.0000
  H   H2859     1.0  0.90878  0.67541  0.02372  1.0000
  H   H2860     1.0  0.66293  0.55000  0.47464  1.0000
  N   N119      1.0  0.93375  0.59836  0.18854  1.0000
  C   C1685     1.0  0.91835  0.60014  0.17598  1.0000
  C   C1686     1.0  0.92972  0.59054  0.21849  1.0000
  C   C1687     1.0  0.94771  0.61529  0.19110  1.0000
  H   H2861     1.0  0.68470  0.72191  0.99394  1.0000
  C   C1688     1.0  0.92483  0.60026  0.24227  1.0000
  H   H2862     1.0  0.90720  0.58850  0.17791  1.0000
  H   H2863     1.0  0.91590  0.60960  0.18903  1.0000
  H   H2864     1.0  0.91930  0.57811  0.21555  1.0000
  H   H2865     1.0  0.71271  0.62900  0.09427  1.0000
  H   H2866     1.0  0.72393  0.67576  0.11561  1.0000
  N   N120      1.0  0.68173  0.61382  0.45849  1.0000
  C   C1689     1.0  0.84314  0.58111  0.42773  1.0000
  H   H2867     1.0  0.91278  0.60090  0.23598  1.0000
  H   H2868     1.0  0.92307  0.59368  0.26362  1.0000
  H   H2869     1.0  0.93469  0.61276  0.24698  1.0000
  H   H2870     1.0  0.96326  0.60844  0.22460  1.0000
  H   H2871     1.0  0.98528  0.73547  0.31064  1.0000
  H   H2872     1.0  0.67080  0.60959  0.12920  1.0000
  H   H2873     1.0  0.69660  0.60275  0.48111  1.0000
  H   H2874     1.0  0.76010  0.61767  0.08425  1.0000
  H   H2875     1.0  0.70423  0.64535  0.48533  1.0000
  H   H2876     1.0  0.86096  0.54701  0.45388  1.0000
  H   H2877     1.0  0.80949  0.64087  0.02457  1.0000
  H   H2878     1.0  0.80635  0.52135  0.39581  1.0000
  C   C1690     1.0  0.80698  0.62782  0.02779  1.0000
  H   H2879     1.0  0.86217  0.57345  0.44412  1.0000
  H   H2880     1.0  0.66428  0.55851  0.36500  1.0000
  C   C1691     1.0  0.98198  0.58189  0.24633  1.0000
  H   H2881     1.0  0.72619  0.61986  0.12965  1.0000
  H   H2882     1.0  0.68672  0.63995  0.08398  1.0000
  H   H2883     1.0  0.94719  0.69525  0.46214  1.0000
  H   H2884     1.0  0.81928  0.62719  0.03169  1.0000
  H   H2885     1.0  0.93574  0.73816  0.00372  1.0000
  H   H2886     1.0  0.69562  0.61220  0.10697  1.0000
  H   H2887     1.0  0.83784  0.58234  0.44918  1.0000
  C   C1692     1.0  0.96444  0.61693  0.20626  1.0000
  C   C1693     1.0  0.93762  0.58722  0.16718  1.0000
  H   H2888     1.0  0.94014  0.58817  0.22891  1.0000
  S   S492      1.0  0.86203  0.59823  0.99903  1.0000
  H   H2889     1.0  0.72698  0.61506  0.16801  1.0000
  S   S493      1.0  0.75955  0.72704  0.11263  1.0000
  C   C1694     1.0  0.67574  0.72672  0.25369  1.0000
  H   H2890     1.0  0.90217  0.71251  0.14622  1.0000
  H   H2891     1.0  0.75729  0.57741  0.00358  1.0000
  N   N121      1.0  0.83961  0.55124  0.43744  1.0000
  H   H2892     1.0  0.67506  0.71614  0.23931  1.0000
  C   C1695     1.0  0.84981  0.54108  0.43824  1.0000
  C   C1696     1.0  0.82504  0.54447  0.41478  1.0000
  H   H2893     1.0  0.67576  0.72299  0.27721  1.0000
  C   C1697     1.0  0.81265  0.52649  0.41805  1.0000
  C   C1698     1.0  0.85087  0.56831  0.42852  1.0000
  H   H2894     1.0  0.71476  0.63397  0.44665  1.0000
  C   C1699     1.0  0.80573  0.65647  0.07433  1.0000
  H   H2895     1.0  0.72840  0.65166  0.12895  1.0000
  H   H2896     1.0  0.81740  0.55181  0.41572  1.0000
  H   H2897     1.0  0.82917  0.54595  0.39142  1.0000
  H   H2898     1.0  0.67120  0.60450  0.39523  1.0000
  H   H2899     1.0  0.75312  0.61017  0.02260  1.0000
  H   H2900     1.0  0.80963  0.66620  0.09245  1.0000
  H   H2901     1.0  0.78217  0.64480  0.09414  1.0000
  H   H2902     1.0  0.80306  0.52579  0.43392  1.0000
  H   H2903     1.0  0.81863  0.51823  0.42503  1.0000
  H   H2904     1.0  0.85546  0.56812  0.40585  1.0000
  S   S494      1.0  0.92955  0.73500  0.06695  1.0000
  C   C1700     1.0  0.66386  0.55677  0.38887  1.0000
  H   H2905     1.0  0.76405  0.59577  0.11384  1.0000
  H   H2906     1.0  0.79993  0.73569  0.26657  1.0000
  C   C1701     1.0  0.94830  0.57839  0.17971  1.0000
  S   S495      1.0  0.89093  0.57037  0.48063  1.0000
  H   H2907     1.0  0.69212  0.63608  0.43296  1.0000
  H   H2908     1.0  0.69595  0.60061  0.44216  1.0000
  H   H2909     1.0  0.76348  0.60242  0.06325  1.0000
  C   C1702     1.0  0.77494  0.60678  0.10729  1.0000
  H   H2910     1.0  0.78510  0.60271  0.10394  1.0000
  H   H2911     1.0  0.84304  0.52882  0.44744  1.0000
  C   C1703     1.0  0.95748  0.70324  0.47789  1.0000
  C   C1704     1.0  0.66683  0.57087  0.18237  1.0000
  H   H2912     1.0  0.80458  0.62005  0.07358  1.0000
  H   H2913     1.0  0.70238  0.73841  0.24924  1.0000
  H   H2914     1.0  0.92856  0.61678  0.13864  1.0000
  H   H2915     1.0  0.76761  0.63763  0.04496  1.0000
  H   H2916     1.0  0.69008  0.57180  0.39807  1.0000
  C   C1705     1.0  0.71401  0.62380  0.46113  1.0000
  H   H2917     1.0  0.67647  0.61776  0.07886  1.0000
  H   H2918     1.0  0.69385  0.62923  0.05840  1.0000
  H   H2919     1.0  0.94383  0.59405  0.14745  1.0000
  H   H2920     1.0  0.81690  0.65419  0.06968  1.0000
  H   H2921     1.0  0.70188  0.66518  0.11586  1.0000
  C   C1706     1.0  0.76988  0.61338  0.07850  1.0000
  C   C1707     1.0  0.76534  0.61804  0.01394  1.0000
  H   H2922     1.0  0.86294  0.53007  0.41159  1.0000
  H   H2923     1.0  0.72291  0.61913  0.45216  1.0000
  H   H2924     1.0  0.96044  0.58693  0.18983  1.0000
  C   C1708     1.0  0.77587  0.63186  0.03698  1.0000
  C   C1709     1.0  0.83386  0.55286  0.46825  1.0000
  H   H2925     1.0  0.86440  0.54913  0.39787  1.0000
  H   H2926     1.0  0.73625  0.63606  0.15824  1.0000
  H   H2927     1.0  0.71371  0.65941  0.08885  1.0000
  Fe  Fe246     1.0  0.87182  0.57950  0.01259  1.0000
  H   H2928     1.0  0.83355  0.57836  0.40908  1.0000
  C   C1710     1.0  0.67850  0.56430  0.40775  1.0000
  H   H2929     1.0  0.67473  0.61214  0.16931  1.0000
  H   H2930     1.0  0.65417  0.56419  0.22374  1.0000
  H   H2931     1.0  0.92590  0.57713  0.15801  1.0000
  H   H2932     1.0  0.80161  0.62049  0.00661  1.0000
  N   N122      1.0  0.87206  0.70186  0.10545  1.0000
  C   C1711     1.0  0.88760  0.70791  0.08809  1.0000
  C   C1712     1.0  0.87662  0.71046  0.13599  1.0000
  C   C1713     1.0  0.85928  0.70646  0.08868  1.0000
  C   C1714     1.0  0.86605  0.68344  0.10723  1.0000
  C   C1715     1.0  0.88532  0.70167  0.05502  1.0000
  C   C1716     1.0  0.88976  0.70716  0.15556  1.0000
  C   C1717     1.0  0.84669  0.71009  0.10727  1.0000
  C   C1718     1.0  0.85148  0.67490  0.12727  1.0000
  H   H2933     1.0  0.89338  0.72159  0.08839  1.0000
  H   H2934     1.0  0.89719  0.70425  0.09860  1.0000
  H   H2935     1.0  0.86560  0.70711  0.14968  1.0000
  H   H2936     1.0  0.88135  0.72406  0.13369  1.0000
  H   H2937     1.0  0.86552  0.71791  0.07619  1.0000
  H   H2938     1.0  0.85200  0.69681  0.07126  1.0000
  H   H2939     1.0  0.86191  0.67731  0.08466  1.0000
  H   H2940     1.0  0.87645  0.68010  0.11508  1.0000
  H   H2941     1.0  0.89735  0.70772  0.04434  1.0000
  H   H2942     1.0  0.88201  0.68825  0.05308  1.0000
  H   H2943     1.0  0.87609  0.70476  0.04181  1.0000
  C   C1719     1.0  0.66230  0.58687  0.48238  1.0000
  H   H2944     1.0  0.89117  0.71330  0.17796  1.0000
  C   C1720     1.0  0.69662  0.60952  0.46044  1.0000
  H   H2945     1.0  0.83726  0.71173  0.09182  1.0000
  H   H2946     1.0  0.85295  0.72184  0.12059  1.0000
  H   H2947     1.0  0.83994  0.70021  0.12242  1.0000
  H   H2948     1.0  0.85450  0.67956  0.15088  1.0000
  H   H2949     1.0  0.84876  0.66156  0.12732  1.0000
  H   H2950     1.0  0.84001  0.67592  0.11850  1.0000
  N   N123      1.0  0.78376  0.62663  0.06322  1.0000
  C   C1721     1.0  0.65606  0.55980  0.20213  1.0000
  H   H2951     1.0  0.66641  0.72529  0.99057  1.0000
  C   C1722     1.0  0.79176  0.64094  0.08546  1.0000
  C   C1723     1.0  0.79609  0.61978  0.05413  1.0000
  H   H2952     1.0  0.78935  0.60659  0.04724  1.0000
  H   H2953     1.0  0.66103  0.61982  0.15105  1.0000
  H   H2954     1.0  0.91860  0.59508  0.12736  1.0000
  H   H2955     1.0  0.70745  0.73605  0.03141  1.0000
  C   C1724     1.0  0.85578  0.53776  0.40790  1.0000
  H   H2956     1.0  0.66707  0.59002  0.43613  1.0000
  C   C1725     1.0  0.68165  0.62377  0.43153  1.0000
  H   H2957     1.0  0.68308  0.62467  0.38314  1.0000
  H   H2958     1.0  0.67024  0.62633  0.43050  1.0000
  H   H2959     1.0  0.77834  0.61587  0.12636  1.0000
  H   H2960     1.0  0.78516  0.64156  0.02428  1.0000
  H   H2961     1.0  0.68550  0.64805  0.47387  1.0000
  C   C1726     1.0  0.91831  0.60481  0.14285  1.0000
  H   H2962     1.0  0.95072  0.62033  0.16849  1.0000
  C   C1727     1.0  0.68081  0.62279  0.48691  1.0000
  C   C1728     1.0  0.66329  0.55209  0.45088  1.0000
  C   C1729     1.0  0.67975  0.73123  0.99863  1.0000
  H   H2963     1.0  0.84380  0.56301  0.48187  1.0000
  H   H2964     1.0  0.98030  0.52380  0.21986  1.0000
  C   C1730     1.0  0.78294  0.58009  0.00715  1.0000
  H   H2965     1.0  0.95777  0.72698  0.46298  1.0000
  H   H2966     1.0  0.79745  0.63736  0.10529  1.0000
  H   H2967     1.0  0.94386  0.62432  0.20243  1.0000
  H   H2968     1.0  0.84524  0.53083  0.39164  1.0000
  N   N124      1.0  0.70303  0.63443  0.13471  1.0000
  C   C1731     1.0  0.70874  0.62521  0.15761  1.0000
  C   C1732     1.0  0.68725  0.63500  0.14532  1.0000
  C   C1733     1.0  0.71632  0.65172  0.13460  1.0000
  C   C1734     1.0  0.70058  0.62574  0.10443  1.0000
  C   C1735     1.0  0.72554  0.62417  0.15269  1.0000
  C   C1736     1.0  0.67273  0.61809  0.14875  1.0000
  C   C1737     1.0  0.71343  0.66344  0.11234  1.0000
  C   C1738     1.0  0.68866  0.62855  0.08077  1.0000
  H   H2969     1.0  0.70966  0.63069  0.18057  1.0000
  H   H2970     1.0  0.69953  0.61223  0.15840  1.0000
  H   H2971     1.0  0.68247  0.64214  0.13050  1.0000
  H   H2972     1.0  0.68976  0.64175  0.16748  1.0000
  H   H2973     1.0  0.71850  0.65775  0.15738  1.0000
  C   C1739     1.0  0.96569  0.71995  0.46305  1.0000
  H   H2974     1.0  0.66428  0.72867  0.24813  1.0000
  H   H2975     1.0  0.77186  0.61028  0.00726  1.0000
  H   H2976     1.0  0.92646  0.70128  0.46610  1.0000
  C   C1740     1.0  0.66627  0.59792  0.45504  1.0000
  H   H2977     1.0  0.96655  0.69739  0.47824  1.0000
  H   H2978     1.0  0.97810  0.72756  0.47398  1.0000
  H   H2979     1.0  0.97402  0.53914  0.23293  1.0000
  H   H2980     1.0  0.65505  0.60042  0.44951  1.0000
  C   C1741     1.0  0.98514  0.53641  0.22996  1.0000
  H   H2981     1.0  0.85094  0.53327  0.99923  1.0000
  H   H2982     1.0  0.83078  0.53136  0.00840  1.0000
  H   H2983     1.0  0.71841  0.62863  0.48441  1.0000
  C   C1742     1.0  0.83822  0.53066  0.98953  1.0000
  H   H2984     1.0  0.82027  0.55514  0.99033  1.0000
  H   H2985     1.0  0.67210  0.58235  0.48751  1.0000
  C   C1743     1.0  0.82890  0.53780  0.48815  1.0000
  H   H2986     1.0  0.72756  0.74111  0.01607  1.0000
  H   H2987     1.0  0.80768  0.53399  0.98886  1.0000
  C   C1744     1.0  0.92455  0.70608  0.48782  1.0000
  H   H2988     1.0  0.75326  0.63414  0.49812  1.0000
  S   S496      1.0  0.86267  0.57122  0.54329  1.0000
  H   H2989     1.0  0.84832  0.54320  0.94926  1.0000
  Fe  Fe247     1.0  0.88135  0.61829  0.53421  1.0000
  S   S497      1.0  0.86260  0.60602  0.56808  1.0000
  S   S498      1.0  0.88953  0.64566  0.52672  1.0000
  Fe  Fe248     1.0  0.87767  0.59106  0.57757  1.0000
  S   S499      1.0  0.88257  0.58874  0.62760  1.0000
  Fe  Fe249     1.0  0.84898  0.58718  0.53160  1.0000
  S   S500      1.0  0.82071  0.57449  0.52215  1.0000
  S   S501      1.0  0.89744  0.60471  0.54582  1.0000
  H   H2990     1.0  0.93757  0.68676  0.54148  1.0000
  Fe  Fe250     1.0  0.93833  0.73141  0.60547  1.0000
  S   S502      1.0  0.93378  0.70510  0.61702  1.0000
  Fe  Fe251     1.0  0.91004  0.53794  0.74819  1.0000
  S   S503      1.0  0.92275  0.56132  0.77623  1.0000
  S   S504      1.0  0.90063  0.53613  0.69912  1.0000
  Fe  Fe252     1.0  0.91611  0.51639  0.79635  1.0000
  S   S505      1.0  0.92894  0.53853  0.82805  1.0000
  Fe  Fe253     1.0  0.90856  0.54655  0.81448  1.0000
  S   S506      1.0  0.89721  0.56038  0.84424  1.0000
  Fe  Fe254     1.0  0.94223  0.55177  0.78817  1.0000
  S   S507      1.0  0.97041  0.56633  0.79597  1.0000
  S   S508      1.0  0.89456  0.52350  0.78532  1.0000
  S   S509      1.0  0.93065  0.52934  0.75755  1.0000
  Fe  Fe255     1.0  0.70481  0.57831  0.51149  1.0000
  S   S510      1.0  0.71475  0.56560  0.54587  1.0000
  H   H2991     1.0  0.94636  0.72575  0.50844  1.0000
  Fe  Fe256     1.0  0.71447  0.60903  0.55325  1.0000
  S   S511      1.0  0.72445  0.59843  0.59053  1.0000
  S   S512      1.0  0.71520  0.63480  0.54972  1.0000
  Fe  Fe257     1.0  0.73681  0.58992  0.55469  1.0000
  S   S513      1.0  0.76504  0.59819  0.56420  1.0000
  Fe  Fe258     1.0  0.70172  0.57496  0.57955  1.0000
  S   S514      1.0  0.68736  0.55718  0.61521  1.0000
  S   S515      1.0  0.72789  0.60192  0.51821  1.0000
  S   S516      1.0  0.69070  0.58629  0.54455  1.0000
  C   C1745     1.0  0.94109  0.70772  0.70689  1.0000
  C   C1746     1.0  0.68911  0.56013  0.72958  1.0000
  Fe  Fe259     1.0  0.77561  0.72145  0.61924  1.0000
  S   S517      1.0  0.76636  0.69464  0.63167  1.0000
  C   C1747     1.0  0.97166  0.58100  0.62050  1.0000
  C   C1748     1.0  0.72888  0.65135  0.57335  1.0000
  C   C1749     1.0  0.73293  0.66759  0.56474  1.0000
  C   C1750     1.0  0.74428  0.68103  0.58250  1.0000
  C   C1751     1.0  0.75149  0.67828  0.60922  1.0000
  C   C1752     1.0  0.74703  0.66207  0.61828  1.0000
  C   C1753     1.0  0.73593  0.64864  0.60027  1.0000
  H   H2992     1.0  0.72750  0.66980  0.54398  1.0000
  H   H2993     1.0  0.74758  0.69347  0.57534  1.0000
  H   H2994     1.0  0.75249  0.65985  0.63901  1.0000
  H   H2995     1.0  0.73283  0.63619  0.60722  1.0000
  H   H2996     1.0  0.92441  0.55107  0.64992  1.0000
  C   C1754     1.0  0.67228  0.55796  0.63974  1.0000
  C   C1755     1.0  0.93985  0.71217  0.51029  1.0000
  H   H2997     1.0  0.76302  0.56938  0.52785  1.0000
  N   N125      1.0  0.68192  0.55637  0.75996  1.0000
  C   C1756     1.0  0.75883  0.71630  0.71163  1.0000
  C   C1757     1.0  0.96655  0.56911  0.64645  1.0000
  H   H2998     1.0  0.69039  0.64609  0.51236  1.0000
  C   C1758     1.0  0.67418  0.55967  0.92392  1.0000
  C   C1759     1.0  0.66997  0.55711  0.89279  1.0000
  H   H2999     1.0  0.68687  0.56708  0.93200  1.0000
  H   H3000     1.0  0.67956  0.56266  0.87722  1.0000
  H   H3001     1.0  0.78700  0.69222  0.53797  1.0000
  H   H3002     1.0  0.70880  0.72962  0.97667  1.0000
  H   H3003     1.0  0.96817  0.58573  0.74533  1.0000
  H   H3004     1.0  0.96340  0.57570  0.60013  1.0000
  H   H3005     1.0  0.94765  0.72964  0.66324  1.0000
  C   C1760     1.0  0.80546  0.58174  0.53252  1.0000
  C   C1761     1.0  0.78852  0.57205  0.52491  1.0000
  C   C1762     1.0  0.77598  0.57697  0.53391  1.0000
  C   C1763     1.0  0.78022  0.59154  0.55106  1.0000
  C   C1764     1.0  0.79718  0.60116  0.55880  1.0000
  C   C1765     1.0  0.80972  0.59643  0.54925  1.0000
  H   H3006     1.0  0.97129  0.59445  0.92728  1.0000
  H   H3007     1.0  0.69500  0.54050  0.76720  1.0000
  H   H3008     1.0  0.80070  0.61236  0.57230  1.0000
  H   H3009     1.0  0.82268  0.60414  0.55497  1.0000
  C   C1766     1.0  0.88654  0.57337  0.64708  1.0000
  C   C1767     1.0  0.88683  0.55949  0.63243  1.0000
  C   C1768     1.0  0.89058  0.54791  0.64889  1.0000
  C   C1769     1.0  0.89417  0.55010  0.68006  1.0000
  C   C1770     1.0  0.89341  0.56374  0.69480  1.0000
  C   C1771     1.0  0.88965  0.57531  0.67835  1.0000
  H   H3010     1.0  0.88440  0.55780  0.60841  1.0000
  H   H3011     1.0  0.89104  0.53735  0.63730  1.0000
  H   H3012     1.0  0.89610  0.56557  0.71875  1.0000
  H   H3013     1.0  0.88938  0.58597  0.68991  1.0000
  C   C1772     1.0  0.88505  0.56296  0.94369  1.0000
  C   C1773     1.0  0.88429  0.57448  0.92339  1.0000
  C   C1774     1.0  0.88792  0.57337  0.89315  1.0000
  C   C1775     1.0  0.89243  0.56080  0.88265  1.0000
  C   C1776     1.0  0.89303  0.54917  0.90288  1.0000
  C   C1777     1.0  0.88936  0.55026  0.93311  1.0000
  H   H3014     1.0  0.88109  0.58436  0.93104  1.0000
  H   H3015     1.0  0.88737  0.58243  0.87780  1.0000
  H   H3016     1.0  0.89634  0.53935  0.89526  1.0000
  H   H3017     1.0  0.88994  0.54122  0.94850  1.0000
  C   C1778     1.0  0.90066  0.66151  0.55393  1.0000
  C   C1779     1.0  0.91014  0.65916  0.57794  1.0000
  C   C1780     1.0  0.91999  0.67253  0.59749  1.0000
  C   C1781     1.0  0.92040  0.68833  0.59329  1.0000
  C   C1782     1.0  0.91053  0.69053  0.56981  1.0000
  C   C1783     1.0  0.90082  0.67721  0.55017  1.0000
  H   H3018     1.0  0.91016  0.64713  0.58105  1.0000
  H   H3019     1.0  0.92751  0.67067  0.61566  1.0000
  H   H3020     1.0  0.91041  0.70250  0.56666  1.0000
  H   H3021     1.0  0.89334  0.67908  0.53192  1.0000
  C   C1784     1.0  0.79764  0.54801  0.96235  1.0000
  H   H3022     1.0  0.93928  0.53208  0.65896  1.0000
  C   C1785     1.0  0.74859  0.71806  0.68402  1.0000
  C   C1786     1.0  0.72274  0.70831  0.65196  1.0000
  C   C1787     1.0  0.72539  0.72611  0.71960  1.0000
  H   H3023     1.0  0.75031  0.73108  0.68394  1.0000
  H   H3024     1.0  0.80443  0.63396  0.51635  1.0000
  C   C1788     1.0  0.79568  0.64010  0.51714  1.0000
  H   H3025     1.0  0.65375  0.58679  0.82836  1.0000
  C   C1789     1.0  0.97382  0.61125  0.89137  1.0000
  H   H3026     1.0  0.92280  0.72776  0.97059  1.0000
  H   H3027     1.0  0.73406  0.72905  0.73980  1.0000
  H   H3028     1.0  0.79028  0.54864  0.98151  1.0000
  N   N126      1.0  0.95052  0.56678  0.66054  1.0000
  H   H3029     1.0  0.80161  0.56006  0.95160  1.0000
  H   H3030     1.0  0.67716  0.59320  0.76379  1.0000
  C   C1790     1.0  0.93214  0.67288  0.49984  1.0000
  H   H3031     1.0  0.77100  0.72711  0.71367  1.0000
  H   H3032     1.0  0.93473  0.71091  0.53277  1.0000
  H   H3033     1.0  0.84988  0.57660  0.93900  1.0000
  H   H3034     1.0  0.75490  0.71651  0.66395  1.0000
  H   H3035     1.0  0.98436  0.58271  0.61448  1.0000
  H   H3036     1.0  0.71356  0.66302  0.68051  1.0000
  H   H3037     1.0  0.72940  0.70582  0.63314  1.0000
  H   H3038     1.0  0.65669  0.54771  0.74092  1.0000
  H   H3039     1.0  0.70960  0.69923  0.64874  1.0000
  C   C1791     1.0  0.66257  0.52658  0.74303  1.0000
  N   N127      1.0  0.94786  0.72622  0.71089  1.0000
  H   H3040     1.0  0.78925  0.53806  0.94662  1.0000
  C   C1792     1.0  0.94829  0.53836  0.67799  1.0000
  H   H3041     1.0  0.95175  0.73187  0.75857  1.0000
  H   H3042     1.0  0.66752  0.52753  0.72047  1.0000
  H   H3043     1.0  0.92778  0.55740  0.94584  1.0000
  C   C1793     1.0  0.66333  0.54400  0.65611  1.0000
  H   H3044     1.0  0.81703  0.59005  0.63385  1.0000
  H   H3045     1.0  0.68557  0.55379  0.82475  1.0000
  H   H3046     1.0  0.92420  0.72557  0.69309  1.0000
  H   H3047     1.0  0.97240  0.59341  0.62643  1.0000
  H   H3048     1.0  0.95257  0.59186  0.65564  1.0000
  H   H3049     1.0  0.83457  0.51829  0.92577  1.0000
  H   H3050     1.0  0.81566  0.55311  0.91316  1.0000
  H   H3051     1.0  0.65831  0.60258  0.85675  1.0000
  H   H3052     1.0  0.77239  0.64024  0.62957  1.0000
  C   C1794     1.0  0.65350  0.54760  0.88173  1.0000
  H   H3053     1.0  0.93287  0.70353  0.68594  1.0000
  S   S518      1.0  0.88084  0.56376  0.98233  1.0000
  H   H3054     1.0  0.95557  0.72012  0.56718  1.0000
  H   H3055     1.0  0.79451  0.66096  0.60046  1.0000
  H   H3056     1.0  0.67212  0.57895  0.73319  1.0000
  H   H3057     1.0  0.75258  0.71579  0.73275  1.0000
  C   C1795     1.0  0.71259  0.67482  0.67553  1.0000
  H   H3058     1.0  0.70431  0.72266  0.92450  1.0000
  H   H3059     1.0  0.70826  0.67377  0.65157  1.0000
  H   H3060     1.0  0.71538  0.57553  0.74373  1.0000
  C   C1796     1.0  0.98044  0.57430  0.88852  1.0000
  H   H3061     1.0  0.78232  0.63078  0.60678  1.0000
  C   C1797     1.0  0.81378  0.52514  0.93656  1.0000
  C   C1798     1.0  0.72196  0.72506  0.64692  1.0000
  S   S519      1.0  0.91678  0.49236  0.81363  1.0000
  H   H3062     1.0  0.92583  0.57426  0.68402  1.0000
  H   H3063     1.0  0.72288  0.70157  0.72698  1.0000
  C   C1799     1.0  0.71071  0.74018  0.96227  1.0000
  C   C1800     1.0  0.94859  0.55541  0.68621  1.0000
  H   H3064     1.0  0.97705  0.70942  0.52621  1.0000
  H   H3065     1.0  0.67418  0.53331  0.80824  1.0000
  H   H3066     1.0  0.76161  0.62929  0.59603  1.0000
  H   H3067     1.0  0.80245  0.52460  0.92364  1.0000
  H   H3068     1.0  0.93357  0.58784  0.88333  1.0000
  H   H3069     1.0  0.70730  0.70266  0.70139  1.0000
  H   H3070     1.0  0.96048  0.70239  0.57249  1.0000
  H   H3071     1.0  0.81517  0.50649  0.90613  1.0000
  H   H3072     1.0  0.95871  0.56126  0.70399  1.0000
  H   H3073     1.0  0.79238  0.57620  0.60971  1.0000
  C   C1801     1.0  0.81271  0.54479  0.97438  1.0000
  H   H3074     1.0  0.68735  0.72743  0.93459  1.0000
  C   C1802     1.0  0.79146  0.56385  0.61613  1.0000
  H   H3075     1.0  0.78384  0.68558  0.57535  1.0000
  C   C1803     1.0  0.93306  0.73063  0.71306  1.0000
  H   H3076     1.0  0.84004  0.53578  0.49620  1.0000
  H   H3077     1.0  0.98223  0.73633  0.69306  1.0000
  S   S520      1.0  0.75906  0.73424  0.60648  1.0000
  H   H3078     1.0  0.79274  0.67004  0.52109  1.0000
  H   H3079     1.0  0.98448  0.61954  0.90631  1.0000
  S   S521      1.0  0.66629  0.55562  0.98410  1.0000
  N   N128      1.0  0.95396  0.58015  0.89079  1.0000
  C   C1804     1.0  0.94637  0.56661  0.91249  1.0000
  C   C1805     1.0  0.96516  0.57532  0.87190  1.0000
  C   C1806     1.0  0.93985  0.58107  0.87139  1.0000
  C   C1807     1.0  0.96325  0.59603  0.90870  1.0000
  H   H3080     1.0  0.66009  0.72302  0.90949  1.0000
  H   H3081     1.0  0.70317  0.67592  0.68995  1.0000
  C   C1808     1.0  0.94402  0.58890  0.84067  1.0000
  H   H3082     1.0  0.97713  0.57352  0.66377  1.0000
  H   H3083     1.0  0.93955  0.55453  0.90013  1.0000
  H   H3084     1.0  0.95610  0.56504  0.92720  1.0000
  H   H3085     1.0  0.97013  0.58382  0.85350  1.0000
  H   H3086     1.0  0.95793  0.56315  0.86027  1.0000
  H   H3087     1.0  0.93003  0.56849  0.86628  1.0000
  H   H3088     1.0  0.69531  0.53985  0.82160  1.0000
  C   C1809     1.0  0.82341  0.51911  0.91473  1.0000
  H   H3089     1.0  0.73797  0.68758  0.66415  1.0000
  H   H3090     1.0  0.94734  0.58102  0.82509  1.0000
  H   H3091     1.0  0.77968  0.55485  0.60486  1.0000
  C   C1810     1.0  0.98457  0.57679  0.76859  1.0000
  H   H3092     1.0  0.92442  0.57187  0.92234  1.0000
  H   H3093     1.0  0.73427  0.73553  0.64970  1.0000
  H   H3094     1.0  0.84589  0.55581  0.97767  1.0000
  H   H3095     1.0  0.83316  0.51797  0.97965  1.0000
  H   H3096     1.0  0.95398  0.60144  0.84214  1.0000
  H   H3097     1.0  0.93271  0.58980  0.83031  1.0000
  C   C1811     1.0  0.67167  0.57983  0.75778  1.0000
  H   H3098     1.0  0.97666  0.73658  0.65464  1.0000
  C   C1812     1.0  0.78180  0.68111  0.55156  1.0000
  H   H3099     1.0  0.65839  0.57448  0.76322  1.0000
  H   H3100     1.0  0.80371  0.67603  0.55597  1.0000
  H   H3101     1.0  0.96086  0.53920  0.67323  1.0000
  H   H3102     1.0  0.69414  0.58073  0.78186  1.0000
  H   H3103     1.0  0.67999  0.56116  0.71263  1.0000
  H   H3104     1.0  0.71301  0.72699  0.66150  1.0000
  H   H3105     1.0  0.86085  0.73786  0.55968  1.0000
  H   H3106     1.0  0.82703  0.52687  0.89494  1.0000
  H   H3107     1.0  0.91360  0.69661  0.49779  1.0000
  H   H3108     1.0  0.96896  0.71738  0.67193  1.0000
  C   C1813     1.0  0.66438  0.54344  0.75604  1.0000
  C   C1814     1.0  0.93101  0.69790  0.73269  1.0000
  H   H3109     1.0  0.70971  0.57665  0.70519  1.0000
  C   C1815     1.0  0.98044  0.58566  0.74650  1.0000
  H   H3110     1.0  0.70537  0.56050  0.78366  1.0000
  H   H3111     1.0  0.78516  0.58350  0.98414  1.0000
  H   H3112     1.0  0.73496  0.68660  0.70311  1.0000
  H   H3113     1.0  0.92592  0.72505  0.73281  1.0000
  H   H3114     1.0  0.76827  0.67504  0.54570  1.0000
  C   C1816     1.0  0.70098  0.73280  0.93228  1.0000
  H   H3115     1.0  0.83257  0.57531  0.96023  1.0000
  H   H3116     1.0  0.66220  0.58444  0.86395  1.0000
  C   C1817     1.0  0.96453  0.71465  0.56252  1.0000
  C   C1818     1.0  0.97145  0.72491  0.74711  1.0000
  H   H3117     1.0  0.83284  0.58073  0.92251  1.0000
  N   N129      1.0  0.78258  0.65249  0.55610  1.0000
  C   C1819     1.0  0.78184  0.65385  0.58968  1.0000
  C   C1820     1.0  0.79086  0.66980  0.54537  1.0000
  C   C1821     1.0  0.79342  0.64343  0.55014  1.0000
  C   C1822     1.0  0.76514  0.64315  0.54245  1.0000
  C   C1823     1.0  0.77409  0.63748  0.60596  1.0000
  C   C1824     1.0  0.93514  0.73710  0.97900  1.0000
  H   H3118     1.0  0.73048  0.73583  0.70331  1.0000
  C   C1825     1.0  0.76183  0.64603  0.50916  1.0000
  H   H3119     1.0  0.92475  0.57722  0.63318  1.0000
  H   H3120     1.0  0.77438  0.66084  0.59555  1.0000
  H   H3121     1.0  0.77288  0.65076  0.49570  1.0000
  C   C1826     1.0  0.65355  0.58913  0.85278  1.0000
  H   H3122     1.0  0.80606  0.65005  0.56136  1.0000
  H   H3123     1.0  0.78827  0.63109  0.55977  1.0000
  H   H3124     1.0  0.76122  0.62966  0.54483  1.0000
  H   H3125     1.0  0.75619  0.64633  0.55505  1.0000
  H   H3126     1.0  0.94090  0.57874  0.95152  1.0000
  H   H3127     1.0  0.66852  0.52052  0.75811  1.0000
  H   H3128     1.0  0.66541  0.53293  0.65280  1.0000
  H   H3129     1.0  0.96633  0.61817  0.88410  1.0000
  H   H3130     1.0  0.96738  0.71731  0.76706  1.0000
  S   S522      1.0  0.93069  0.73891  0.56195  1.0000
  H   H3131     1.0  0.95096  0.70332  0.70341  1.0000
  H   H3132     1.0  0.96600  0.55725  0.63704  1.0000
  H   H3133     1.0  0.68474  0.61761  0.50688  1.0000
  H   H3134     1.0  0.97654  0.72271  0.57436  1.0000
  C   C1827     1.0  0.93040  0.57057  0.61944  1.0000
  H   H3135     1.0  0.69186  0.54980  0.72065  1.0000
  H   H3136     1.0  0.65811  0.54139  0.77756  1.0000
  H   H3137     1.0  0.80119  0.65150  0.50455  1.0000
  C   C1828     1.0  0.66934  0.57214  0.64404  1.0000
  H   H3138     1.0  0.71397  0.72701  0.72738  1.0000
  H   H3139     1.0  0.98384  0.73478  0.75399  1.0000
  C   C1829     1.0  0.95925  0.73295  0.73868  1.0000
  H   H3140     1.0  0.83526  0.55266  0.91070  1.0000
  N   N130      1.0  0.82325  0.54203  0.95100  1.0000
  C   C1830     1.0  0.83616  0.57276  0.93801  1.0000
  H   H3141     1.0  0.93735  0.70260  0.75498  1.0000
  H   H3142     1.0  0.70325  0.58710  0.73283  1.0000
  C   C1831     1.0  0.70531  0.57580  0.72827  1.0000
  C   C1832     1.0  0.65867  0.73454  0.90941  1.0000
  C   C1833     1.0  0.93822  0.58250  0.69380  1.0000
  H   H3143     1.0  0.96402  0.58928  0.68683  1.0000
  H   H3144     1.0  0.71731  0.72522  0.62345  1.0000
  H   H3145     1.0  0.67536  0.56813  0.79687  1.0000
  C   C1834     1.0  0.93422  0.56900  0.93403  1.0000
  H   H3146     1.0  0.82898  0.54066  0.62044  1.0000
  H   H3147     1.0  0.94452  0.73234  0.97291  1.0000
  H   H3148     1.0  0.83924  0.55252  0.66958  1.0000
  C   C1835     1.0  0.95652  0.73385  0.68320  1.0000
  H   H3149     1.0  0.94431  0.53035  0.69744  1.0000
  H   H3150     1.0  0.94005  0.57830  0.71638  1.0000
  C   C1836     1.0  0.68142  0.57137  0.77520  1.0000
  C   C1837     1.0  0.82702  0.55458  0.92709  1.0000
  H   H3151     1.0  0.95436  0.59968  0.92062  1.0000
  C   C1838     1.0  0.83948  0.54354  0.96600  1.0000
  C   C1839     1.0  0.66199  0.55255  0.94451  1.0000
  H   H3152     1.0  0.82242  0.54180  0.58182  1.0000
  H   H3153     1.0  0.84928  0.57429  0.66358  1.0000
  H   H3154     1.0  0.75506  0.65418  0.50735  1.0000
  H   H3155     1.0  0.97356  0.71744  0.72917  1.0000
  H   H3156     1.0  0.80905  0.51569  0.95379  1.0000
  C   C1840     1.0  0.83230  0.54774  0.59983  1.0000
  H   H3157     1.0  0.84817  0.57224  0.61542  1.0000
  C   C1841     1.0  0.83778  0.56434  0.67065  1.0000
  H   H3158     1.0  0.83705  0.56690  0.69481  1.0000
  Fe  Fe260     1.0  0.88139  0.58575  0.51030  1.0000
  H   H3159     1.0  0.84383  0.54698  0.59225  1.0000
  H   H3160     1.0  0.97956  0.60844  0.87182  1.0000
  H   H3161     1.0  0.93675  0.55285  0.69721  1.0000
  C   C1842     1.0  0.83548  0.56599  0.60496  1.0000
  H   H3162     1.0  0.83631  0.57139  0.58249  1.0000
  H   H3163     1.0  0.84510  0.61169  0.63703  1.0000
  N   N131      1.0  0.95179  0.70393  0.50896  1.0000
  H   H3164     1.0  0.92059  0.56310  0.60225  1.0000
  H   H3165     1.0  0.76170  0.70532  0.70896  1.0000
  H   H3166     1.0  0.79031  0.56255  0.64061  1.0000
  H   H3167     1.0  0.65841  0.59544  0.90980  1.0000
  H   H3168     1.0  0.97255  0.72709  0.52211  1.0000
  H   H3169     1.0  0.78380  0.63137  0.50586  1.0000
  H   H3170     1.0  0.82331  0.54030  0.50840  1.0000
  C   C1843     1.0  0.82137  0.56268  0.65361  1.0000
  H   H3171     1.0  0.81314  0.54928  0.65291  1.0000
  H   H3172     1.0  0.85422  0.59744  0.63184  1.0000
  H   H3173     1.0  0.93782  0.55033  0.62243  1.0000
  H   H3174     1.0  0.94065  0.57961  0.60744  1.0000
  C   C1844     1.0  0.96711  0.71402  0.52871  1.0000
  H   H3175     1.0  0.91834  0.69779  0.73196  1.0000
  H   H3176     1.0  0.67610  0.58296  0.63167  1.0000
  C   C1845     1.0  0.69279  0.55045  0.77914  1.0000
  H   H3177     1.0  0.80209  0.54687  0.60509  1.0000
  N   N132      1.0  0.73048  0.70629  0.68161  1.0000
  C   C1846     1.0  0.72092  0.70833  0.70744  1.0000
  C   C1847     1.0  0.94431  0.68684  0.52105  1.0000
  C   C1848     1.0  0.68638  0.54404  0.81001  1.0000
  N   N133      1.0  0.82274  0.56914  0.62237  1.0000
  C   C1849     1.0  0.84316  0.59869  0.64024  1.0000
  H   H3178     1.0  0.93838  0.59499  0.69678  1.0000
  C   C1850     1.0  0.82683  0.58735  0.62313  1.0000
  H   H3179     1.0  0.81524  0.56868  0.66790  1.0000
  H   H3180     1.0  0.84257  0.59681  0.66467  1.0000
  C   C1851     1.0  0.93571  0.55894  0.63837  1.0000
  S   S523      1.0  0.79344  0.73268  0.58348  1.0000
  C   C1852     1.0  0.80616  0.56046  0.60505  1.0000
  H   H3181     1.0  0.80723  0.56363  0.58105  1.0000
  H   H3182     1.0  0.82727  0.59175  0.59990  1.0000
  C   C1853     1.0  0.95208  0.58315  0.67341  1.0000
  C   C1854     1.0  0.72991  0.68907  0.68137  1.0000
  H   H3183     1.0  0.65366  0.61649  0.89965  1.0000
  H   H3184     1.0  0.65562  0.58344  0.66776  1.0000
  H   H3185     1.0  0.92931  0.68486  0.72998  1.0000
  H   H3186     1.0  0.78503  0.56064  0.51203  1.0000
  C   C1855     1.0  0.65771  0.57236  0.66457  1.0000
  H   H3187     1.0  0.95431  0.68278  0.52828  1.0000
  H   H3188     1.0  0.66771  0.62098  0.49022  1.0000
  C   C1856     1.0  0.97189  0.73062  0.67585  1.0000
  H   H3189     1.0  0.92681  0.66147  0.51263  1.0000
  S   S524      1.0  0.86664  0.60031  0.49641  1.0000
  H   H3190     1.0  0.65688  0.58965  0.96153  1.0000
  H   H3191     1.0  0.97688  0.56386  0.90374  1.0000
  S   S525      1.0  0.79075  0.74063  0.65487  1.0000
  H   H3192     1.0  0.92149  0.67534  0.49099  1.0000
  H   H3193     1.0  0.66025  0.59299  0.50263  1.0000
  H   H3194     1.0  0.80518  0.74173  0.51971  1.0000
  C   C1857     1.0  0.69092  0.64161  0.48925  1.0000
  Fe  Fe261     1.0  0.95473  0.76346  0.13432  1.0000
  S   S526      1.0  0.94924  0.77323  0.09034  1.0000
  H   H3195     1.0  0.72957  0.91773  0.27260  1.0000
  H   H3196     1.0  0.72008  0.75365  0.30543  1.0000
  Fe  Fe262     1.0  0.95598  0.75404  0.06845  1.0000
  C   C1858     1.0  0.71930  0.74619  0.02633  1.0000
  H   H3197     1.0  0.89314  0.76060  0.13469  1.0000
  C   C1859     1.0  0.65794  0.74924  0.43827  1.0000
  H   H3198     1.0  0.67265  0.88006  0.47095  1.0000
  H   H3199     1.0  0.81849  0.79723  0.23814  1.0000
  C   C1860     1.0  0.88178  0.75795  0.12116  1.0000
  S   S527      1.0  0.92800  0.74532  0.13739  1.0000
  H   H3200     1.0  0.92741  0.78118  0.04268  1.0000
  H   H3201     1.0  0.80301  0.74597  0.21541  1.0000
  H   H3202     1.0  0.70619  0.74462  0.33422  1.0000
  H   H3203     1.0  0.72571  0.96883  0.99880  1.0000
  S   S528      1.0  0.79239  0.76275  0.11775  1.0000
  Fe  Fe263     1.0  0.73966  0.79613  0.33386  1.0000
  S   S529      1.0  0.75233  0.81738  0.36762  1.0000
  S   S530      1.0  0.75156  0.79525  0.28898  1.0000
  Fe  Fe264     1.0  0.70685  0.78392  0.36745  1.0000
  S   S531      1.0  0.71738  0.80417  0.40286  1.0000
  S   S532      1.0  0.67935  0.76631  0.35952  1.0000
  Fe  Fe265     1.0  0.72865  0.82150  0.36588  1.0000
  S   S533      1.0  0.72285  0.84424  0.35761  1.0000
  Fe  Fe266     1.0  0.74034  0.79864  0.40261  1.0000
  S   S534      1.0  0.75418  0.80035  0.44818  1.0000
  S   S535      1.0  0.71673  0.80142  0.33028  1.0000
  S   S536      1.0  0.72907  0.77716  0.36900  1.0000
  Fe  Fe267     1.0  0.74517  0.93987  0.38047  1.0000
  S   S537      1.0  0.72789  0.93834  0.34129  1.0000
  S   S538      1.0  0.75797  0.92211  0.38500  1.0000
  Fe  Fe268     1.0  0.73983  0.96850  0.41056  1.0000
  S   S539      1.0  0.72172  0.96845  0.37270  1.0000
  H   H3204     1.0  0.84103  0.79023  0.23205  1.0000
  Fe  Fe269     1.0  0.71096  0.94088  0.37524  1.0000
  S   S540      1.0  0.68407  0.92224  0.36777  1.0000
  Fe  Fe270     1.0  0.74018  0.96613  0.34144  1.0000
  S   S541      1.0  0.74329  0.97674  0.29399  1.0000
  S   S542      1.0  0.72765  0.94090  0.41464  1.0000
  S   S543      1.0  0.75895  0.96768  0.37909  1.0000
  C   C1861     1.0  0.66907  0.91684  0.39514  1.0000
  C   C1862     1.0  0.67161  0.92618  0.42178  1.0000
  C   C1863     1.0  0.77878  0.96384  0.28083  1.0000
  N   N134      1.0  0.77139  0.94554  0.28576  1.0000
  S   S544      1.0  0.97074  0.78305  0.17002  1.0000
  H   H3205     1.0  0.68315  0.93690  0.42630  1.0000
  C   C1864     1.0  0.81007  0.74771  0.26187  1.0000
  H   H3206     1.0  0.68350  0.77923  0.29798  1.0000
  H   H3207     1.0  0.76460  0.94848  0.33058  1.0000
  H   H3208     1.0  0.83637  0.79455  0.18394  1.0000
  H   H3209     1.0  0.77109  0.80269  0.01328  1.0000
  H   H3210     1.0  0.81612  0.76440  0.18066  1.0000
  H   H3211     1.0  0.69940  0.76587  0.31219  1.0000
  C   C1865     1.0  0.83356  0.77691  0.23518  1.0000
  C   C1866     1.0  0.65900  0.92185  0.44235  1.0000
  C   C1867     1.0  0.73369  0.86597  0.36376  1.0000
  C   C1868     1.0  0.74875  0.87320  0.38094  1.0000
  C   C1869     1.0  0.75626  0.89043  0.38652  1.0000
  C   C1870     1.0  0.74876  0.90065  0.37529  1.0000
  C   C1871     1.0  0.73387  0.89346  0.35763  1.0000
  C   C1872     1.0  0.72645  0.87627  0.35187  1.0000
  H   H3212     1.0  0.75450  0.86549  0.39024  1.0000
  H   H3213     1.0  0.76778  0.89583  0.40018  1.0000
  H   H3214     1.0  0.72794  0.90110  0.34876  1.0000
  H   H3215     1.0  0.71486  0.87085  0.33842  1.0000
  C   C1873     1.0  0.69160  0.74194  0.24713  1.0000
  C   C1874     1.0  0.85219  0.75153  0.08655  1.0000
  C   C1875     1.0  0.66493  0.75644  0.38692  1.0000
  C   C1876     1.0  0.76469  0.76220  0.01211  1.0000
  H   H3216     1.0  0.78051  0.91343  0.25964  1.0000
  H   H3217     1.0  0.71148  0.76689  0.20970  1.0000
  C   C1877     1.0  0.75821  0.78527  0.46887  1.0000
  C   C1878     1.0  0.75578  0.76993  0.45616  1.0000
  Fe  Fe271     1.0  0.77716  0.74424  0.08077  1.0000
  H   H3218     1.0  0.77407  0.78160  0.04615  1.0000
  H   H3219     1.0  0.71165  0.76611  0.02083  1.0000
  H   H3220     1.0  0.75103  0.76685  0.43313  1.0000
  S   S545      1.0  0.96274  0.74519  0.11213  1.0000
  C   C1879     1.0  0.76169  0.76089  0.22080  1.0000
  C   C1880     1.0  0.76450  0.77709  0.21407  1.0000
  C   C1881     1.0  0.76159  0.78742  0.23537  1.0000
  C   C1882     1.0  0.75579  0.78177  0.26369  1.0000
  C   C1883     1.0  0.75318  0.76563  0.27053  1.0000
  C   C1884     1.0  0.75606  0.75529  0.24922  1.0000
  C   C1885     1.0  0.69525  0.75413  0.29883  1.0000
  H   H3221     1.0  0.76368  0.79986  0.22974  1.0000
  H   H3222     1.0  0.74897  0.76111  0.29225  1.0000
  H   H3223     1.0  0.70752  0.85446  0.42858  1.0000
  S   S546      1.0  0.97138  0.75586  0.02741  1.0000
  H   H3224     1.0  0.67904  0.76346  0.23414  1.0000
  H   H3225     1.0  0.72133  0.76540  0.26187  1.0000
  H   H3226     1.0  0.76921  0.91353  0.29138  1.0000
  C   C1886     1.0  0.68112  0.76290  0.25875  1.0000
  C   C1887     1.0  0.71117  0.86158  0.45026  1.0000
  H   H3227     1.0  0.74281  0.91713  0.30322  1.0000
  H   H3228     1.0  0.94906  0.77203  0.01186  1.0000
  C   C1888     1.0  0.86627  0.75102  0.07333  1.0000
  C   C1889     1.0  0.70692  0.74598  0.30961  1.0000
  C   C1890     1.0  0.76931  0.77835  0.02315  1.0000
  H   H3229     1.0  0.72574  0.75219  0.04803  1.0000
  H   H3230     1.0  0.66188  0.75000  0.46173  1.0000
  H   H3231     1.0  0.74697  0.94592  0.28546  1.0000
  H   H3232     1.0  0.72583  0.78634  0.22504  1.0000
  H   H3233     1.0  0.66151  0.80476  0.44012  1.0000
  H   H3234     1.0  0.69411  0.90438  0.42660  1.0000
  C   C1891     1.0  0.70094  0.87188  0.45552  1.0000
  S   S547      1.0  0.76512  0.74711  0.19502  1.0000
  C   C1892     1.0  0.68980  0.88459  0.37822  1.0000
  C   C1893     1.0  0.81292  0.77349  0.19329  1.0000
  C   C1894     1.0  0.93555  0.76905  0.00792  1.0000
  C   C1895     1.0  0.75973  0.75863  0.47320  1.0000
  C   C1896     1.0  0.68348  0.77962  0.27323  1.0000
  C   C1897     1.0  0.85294  0.75569  0.11707  1.0000
  C   C1898     1.0  0.98222  0.78192  0.20335  1.0000
  S   S548      1.0  0.89874  0.75409  0.07221  1.0000
  H   H3235     1.0  0.85108  0.76518  0.23263  1.0000
  H   H3236     1.0  0.69855  0.90096  0.46366  1.0000
  H   H3237     1.0  0.84791  0.77408  0.19810  1.0000
  H   H3238     1.0  0.83680  0.78379  0.48614  1.0000
  C   C1899     1.0  0.65401  0.90296  0.38958  1.0000
  H   H3239     1.0  0.82116  0.74523  0.25746  1.0000
  C   C1900     1.0  0.71306  0.77665  0.22677  1.0000
  C   C1901     1.0  0.98352  0.76738  0.21172  1.0000
  H   H3240     1.0  0.74315  0.91222  0.44810  1.0000
  H   H3241     1.0  0.79156  0.75356  0.23752  1.0000
  H   H3242     1.0  0.81871  0.79994  0.18836  1.0000
  H   H3243     1.0  0.70053  0.89614  0.37369  1.0000
  C   C1902     1.0  0.78081  0.93772  0.26845  1.0000
  H   H3244     1.0  0.79745  0.78298  0.23158  1.0000
  H   H3245     1.0  0.66094  0.92929  0.46271  1.0000
  H   H3246     1.0  0.92457  0.78807  0.00688  1.0000
  H   H3247     1.0  0.68243  0.86365  0.40630  1.0000
  C   C1903     1.0  0.65900  0.79263  0.42951  1.0000
  S   S549      1.0  0.74177  0.98494  0.45209  1.0000
  H   H3248     1.0  0.76746  0.93031  0.32484  1.0000
  H   H3249     1.0  0.77645  0.93593  0.24435  1.0000
  C   C1904     1.0  0.75331  0.93882  0.27475  1.0000
  H   H3250     1.0  0.83260  0.75487  0.20962  1.0000
  H   H3251     1.0  0.77306  0.97020  0.29533  1.0000
  C   C1905     1.0  0.66976  0.75751  0.41736  1.0000
  C   C1906     1.0  0.82274  0.79041  0.18005  1.0000
  H   H3252     1.0  0.79232  0.96947  0.28749  1.0000
  H   H3253     1.0  0.80610  0.77045  0.48220  1.0000
  H   H3254     1.0  0.66311  0.78525  0.44515  1.0000
  C   C1907     1.0  0.79014  0.95149  0.33448  1.0000
  H   H3255     1.0  0.79169  0.92301  0.29346  1.0000
  C   C1908     1.0  0.77252  0.94340  0.31905  1.0000
  H   H3256     1.0  0.65447  0.94811  0.34835  1.0000
  H   H3257     1.0  0.82024  0.78931  0.15537  1.0000
  Fe  Fe272     1.0  0.77569  0.74463  0.14965  1.0000
  H   H3258     1.0  0.70433  0.78247  0.22137  1.0000
  H   H3259     1.0  0.98402  0.79850  0.07299  1.0000
  H   H3260     1.0  0.70486  0.87813  0.47806  1.0000
  H   H3261     1.0  0.79426  0.94618  0.26907  1.0000
  H   H3262     1.0  0.81956  0.78415  0.28797  1.0000
  H   H3263     1.0  0.69506  0.97462  0.98955  1.0000
  H   H3264     1.0  0.78483  0.98249  0.24718  1.0000
  C   C1909     1.0  0.74275  0.92047  0.27949  1.0000
  H   H3265     1.0  0.67914  0.88749  0.38400  1.0000
  H   H3266     1.0  0.73108  0.89702  0.47282  1.0000
  H   H3267     1.0  0.80485  0.79321  0.28401  1.0000
  H   H3268     1.0  0.72476  0.86926  0.45145  1.0000
  S   S550      1.0  0.76550  0.74624  0.03476  1.0000
  H   H3269     1.0  0.81350  0.79000  0.46568  1.0000
  H   H3270     1.0  0.76883  0.78165  0.19241  1.0000
  C   C1910     1.0  0.80975  0.78431  0.24169  1.0000
  C   C1911     1.0  0.84170  0.76724  0.21776  1.0000
  H   H3271     1.0  0.68265  0.76455  0.42478  1.0000
  H   H3272     1.0  0.68783  0.86292  0.45750  1.0000
  H   H3273     1.0  0.84092  0.74918  0.07295  1.0000
  C   C1912     1.0  0.67420  0.88463  0.44784  1.0000
  C   C1913     1.0  0.80789  0.78298  0.27568  1.0000
  H   H3274     1.0  0.79425  0.96502  0.33730  1.0000
  H   H3275     1.0  0.72018  0.90454  0.41014  1.0000
  C   C1914     1.0  0.78028  0.92108  0.27936  1.0000
  H   H3276     1.0  0.70889  0.85253  0.46815  1.0000
  C   C1915     1.0  0.71689  0.75921  0.00659  1.0000
  H   H3277     1.0  0.67280  0.78253  0.26578  1.0000
  H   H3278     1.0  0.79733  0.77144  0.28112  1.0000
  H   H3279     1.0  0.94511  0.79476  0.02490  1.0000
  H   H3280     1.0  0.66317  0.86219  0.00611  1.0000
  C   C1916     1.0  0.88119  0.75430  0.09047  1.0000
  H   H3281     1.0  0.76432  0.96699  0.24159  1.0000
  H   H3282     1.0  0.78986  0.94673  0.35738  1.0000
  Fe  Fe273     1.0  0.92306  0.75353  0.09209  1.0000
  N   N135      1.0  0.69487  0.75729  0.26585  1.0000
  C   C1917     1.0  0.73024  0.90509  0.45481  1.0000
  N   N136      1.0  0.70180  0.88405  0.43189  1.0000
  C   C1918     1.0  0.71959  0.89530  0.42699  1.0000
  C   C1919     1.0  0.69403  0.87468  0.40277  1.0000
  H   H3283     1.0  0.75793  0.74687  0.46303  1.0000
  H   H3284     1.0  0.83578  0.77581  0.25953  1.0000
  H   H3285     1.0  0.97710  0.75622  0.19811  1.0000
  H   H3286     1.0  0.79949  0.77004  0.18701  1.0000
  H   H3287     1.0  0.79941  0.94870  0.32231  1.0000
  C   C1920     1.0  0.77731  0.96903  0.24841  1.0000
  H   H3288     1.0  0.72624  0.88826  0.41739  1.0000
  C   C1921     1.0  0.81259  0.78386  0.48736  1.0000
  C   C1922     1.0  0.93294  0.78411  0.02054  1.0000
  H   H3289     1.0  0.70237  0.86958  0.39282  1.0000
  H   H3290     1.0  0.75842  0.98211  0.03677  1.0000
  S   S551      1.0  0.83608  0.75796  0.13452  1.0000
  H   H3291     1.0  0.75205  0.94031  0.25026  1.0000
  N   N137      1.0  0.81545  0.77233  0.22669  1.0000
  C   C1923     1.0  0.76758  0.79028  0.00444  1.0000
  H   H3292     1.0  0.74648  0.91247  0.26502  1.0000
  H   H3293     1.0  0.68603  0.87706  0.35695  1.0000
  H   H3294     1.0  0.66772  0.87415  0.43174  1.0000
  C   C1924     1.0  0.76262  0.99131  0.01997  1.0000
  H   H3295     1.0  0.92916  0.75863  0.02257  1.0000
  H   H3296     1.0  0.69490  0.78992  0.26659  1.0000
  C   C1925     1.0  0.69279  0.89426  0.44208  1.0000
  C   C1926     1.0  0.86782  0.75883  0.13425  1.0000
  H   H3297     1.0  0.86863  0.76213  0.15782  1.0000
  H   H3298     1.0  0.66908  0.75385  0.26640  1.0000
  H   H3299     1.0  0.81271  0.75562  0.28241  1.0000
  H   H3300     1.0  0.78211  0.96276  0.23211  1.0000
  H   H3301     1.0  0.74042  0.98462  0.23246  1.0000
  H   H3302     1.0  0.66699  0.79480  0.41009  1.0000
  H   H3303     1.0  0.72975  0.76813  0.00230  1.0000
  H   H3304     1.0  0.75392  0.74284  0.25484  1.0000
  H   H3305     1.0  0.71880  0.78867  0.98958  1.0000
  H   H3306     1.0  0.71553  0.78103  0.27472  1.0000
  C   C1927     1.0  0.71158  0.77022  0.25879  1.0000
  C   C1928     1.0  0.80448  0.75485  0.23432  1.0000
  H   H3307     1.0  0.79412  0.85051  0.00236  1.0000
  H   H3308     1.0  0.90096  0.76374  0.00565  1.0000
  H   H3309     1.0  0.86562  0.74823  0.04957  1.0000
  H   H3310     1.0  0.72581  0.91423  0.46360  1.0000
  H   H3311     1.0  0.68256  0.74647  0.30604  1.0000
  H   H3312     1.0  0.68588  0.75685  0.99562  1.0000
  H   H3313     1.0  0.66763  0.89287  0.44493  1.0000
  H   H3314     1.0  0.97978  0.79126  0.02022  1.0000
  C   C1929     1.0  0.98365  0.77065  0.00203  1.0000
  Fe  Fe274     1.0  0.80824  0.74793  0.11979  1.0000
  C   C1930     1.0  0.76172  0.98628  0.98961  1.0000
  H   H3315     1.0  0.69032  0.74416  0.22294  1.0000
  H   H3316     1.0  0.98387  0.75607  0.46491  1.0000
  Fe  Fe275     1.0  0.95473  0.76696  0.63052  1.0000
  S   S552      1.0  0.94781  0.77689  0.58766  1.0000
  S   S553      1.0  0.96743  0.78352  0.67275  1.0000
  H   H3317     1.0  0.70335  0.76420  0.93578  1.0000
  Fe  Fe276     1.0  0.95638  0.75945  0.56320  1.0000
  H   H3318     1.0  0.70779  0.87789  0.86481  1.0000
  Fe  Fe277     1.0  0.92252  0.75554  0.58931  1.0000
  H   H3319     1.0  0.77106  0.89402  0.92835  1.0000
  C   C1931     1.0  0.66769  0.90695  0.94270  1.0000
  H   H3320     1.0  0.71082  0.89820  0.90678  1.0000
  C   C1932     1.0  0.68171  0.96344  0.94758  1.0000
  C   C1933     1.0  0.86849  0.76930  0.62538  1.0000
  H   H3321     1.0  0.72435  0.77127  0.95026  1.0000
  H   H3322     1.0  0.80158  0.97740  0.69958  1.0000
  C   C1934     1.0  0.83033  0.78870  0.50192  1.0000
  H   H3323     1.0  0.68438  0.95232  0.94870  1.0000
  S   S554      1.0  0.79305  0.76815  0.60544  1.0000
  Fe  Fe278     1.0  0.73973  0.78447  0.83964  1.0000
  S   S555      1.0  0.75894  0.80731  0.86347  1.0000
  S   S556      1.0  0.74961  0.76963  0.80935  1.0000
  Fe  Fe279     1.0  0.71146  0.78752  0.87345  1.0000
  S   S557      1.0  0.72890  0.81058  0.89866  1.0000
  S   S558      1.0  0.68468  0.78169  0.88413  1.0000
  Fe  Fe280     1.0  0.74054  0.81874  0.85518  1.0000
  S   S559      1.0  0.74965  0.84471  0.83687  1.0000
  Fe  Fe281     1.0  0.74573  0.79733  0.90540  1.0000
  S   S560      1.0  0.75873  0.80149  0.95214  1.0000
  S   S561      1.0  0.72205  0.79650  0.82880  1.0000
  S   S562      1.0  0.72762  0.77372  0.88267  1.0000
  Fe  Fe282     1.0  0.74385  0.93315  0.87886  1.0000
  S   S563      1.0  0.72576  0.93426  0.84269  1.0000
  S   S564      1.0  0.74454  0.90877  0.89400  1.0000
  Fe  Fe283     1.0  0.75243  0.96895  0.90091  1.0000
  S   S565      1.0  0.73451  0.97183  0.86619  1.0000
  C   C1935     1.0  0.81776  0.75196  0.51991  1.0000
  Fe  Fe284     1.0  0.71682  0.94649  0.87792  1.0000
  S   S566      1.0  0.68931  0.94118  0.88058  1.0000
  Fe  Fe285     1.0  0.74500  0.95972  0.83344  1.0000
  S   S567      1.0  0.74693  0.96709  0.78394  1.0000
  S   S568      1.0  0.73389  0.94440  0.91479  1.0000
  S   S569      1.0  0.76394  0.95779  0.86755  1.0000
  C   C1936     1.0  0.67474  0.92660  0.90302  1.0000
  C   C1937     1.0  0.75143  0.84385  0.95075  1.0000
  S   S570      1.0  0.89615  0.75266  0.57343  1.0000
  C   C1938     1.0  0.78939  0.85434  0.87891  1.0000
  C   C1939     1.0  0.67972  0.91896  0.92622  1.0000
  C   C1940     1.0  0.71132  0.76757  0.95696  1.0000
  H   H3324     1.0  0.70477  0.95446  0.98692  1.0000
  H   H3325     1.0  0.69283  0.92221  0.93130  1.0000
  C   C1941     1.0  0.93425  0.77826  0.95521  1.0000
  H   H3326     1.0  0.70681  0.88658  0.79876  1.0000
  N   N138      1.0  0.83169  0.78311  0.53330  1.0000
  C   C1942     1.0  0.75846  0.75821  0.98214  1.0000
  H   H3327     1.0  0.76992  0.75721  0.77730  1.0000
  C   C1943     1.0  0.66938  0.76353  0.89786  1.0000
  H   H3328     1.0  0.77286  0.78071  0.53911  1.0000
  C   C1944     1.0  0.74676  0.86204  0.85157  1.0000
  C   C1945     1.0  0.73850  0.86137  0.87781  1.0000
  C   C1946     1.0  0.73772  0.87574  0.89009  1.0000
  C   C1947     1.0  0.74471  0.89086  0.87589  1.0000
  C   C1948     1.0  0.75243  0.89140  0.84904  1.0000
  C   C1949     1.0  0.75356  0.87710  0.83713  1.0000
  H   H3329     1.0  0.73291  0.84983  0.88885  1.0000
  H   H3330     1.0  0.73170  0.87515  0.91086  1.0000
  H   H3331     1.0  0.75798  0.90294  0.83794  1.0000
  H   H3332     1.0  0.75993  0.87778  0.81675  1.0000
  H   H3333     1.0  0.66146  0.86741  0.85262  1.0000
  H   H3334     1.0  0.81681  0.80791  0.53607  1.0000
  H   H3335     1.0  0.69023  0.98804  0.96617  1.0000
  H   H3336     1.0  0.83699  0.74218  0.57995  1.0000
  C   C1950     1.0  0.70699  0.87842  0.81713  1.0000
  S   S571      1.0  0.83586  0.76584  0.62567  1.0000
  C   C1951     1.0  0.76450  0.78905  0.49887  1.0000
  C   C1952     1.0  0.75682  0.77013  0.96342  1.0000
  H   H3337     1.0  0.93008  0.77377  0.93158  1.0000
  H   H3338     1.0  0.69793  0.86562  0.81178  1.0000
  C   C1953     1.0  0.75352  0.98744  0.73556  1.0000
  H   H3339     1.0  0.75216  0.76687  0.94037  1.0000
  C   C1954     1.0  0.98466  0.77447  0.49760  1.0000
  C   C1955     1.0  0.75867  0.76677  0.70853  1.0000
  Fe  Fe286     1.0  0.77520  0.75422  0.64018  1.0000
  C   C1956     1.0  0.76465  0.84519  0.92809  1.0000
  C   C1957     1.0  0.75233  0.76822  0.77021  1.0000
  C   C1958     1.0  0.74413  0.77382  0.74847  1.0000
  C   C1959     1.0  0.74736  0.77318  0.71793  1.0000
  C   C1960     1.0  0.68692  0.89233  0.88204  1.0000
  S   S572      1.0  0.76226  0.76649  0.66960  1.0000
  H   H3340     1.0  0.73517  0.77850  0.75511  1.0000
  H   H3341     1.0  0.74094  0.77759  0.70138  1.0000
  C   C1961     1.0  0.87939  0.75525  0.59060  1.0000
  H   H3342     1.0  0.71954  0.87823  0.81796  1.0000
  Fe  Fe287     1.0  0.77799  0.74720  0.57306  1.0000
  H   H3343     1.0  0.79292  0.88466  0.91710  1.0000
  C   C1962     1.0  0.88199  0.76650  0.61456  1.0000
  H   H3344     1.0  0.75878  0.84495  0.90543  1.0000
  H   H3345     1.0  0.82674  0.74727  0.52975  1.0000
  C   C1963     1.0  0.70436  0.88500  0.84769  1.0000
  C   C1964     1.0  0.71763  0.96111  0.97983  1.0000
  H   H3346     1.0  0.92742  0.78595  0.96024  1.0000
  H   H3347     1.0  0.67164  0.90095  0.96040  1.0000
  C   C1965     1.0  0.67126  0.74866  0.89838  1.0000
  C   C1966     1.0  0.83159  0.79555  0.55656  1.0000
  H   H3348     1.0  0.72420  0.74520  0.95804  1.0000
  H   H3349     1.0  0.96084  0.74741  0.68454  1.0000
  H   H3350     1.0  0.79900  0.84361  0.96803  1.0000
  N   N139      1.0  0.77976  0.82403  0.76719  1.0000
  C   C1967     1.0  0.76357  0.81945  0.74885  1.0000
  C   C1968     1.0  0.79383  0.83083  0.74645  1.0000
  C   C1969     1.0  0.78188  0.83682  0.79137  1.0000
  C   C1970     1.0  0.77963  0.80887  0.78188  1.0000
  C   C1971     1.0  0.74781  0.81501  0.76663  1.0000
  C   C1972     1.0  0.79584  0.81809  0.72490  1.0000
  C   C1973     1.0  0.78126  0.85294  0.78049  1.0000
  C   C1974     1.0  0.79540  0.81102  0.80130  1.0000
  H   H3351     1.0  0.76410  0.82950  0.73385  1.0000
  H   H3352     1.0  0.76123  0.80867  0.73352  1.0000
  H   H3353     1.0  0.80599  0.83754  0.75911  1.0000
  H   H3354     1.0  0.79226  0.84028  0.73214  1.0000
  H   H3355     1.0  0.77238  0.83173  0.80831  1.0000
  H   H3356     1.0  0.79404  0.84039  0.80421  1.0000
  H   H3357     1.0  0.76926  0.80399  0.79711  1.0000
  H   H3358     1.0  0.77690  0.79855  0.76527  1.0000
  H   H3359     1.0  0.74786  0.82569  0.77979  1.0000
  H   H3360     1.0  0.73673  0.81092  0.75065  1.0000
  H   H3361     1.0  0.74594  0.80474  0.78164  1.0000
  H   H3362     1.0  0.80547  0.82464  0.70896  1.0000
  H   H3363     1.0  0.80018  0.80964  0.73704  1.0000
  H   H3364     1.0  0.78419  0.81077  0.71136  1.0000
  H   H3365     1.0  0.78247  0.86113  0.80031  1.0000
  H   H3366     1.0  0.76927  0.85088  0.76840  1.0000
  H   H3367     1.0  0.79170  0.85966  0.76623  1.0000
  H   H3368     1.0  0.79422  0.81423  0.82494  1.0000
  H   H3369     1.0  0.80699  0.82041  0.79322  1.0000
  H   H3370     1.0  0.79704  0.79927  0.80061  1.0000
  H   H3371     1.0  0.76621  0.83337  0.92825  1.0000
  H   H3372     1.0  0.86660  0.80532  0.55582  1.0000
  C   C1975     1.0  0.85214  0.76064  0.61299  1.0000
  H   H3373     1.0  0.87077  0.77838  0.64333  1.0000
  H   H3374     1.0  0.83281  0.79128  0.57955  1.0000
  H   H3375     1.0  0.80420  0.96136  0.66091  1.0000
  H   H3376     1.0  0.77723  0.84409  0.87290  1.0000
  C   C1976     1.0  0.76818  0.77764  0.51606  1.0000
  H   H3377     1.0  0.81882  0.76361  0.56293  1.0000
  H   H3378     1.0  0.68040  0.96629  0.92380  1.0000
  H   H3379     1.0  0.80136  0.87255  0.96505  1.0000
  H   H3380     1.0  0.67257  0.86280  0.82442  1.0000
  H   H3381     1.0  0.77739  0.97504  0.66160  1.0000
  H   H3382     1.0  0.77553  0.75611  0.72346  1.0000
  C   C1977     1.0  0.76588  0.76236  0.50325  1.0000
  H   H3383     1.0  0.94125  0.75560  0.69546  1.0000
  H   H3384     1.0  0.86361  0.80387  0.51517  1.0000
  H   H3385     1.0  0.80448  0.78763  0.50096  1.0000
  H   H3386     1.0  0.71398  0.89784  0.85110  1.0000
  H   H3387     1.0  0.69442  0.90730  0.82806  1.0000
  H   H3388     1.0  0.69161  0.90597  0.88063  1.0000
  H   H3389     1.0  0.68312  0.88932  0.80521  1.0000
  H   H3390     1.0  0.79893  0.85137  0.86789  1.0000
  C   C1978     1.0  0.71176  0.99130  0.92371  1.0000
  H   H3391     1.0  0.89449  0.77342  0.62410  1.0000
  C   C1979     1.0  0.77192  0.88358  0.94058  1.0000
  H   H3392     1.0  0.97458  0.79853  0.73214  1.0000
  C   C1980     1.0  0.93927  0.75383  0.96454  1.0000
  C   C1981     1.0  0.84798  0.78131  0.53805  1.0000
  H   H3393     1.0  0.96029  0.78425  0.94430  1.0000
  C   C1982     1.0  0.81639  0.79997  0.55518  1.0000
  C   C1983     1.0  0.78025  0.87514  0.92072  1.0000
  H   H3394     1.0  0.67452  0.85686  0.89190  1.0000
  H   H3395     1.0  0.69660  0.87715  0.91014  1.0000
  H   H3396     1.0  0.83690  0.80233  0.50121  1.0000
  S   S573      1.0  0.92889  0.74678  0.63311  1.0000
  H   H3397     1.0  0.68085  0.74643  0.96089  1.0000
  H   H3398     1.0  0.84884  0.77224  0.52153  1.0000
  H   H3399     1.0  0.75903  0.87537  0.94525  1.0000
  H   H3400     1.0  0.66736  0.90368  0.85199  1.0000
  N   N140      1.0  0.71220  0.98459  0.95441  1.0000
  H   H3401     1.0  0.77328  0.87270  0.89852  1.0000
  C   C1984     1.0  0.86302  0.74655  0.57827  1.0000
  C   C1985     1.0  0.68823  0.74743  0.98230  1.0000
  H   H3402     1.0  0.72238  0.95160  0.97466  1.0000
  C   C1986     1.0  0.67572  0.85433  0.86803  1.0000
  H   H3403     1.0  0.74145  0.97883  0.72651  1.0000
  C   C1987     1.0  0.78755  0.98716  0.66855  1.0000
  S   S574      1.0  0.96456  0.75087  0.60584  1.0000
  H   H3404     1.0  0.84244  0.80750  0.55494  1.0000
  Fe  Fe288     1.0  0.80749  0.75289  0.61771  1.0000
  C   C1988     1.0  0.65767  0.92257  0.89725  1.0000
  H   H3405     1.0  0.80915  0.98346  0.60826  1.0000
  H   H3406     1.0  0.95420  0.80100  0.94246  1.0000
  H   H3407     1.0  0.66741  0.90627  0.81271  1.0000
  C   C1989     1.0  0.67379  0.86744  0.84805  1.0000
  H   H3408     1.0  0.80624  0.86580  0.91701  1.0000
  C   C1990     1.0  0.68395  0.89491  0.82798  1.0000
  C   C1991     1.0  0.75927  0.98503  0.76431  1.0000
  H   H3409     1.0  0.71381  0.79270  0.95243  1.0000
  S   S575      1.0  0.77105  0.74777  0.52327  1.0000
  H   H3410     1.0  0.90813  0.74836  0.94845  1.0000
  H   H3411     1.0  0.69364  0.89327  0.92981  1.0000
  C   C1992     1.0  0.79339  0.85605  0.91309  1.0000
  C   C1993     1.0  0.76348  0.76160  0.76077  1.0000
  H   H3412     1.0  0.75695  0.97333  0.98325  1.0000
  H   H3413     1.0  0.78163  0.86689  0.97894  1.0000
  C   C1994     1.0  0.69755  0.88985  0.90842  1.0000
  H   H3414     1.0  0.80435  0.78911  0.55418  1.0000
  H   H3415     1.0  0.79415  0.84431  0.91940  1.0000
  C   C1995     1.0  0.93693  0.74917  0.71637  1.0000
  N   N141      1.0  0.68728  0.88461  0.85183  1.0000
  C   C1996     1.0  0.76668  0.76092  0.73019  1.0000
  H   H3416     1.0  0.78974  0.86588  0.86929  1.0000
  H   H3417     1.0  0.84885  0.77640  0.56051  1.0000
  C   C1997     1.0  0.86398  0.79709  0.53557  1.0000
  H   H3418     1.0  0.81676  0.80726  0.57582  1.0000
  C   C1998     1.0  0.95285  0.79001  0.95539  1.0000
  H   H3419     1.0  0.82232  0.98068  0.66461  1.0000
  N   N142      1.0  0.78133  0.85964  0.93192  1.0000
  H   H3420     1.0  0.67391  0.88815  0.88915  1.0000
  C   C1999     1.0  0.65476  0.76408  0.90817  1.0000
  C   C2000     1.0  0.98076  0.78243  0.70333  1.0000
  H   H3421     1.0  0.76643  0.80088  0.50892  1.0000
  H   H3422     1.0  0.68751  0.85293  0.86496  1.0000
  C   C2001     1.0  0.91174  0.75316  0.97206  1.0000
  C   C2002     1.0  0.66783  0.89774  0.83030  1.0000
  H   H3423     1.0  0.81979  0.96739  0.63357  1.0000
  H   H3424     1.0  0.65370  0.92857  0.87957  1.0000
  C   C2003     1.0  0.76124  0.78622  0.97453  1.0000
  H   H3425     1.0  0.75611  0.85162  0.97137  1.0000
  H   H3426     1.0  0.66546  0.84220  0.86175  1.0000
  H   H3427     1.0  0.71127  0.96210  0.93304  1.0000
  H   H3428     1.0  0.77376  0.97768  0.59704  1.0000
  C   C2004     1.0  0.69496  0.97817  0.96581  1.0000
  H   H3429     1.0  0.79094  0.96931  0.62252  1.0000
  C   C2005     1.0  0.81798  0.76668  0.53902  1.0000
  H   H3430     1.0  0.74139  0.84678  0.93998  1.0000
  C   C2006     1.0  0.81276  0.97194  0.64865  1.0000
  H   H3431     1.0  0.70606  0.98109  0.90647  1.0000
  H   H3432     1.0  0.69723  0.78111  0.97489  1.0000
  C   C2007     1.0  0.71832  0.97109  0.95158  1.0000
  C   C2008     1.0  0.78980  0.84733  0.97844  1.0000
  H   H3433     1.0  0.93701  0.75129  0.93987  1.0000
  H   H3434     1.0  0.87474  0.79362  0.53442  1.0000
  H   H3435     1.0  0.73147  0.97620  0.94517  1.0000
  H   H3436     1.0  0.80555  0.76693  0.53568  1.0000
  C   C2009     1.0  0.98189  0.79132  0.73032  1.0000
  C   C2010     1.0  0.84945  0.74900  0.58967  1.0000
  H   H3437     1.0  0.65650  0.88619  0.82635  1.0000
  S   S576      1.0  0.96979  0.75960  0.51988  1.0000
  C   C2011     1.0  0.89984  0.76100  0.98116  1.0000
  C   C2012     1.0  0.77426  0.98914  0.60801  1.0000
  H   H3438     1.0  0.95296  0.76076  0.96836  1.0000
  C   C2013     1.0  0.80292  0.97969  0.62970  1.0000
  H   H3439     1.0  0.66941  0.96023  0.95717  1.0000
  H   H3440     1.0  0.95832  0.79445  0.97830  1.0000
  C   C2014     1.0  0.78862  0.86245  0.96377  1.0000
  H   H3441     1.0  0.82064  0.75504  0.49637  1.0000
  H   H3442     1.0  0.74558  0.83098  0.95820  1.0000
  H   H3443     1.0  0.92528  0.75061  0.72091  1.0000
  H   H3444     1.0  0.77942  0.88901  0.96168  1.0000
  H   H3445     1.0  0.90131  0.77206  0.96852  1.0000
  N   N143      1.0  0.93014  0.76389  0.97548  1.0000
  C   C2015     1.0  0.71013  0.78326  0.96972  1.0000
  H   H3446     1.0  0.77758  0.83664  0.97804  1.0000
  H   H3447     1.0  0.75494  0.74578  0.97333  1.0000
  H   H3448     1.0  0.96683  0.74640  0.73692  1.0000
  H   H3449     1.0  0.76500  0.98620  0.62540  1.0000
  H   H3450     1.0  0.78394  0.97921  0.71436  1.0000
  N   N144      1.0  0.70655  0.75320  0.97743  1.0000
  C   C2016     1.0  0.79452  0.98518  0.69984  1.0000
  H   H3451     1.0  0.94609  0.75550  0.73517  1.0000
  H   H3452     1.0  0.68223  0.74799  0.88972  1.0000
  H   H3453     1.0  0.88682  0.75194  0.97614  1.0000
  H   H3454     1.0  0.65312  0.77548  0.90759  1.0000
  H   H3455     1.0  0.90852  0.74220  0.98612  1.0000
  H   H3456     1.0  0.70435  0.74193  0.91450  1.0000
