data_image0
_chemical_formula_structural       FeS2HCHC3HFeS2FeS2FeSFeS3H2C6FeH4C6H5CHC3HC2H3C4H11CH4FeC2HCH2CHCH2CH8CNHC2SCHC3HNHSCH7CH2CSCH5CHCNH2NHSH10CHNC2HC4H3CHC3HCH3C2H5CH4CH3FeS2FeSHFeSFeS3HFeHSCH2CH2C4HC7H4C6H4NC8H14C2H11CHCHCHCHCH4CH5CH2CH2CHSNCH3NH2C2H6SH2SH4C2H2CNHSH3C2H2C2HC2H2CH3C2H4NHCH2CH5C2HFeS2HCHCHFeS2FeS2Fe3S3H4C2HC6H4C2H5CH2CH3CHNSHCHSC2H7C2H3FeHCH2CH2CH3FeS2HSFeSFeS3FeS2H3FeHCH4C6H4C3H3CHCH4CHCHCH4CH4CH3CHC3NHC3HCHNH4CH4CFeCHCH2S2HCHC2FeSFeSHFeSFeS3FeS2H2C5H2C7H5NC6HCH9CH4C3H5CH6CH3SHSH4C2H5CH3CFeS2FeS2FeSCS2FeHSC6H4SC2H4C3NFeHC2H6CH3CH3C3H6NSH2C2HCH3C3H8CSCFeCH4CHCH2CFeSHFeS2FeSFeS4HFeS2CH7S2C3HCH2C6H4C6H4CH4NCHC2H2CH5CH5SCHCH2C2H7CH2C6H2CH2CN2H7CHCHSC2HCHNCH3CHCH2FeC2H4C2S2H2FeCHC2H2CH2CH3CH3CH5SFeS2FeS2FeSFeS3HS2CH3C6H4C6H4C3H2CHNC8H19CH7C3H2CHC2H3C2NH12CHC2H2CH3CHNCH4C2H3CHFeH6CH4CNC2H
_chemical_formula_sum              "Fe48 S96 H576 C336 N24"
_cell_length_a       44.2032
_cell_length_b       35.5692
_cell_length_c       34.6879
_cell_angle_alpha    89.9572
_cell_angle_beta     90.0627
_cell_angle_gamma    88.7107

_space_group_name_H-M_alt    "P 1"
_space_group_IT_number       1

loop_
  _space_group_symop_operation_xyz
  'x, y, z'

loop_
  _atom_site_type_symbol
  _atom_site_label
  _atom_site_symmetry_multiplicity
  _atom_site_fract_x
  _atom_site_fract_y
  _atom_site_fract_z
  _atom_site_occupancy
  Fe  Fe1       1.0  0.10797  0.46267  0.18148  1.0000
  S   S1        1.0  0.12744  0.44143  0.12585  1.0000
  S   S2        1.0  0.08522  0.42502  0.22556  1.0000
  H   H1        1.0  0.06111  0.43864  0.12934  1.0000
  C   C1        1.0  0.05876  0.37132  0.09222  1.0000
  H   H2        1.0  0.00594  0.38207  0.02816  1.0000
  C   C2        1.0  0.05056  0.49432  0.01367  1.0000
  C   C3        1.0  0.29221  0.11167  0.38010  1.0000
  C   C4        1.0  0.02674  0.06622  0.46697  1.0000
  H   H3        1.0  0.22627  0.01949  0.36589  1.0000
  Fe  Fe2       1.0  0.14945  0.21510  0.38818  1.0000
  S   S3        1.0  0.15609  0.18658  0.33145  1.0000
  S   S4        1.0  0.19013  0.23777  0.42025  1.0000
  Fe  Fe3       1.0  0.08108  0.20168  0.38650  1.0000
  S   S5        1.0  0.08415  0.17275  0.32861  1.0000
  S   S6        1.0  0.03293  0.20475  0.40956  1.0000
  Fe  Fe4       1.0  0.12490  0.14259  0.35375  1.0000
  S   S7        1.0  0.14269  0.08189  0.35639  1.0000
  Fe  Fe5       1.0  0.11494  0.22024  0.31258  1.0000
  S   S8        1.0  0.11926  0.25169  0.25536  1.0000
  S   S9        1.0  0.12043  0.16945  0.41215  1.0000
  S   S10       1.0  0.10945  0.25077  0.36872  1.0000
  H   H4        1.0  0.24971  0.24252  0.45465  1.0000
  H   H5        1.0  0.02209  0.48974  0.12785  1.0000
  C   C5        1.0  0.22687  0.22822  0.40185  1.0000
  C   C6        1.0  0.25252  0.23283  0.42528  1.0000
  C   C7        1.0  0.28183  0.22440  0.41101  1.0000
  C   C8        1.0  0.28551  0.21182  0.37304  1.0000
  C   C9        1.0  0.25993  0.20803  0.34961  1.0000
  C   C10       1.0  0.23087  0.21597  0.36395  1.0000
  Fe  Fe6       1.0  0.10711  0.49470  0.09959  1.0000
  H   H6        1.0  0.30145  0.22749  0.42932  1.0000
  H   H7        1.0  0.26261  0.19856  0.32014  1.0000
  H   H8        1.0  0.21170  0.21321  0.34528  1.0000
  H   H9        1.0  0.28534  0.35055  0.18687  1.0000
  C   C11       1.0  0.09483  0.37679  0.23329  1.0000
  C   C12       1.0  0.08445  0.35876  0.26673  1.0000
  C   C13       1.0  0.09164  0.32053  0.27394  1.0000
  C   C14       1.0  0.10878  0.29963  0.24729  1.0000
  C   C15       1.0  0.11856  0.31746  0.21340  1.0000
  C   C16       1.0  0.11196  0.35590  0.20663  1.0000
  H   H10       1.0  0.07098  0.37456  0.28741  1.0000
  H   H11       1.0  0.08375  0.30719  0.30000  1.0000
  H   H12       1.0  0.13169  0.30153  0.19250  1.0000
  H   H13       1.0  0.11996  0.36926  0.18067  1.0000
  H   H14       1.0  0.14838  0.35310  0.28199  1.0000
  C   C17       1.0  0.21846  0.06209  0.41185  1.0000
  H   H15       1.0  0.11278  0.09038  0.44246  1.0000
  C   C18       1.0  0.09647  0.03605  0.33051  1.0000
  C   C19       1.0  0.19647  0.30441  0.26460  1.0000
  C   C20       1.0  0.18222  0.38461  0.25263  1.0000
  H   H16       1.0  0.08448  0.06145  0.32159  1.0000
  C   C21       1.0  0.12507  0.03840  0.34752  1.0000
  C   C22       1.0  0.07285  0.38854  0.05577  1.0000
  H   H17       1.0  0.03997  0.04401  0.37189  1.0000
  H   H18       1.0  0.29477  0.13442  0.40163  1.0000
  H   H19       1.0  0.19088  0.15217  0.41222  1.0000
  C   C23       1.0  0.17451  0.30740  0.33021  1.0000
  C   C24       1.0  0.22111  0.34364  0.31453  1.0000
  C   C25       1.0  0.16797  0.32892  0.36797  1.0000
  C   C26       1.0  0.24341  0.31541  0.33379  1.0000
  H   H20       1.0  0.27838  0.07129  0.42246  1.0000
  H   H21       1.0  0.18635  0.28088  0.33872  1.0000
  H   H22       1.0  0.15243  0.29811  0.31838  1.0000
  H   H23       1.0  0.21738  0.36749  0.33492  1.0000
  H   H24       1.0  0.15176  0.35276  0.36357  1.0000
  H   H25       1.0  0.15723  0.30956  0.38878  1.0000
  H   H26       1.0  0.18898  0.33866  0.38187  1.0000
  H   H27       1.0  0.31509  0.09857  0.37641  1.0000
  H   H28       1.0  0.25874  0.30195  0.31226  1.0000
  H   H29       1.0  0.23233  0.29361  0.35100  1.0000
  H   H30       1.0  0.25751  0.33051  0.35505  1.0000
  C   C27       1.0  0.27010  0.08159  0.39388  1.0000
  H   H31       1.0  0.31889  0.49034  0.17182  1.0000
  H   H32       1.0  0.03809  0.11870  0.35838  1.0000
  H   H33       1.0  0.17535  0.30346  0.24713  1.0000
  H   H34       1.0  0.20061  0.11663  0.36192  1.0000
  Fe  Fe7       1.0  0.16820  0.47541  0.14085  1.0000
  C   C28       1.0  0.23541  0.12563  0.42569  1.0000
  C   C29       1.0  0.27556  0.37115  0.09286  1.0000
  H   H35       1.0  0.16599  0.40851  0.24779  1.0000
  C   C30       1.0  0.24897  0.47309  0.13415  1.0000
  H   H36       1.0  0.28556  0.39444  0.07627  1.0000
  H   H37       1.0  0.27335  0.05746  0.37412  1.0000
  C   C31       1.0  0.20567  0.26284  0.27125  1.0000
  H   H38       1.0  0.07802  0.36741  0.11282  1.0000
  C   C32       1.0  0.22491  0.10859  0.35897  1.0000
  H   H39       1.0  0.07587  0.08692  0.39316  1.0000
  H   H40       1.0  0.05163  0.34249  0.08432  1.0000
  C   C33       1.0  0.06615  0.09202  0.42236  1.0000
  H   H41       1.0  0.00797  0.32523  0.14434  1.0000
  H   H42       1.0  0.08825  0.36736  0.04210  1.0000
  H   H43       1.0  0.18195  0.36757  0.22586  1.0000
  H   H44       1.0  0.06433  0.12326  0.42479  1.0000
  H   H45       1.0  0.22555  0.25914  0.29023  1.0000
  H   H46       1.0  0.16953  0.38280  0.31212  1.0000
  H   H47       1.0  0.18644  0.24682  0.28286  1.0000
  H   H48       1.0  0.21153  0.24975  0.24309  1.0000
  C   C34       1.0  0.30496  0.50478  0.11413  1.0000
  N   N1        1.0  0.19156  0.32875  0.29985  1.0000
  H   H49       1.0  0.23396  0.35655  0.29056  1.0000
  C   C35       1.0  0.20320  0.13940  0.43697  1.0000
  C   C36       1.0  0.04854  0.48207  0.97509  1.0000
  S   S11       1.0  0.14968  0.49330  0.19817  1.0000
  C   C37       1.0  0.30066  0.48994  0.15104  1.0000
  H   H50       1.0  0.20482  0.39682  0.25679  1.0000
  C   C38       1.0  0.29867  0.37488  0.17685  1.0000
  C   C39       1.0  0.17179  0.36212  0.28820  1.0000
  C   C40       1.0  0.03083  0.37951  0.15241  1.0000
  H   H51       1.0  0.21384  0.31660  0.24534  1.0000
  N   N2        1.0  0.23728  0.09392  0.39676  1.0000
  H   H52       1.0  0.22000  0.06041  0.44391  1.0000
  S   S12       1.0  0.32091  0.19884  0.35304  1.0000
  C   C41       1.0  0.31437  0.39264  0.21197  1.0000
  H   H53       1.0  0.31426  0.33317  0.08994  1.0000
  H   H54       1.0  0.31804  0.42311  0.20747  1.0000
  H   H55       1.0  0.04895  0.32105  0.14833  1.0000
  H   H56       1.0  0.26971  0.46244  0.18943  1.0000
  H   H57       1.0  0.23496  0.48769  0.07652  1.0000
  H   H58       1.0  0.26300  0.35387  0.07181  1.0000
  H   H59       1.0  0.24723  0.06438  0.32263  1.0000
  C   C42       1.0  0.02838  0.33663  0.15828  1.0000
  H   H60       1.0  0.22646  0.09892  0.29722  1.0000
  H   H61       1.0  0.09349  0.04880  0.45450  1.0000
  C   C43       1.0  0.27279  0.47413  0.16094  1.0000
  S   S13       1.0  0.08622  0.48982  0.03843  1.0000
  C   C44       1.0  0.02099  0.20147  0.45811  1.0000
  H   H62       1.0  0.08702  0.41277  0.06332  1.0000
  H   H63       1.0  0.31444  0.42175  0.12147  1.0000
  H   H64       1.0  0.19405  0.06733  0.40537  1.0000
  H   H65       1.0  0.01093  0.39254  0.16729  1.0000
  H   H66       1.0  0.28757  0.32195  0.12565  1.0000
  C   C45       1.0  0.22633  0.08186  0.32408  1.0000
  H   H67       1.0  0.18947  0.11698  0.44993  1.0000
  C   C46       1.0  0.25303  0.48869  0.09755  1.0000
  N   N3        1.0  0.31878  0.36480  0.14319  1.0000
  H   H68       1.0  0.05095  0.38822  0.16920  1.0000
  H   H69       1.0  0.24731  0.11756  0.45293  1.0000
  N   N4        1.0  0.03539  0.07452  0.42581  1.0000
  H   H70       1.0  0.23532  0.13553  0.35056  1.0000
  S   S14       1.0  0.21564  0.44912  0.14602  1.0000
  H   H71       1.0  0.20621  0.06367  0.32333  1.0000
  H   H72       1.0  0.04466  0.44602  0.08389  1.0000
  H   H73       1.0  0.01027  0.02843  0.40194  1.0000
  H   H74       1.0  0.30025  0.38871  0.23805  1.0000
  H   H75       1.0  0.28565  0.12381  0.35178  1.0000
  H   H76       1.0  0.24708  0.15085  0.41479  1.0000
  H   H77       1.0  0.31778  0.28666  0.16438  1.0000
  H   H78       1.0  0.02646  0.33083  0.18969  1.0000
  H   H79       1.0  0.20505  0.16191  0.45901  1.0000
  H   H80       1.0  0.28093  0.39575  0.16797  1.0000
  C   C47       1.0  0.29982  0.34596  0.11293  1.0000
  H   H81       1.0  0.25854  0.38276  0.11335  1.0000
  N   N5        1.0  0.03302  0.39301  0.11119  1.0000
  C   C48       1.0  0.03992  0.43432  0.11273  1.0000
  C   C49       1.0  0.09059  0.07958  0.45191  1.0000
  H   H82       1.0  0.05609  0.39740  0.03378  1.0000
  C   C50       1.0  0.22654  0.02199  0.39763  1.0000
  C   C51       1.0  0.01476  0.11101  0.36630  1.0000
  C   C52       1.0  0.03389  0.03879  0.40250  1.0000
  C   C53       1.0  0.01513  0.46004  0.13059  1.0000
  H   H83       1.0  0.00933  0.42946  0.04595  1.0000
  H   H84       1.0  0.01225  0.45467  0.16186  1.0000
  H   H85       1.0  0.32648  0.31236  0.20807  1.0000
  C   C54       1.0  0.33234  0.40031  0.12796  1.0000
  H   H86       1.0  0.33629  0.37880  0.21896  1.0000
  C   C55       1.0  0.28086  0.50461  0.08769  1.0000
  C   C56       1.0  0.33486  0.30384  0.17918  1.0000
  C   C57       1.0  0.02443  0.50963  0.03096  1.0000
  H   H87       1.0  0.01245  0.12911  0.42475  1.0000
  C   C58       1.0  0.01182  0.10163  0.40959  1.0000
  H   H88       1.0  0.00539  0.05014  0.46785  1.0000
  H   H89       1.0  0.00721  0.08752  0.34788  1.0000
  H   H90       1.0  0.03982  0.12182  0.48917  1.0000
  C   C59       1.0  0.02105  0.48499  0.95414  1.0000
  C   C60       1.0  0.03093  0.19682  0.52689  1.0000
  H   H91       1.0  0.04694  0.19607  0.55051  1.0000
  H   H92       1.0  0.01998  0.47486  0.92482  1.0000
  H   H93       1.0  0.01119  0.33140  0.60799  1.0000
  H   H94       1.0  0.01316  0.30605  0.54069  1.0000
  H   H95       1.0  0.01428  0.28135  0.64536  1.0000
  C   C61       1.0  0.04152  0.20048  0.48879  1.0000
  H   H96       1.0  0.04831  0.51056  0.82562  1.0000
  H   H97       1.0  0.06843  0.47001  0.96129  1.0000
  H   H98       1.0  0.08602  0.09169  0.48081  1.0000
  H   H99       1.0  0.06549  0.20252  0.48318  1.0000
  C   C62       1.0  0.02186  0.10097  0.49304  1.0000
  H   H100      1.0  0.02193  0.09224  0.52381  1.0000
  H   H101      1.0  0.04389  0.04788  0.48145  1.0000
  H   H102      1.0  0.00528  0.27021  0.57485  1.0000
  Fe  Fe8       1.0  0.16459  0.82065  0.34328  1.0000
  S   S15       1.0  0.12984  0.83115  0.29656  1.0000
  S   S16       1.0  0.21261  0.82432  0.32046  1.0000
  Fe  Fe9       1.0  0.11567  0.80867  0.40413  1.0000
  S   S17       1.0  0.07842  0.81794  0.36134  1.0000
  H   H103      1.0  0.30933  0.73448  0.32895  1.0000
  Fe  Fe10      1.0  0.10658  0.78112  0.32154  1.0000
  S   S18       1.0  0.08276  0.73408  0.28912  1.0000
  Fe  Fe11      1.0  0.10561  0.86696  0.34089  1.0000
  S   S19       1.0  0.08109  0.92334  0.33012  1.0000
  S   S20       1.0  0.14243  0.76868  0.36602  1.0000
  S   S21       1.0  0.14167  0.85960  0.38596  1.0000
  H   H104      1.0  0.31584  0.92105  0.43668  1.0000
  Fe  Fe12      1.0  0.12953  0.54358  0.16751  1.0000
  H   H105      1.0  0.21829  0.52676  0.21105  1.0000
  S   S22       1.0  0.14483  0.59987  0.19250  1.0000
  C   C63       1.0  0.14060  0.00505  0.35810  1.0000
  H   H106      1.0  0.06409  0.70952  0.44768  1.0000
  H   H107      1.0  0.06266  0.58414  0.39113  1.0000
  C   C64       1.0  0.04440  0.78545  0.45777  1.0000
  H   H108      1.0  0.31539  0.96639  0.30289  1.0000
  H   H109      1.0  0.12385  0.66172  0.39044  1.0000
  C   C65       1.0  0.10383  0.66990  0.37274  1.0000
  C   C66       1.0  0.09893  0.96722  0.33575  1.0000
  C   C67       1.0  0.12764  0.96969  0.35236  1.0000
  C   C68       1.0  0.08349  0.00058  0.32464  1.0000
  H   H110      1.0  0.13983  0.94431  0.36088  1.0000
  C   C69       1.0  0.01527  0.77755  0.47129  1.0000
  C   C70       1.0  0.10036  0.69712  0.26211  1.0000
  C   C71       1.0  0.13177  0.69407  0.25799  1.0000
  C   C72       1.0  0.14486  0.66394  0.23695  1.0000
  C   C73       1.0  0.12682  0.63628  0.21998  1.0000
  C   C74       1.0  0.09540  0.63905  0.22454  1.0000
  C   C75       1.0  0.08228  0.66944  0.24527  1.0000
  H   H111      1.0  0.14597  0.71508  0.27082  1.0000
  H   H112      1.0  0.16915  0.66217  0.23388  1.0000
  H   H113      1.0  0.08119  0.61817  0.21154  1.0000
  H   H114      1.0  0.05794  0.67152  0.24826  1.0000
  C   C76       1.0  0.24594  0.81620  0.34735  1.0000
  C   C77       1.0  0.27390  0.81987  0.32873  1.0000
  C   C78       1.0  0.30112  0.81545  0.34931  1.0000
  C   C79       1.0  0.30062  0.80644  0.38846  1.0000
  C   C80       1.0  0.27268  0.80210  0.40700  1.0000
  C   C81       1.0  0.24535  0.80716  0.38656  1.0000
  H   H115      1.0  0.27444  0.82702  0.29842  1.0000
  H   H116      1.0  0.10268  0.61064  0.35451  1.0000
  H   H117      1.0  0.27216  0.79518  0.43738  1.0000
  H   H118      1.0  0.22389  0.80428  0.40113  1.0000
  N   N6        1.0  0.23300  0.60398  0.15050  1.0000
  C   C82       1.0  0.21651  0.61432  0.11366  1.0000
  C   C83       1.0  0.22547  0.63427  0.17959  1.0000
  C   C84       1.0  0.22121  0.56662  0.16392  1.0000
  C   C85       1.0  0.26638  0.60098  0.14168  1.0000
  C   C86       1.0  0.21925  0.58549  0.08044  1.0000
  C   C87       1.0  0.23749  0.67370  0.17058  1.0000
  C   C88       1.0  0.22453  0.55662  0.20699  1.0000
  C   C89       1.0  0.28813  0.59515  0.17604  1.0000
  H   H119      1.0  0.19182  0.61894  0.11937  1.0000
  H   H120      1.0  0.22468  0.64121  0.10164  1.0000
  H   H121      1.0  0.23383  0.62698  0.20878  1.0000
  H   H122      1.0  0.20049  0.63720  0.18298  1.0000
  H   H123      1.0  0.19660  0.56455  0.15769  1.0000
  H   H124      1.0  0.23210  0.54335  0.14758  1.0000
  H   H125      1.0  0.27118  0.57681  0.12215  1.0000
  H   H126      1.0  0.27409  0.62549  0.12457  1.0000
  H   H127      1.0  0.20943  0.00236  0.40886  1.0000
  H   H128      1.0  0.30933  0.68846  0.34775  1.0000
  H   H129      1.0  0.10972  0.69663  0.35806  1.0000
  H   H130      1.0  0.26244  0.67351  0.16742  1.0000
  H   H131      1.0  0.22658  0.68633  0.14470  1.0000
  H   H132      1.0  0.23173  0.69273  0.19503  1.0000
  C   C90       1.0  0.26898  0.90999  0.38939  1.0000
  C   C91       1.0  0.28054  0.66557  0.28361  1.0000
  H   H133      1.0  0.24782  0.55937  0.21792  1.0000
  H   H134      1.0  0.29158  0.56473  0.18235  1.0000
  H   H135      1.0  0.28090  0.61001  0.20248  1.0000
  H   H136      1.0  0.31046  0.60692  0.16860  1.0000
  H   H137      1.0  0.32947  0.62003  0.25332  1.0000
  H   H138      1.0  0.26453  0.93439  0.40848  1.0000
  H   H139      1.0  0.32245  0.81957  0.33504  1.0000
  H   H140      1.0  0.04339  0.92068  0.44039  1.0000
  H   H141      1.0  0.29669  0.99305  0.36181  1.0000
  H   H142      1.0  0.04825  0.78846  0.42724  1.0000
  H   H143      1.0  0.04431  0.61995  0.36295  1.0000
  C   C92       1.0  0.10233  0.63914  0.34160  1.0000
  H   H144      1.0  0.26813  0.65348  0.25890  1.0000
  C   C93       1.0  0.08366  0.70451  0.42811  1.0000
  H   H145      1.0  0.05279  0.64654  0.44295  1.0000
  C   C94       1.0  0.31324  0.97493  0.37795  1.0000
  H   H146      1.0  0.28849  0.89360  0.33627  1.0000
  C   C95       1.0  0.11073  0.69477  0.45479  1.0000
  H   H147      1.0  0.08845  0.73233  0.41482  1.0000
  C   C96       1.0  0.02000  0.69807  0.39301  1.0000
  H   H148      1.0  0.05760  0.72212  0.36345  1.0000
  H   H149      1.0  0.24655  0.89913  0.38079  1.0000
  H   H150      1.0  0.20850  0.57369  0.22480  1.0000
  H   H151      1.0  0.08278  0.64268  0.32196  1.0000
  C   C97       1.0  0.03807  0.89045  0.43942  1.0000
  H   H152      1.0  0.29504  0.71919  0.26504  1.0000
  H   H153      1.0  0.05139  0.99762  0.44588  1.0000
  H   H154      1.0  0.04751  0.67831  0.34586  1.0000
  H   H155      1.0  0.32858  0.75979  0.24226  1.0000
  H   H156      1.0  0.08742  0.62499  0.42880  1.0000
  C   C98       1.0  0.06704  0.64005  0.41716  1.0000
  H   H157      1.0  0.06138  0.99890  0.31144  1.0000
  H   H158      1.0  0.28054  0.88672  0.40530  1.0000
  C   C99       1.0  0.28648  0.92025  0.35268  1.0000
  H   H159      1.0  0.31189  0.68259  0.23840  1.0000
  H   H160      1.0  0.16279  0.00650  0.37093  1.0000
  C   C100      1.0  0.32969  0.94504  0.31842  1.0000
  H   H161      1.0  0.28906  0.64132  0.30075  1.0000
  S   S23       1.0  0.15012  0.52689  0.11014  1.0000
  N   N7        1.0  0.31710  0.93740  0.35811  1.0000
  C   C101      1.0  0.05112  0.69354  0.37323  1.0000
  H   H162      1.0  0.26434  0.68213  0.30174  1.0000
  H   H163      1.0  0.31133  0.90143  0.28004  1.0000
  H   H164      1.0  0.20485  0.59537  0.05601  1.0000
  N   N8        1.0  0.07609  0.67594  0.39748  1.0000
  H   H165      1.0  0.05610  0.87383  0.45443  1.0000
  H   H166      1.0  0.27149  0.93918  0.33508  1.0000
  C   C102      1.0  0.04956  0.61113  0.39277  1.0000
  C   C103      1.0  0.30593  0.69085  0.26847  1.0000
  H   H167      1.0  0.30328  0.97223  0.40702  1.0000
  H   H168      1.0  0.02775  0.60470  0.40696  1.0000
  H   H169      1.0  0.21107  0.55738  0.08865  1.0000
  H   H170      1.0  0.24271  0.58285  0.06932  1.0000
  H   H171      1.0  0.12289  0.64061  0.32328  1.0000
  H   H172      1.0  0.04900  0.98059  0.39776  1.0000
  S   S24       1.0  0.08538  0.51461  0.15524  1.0000
  H   H173      1.0  0.28395  0.51618  0.05913  1.0000
  H   H174      1.0  0.10983  0.66610  0.46708  1.0000
  S   S25       1.0  0.10552  0.79779  0.46744  1.0000
  H   H175      1.0  0.01072  0.67088  0.40227  1.0000
  H   H176      1.0  0.03916  0.88192  0.40860  1.0000
  H   H177      1.0  0.02543  0.51956  0.06037  1.0000
  H   H178      1.0  0.13264  0.69892  0.43994  1.0000
  C   C104      1.0  0.33340  0.91072  0.29144  1.0000
  C   C105      1.0  0.32388  0.70871  0.33231  1.0000
  H   H179      1.0  0.02067  0.71736  0.41795  1.0000
  H   H180      1.0  0.07860  0.01123  0.40923  1.0000
  C   C106      1.0  0.05452  0.00565  0.41536  1.0000
  N   N9        1.0  0.33354  0.69308  0.29372  1.0000
  H   H181      1.0  0.24871  0.01199  0.40918  1.0000
  S   S26       1.0  0.33442  0.80099  0.41508  1.0000
  H   H182      1.0  0.33517  0.88130  0.36961  1.0000
  H   H183      1.0  0.33655  0.77307  0.29165  1.0000
  H   H184      1.0  0.33657  0.63829  0.32207  1.0000
  C   C107      1.0  0.33736  0.91110  0.42381  1.0000
  C   C108      1.0  0.00615  0.88226  0.45522  1.0000
  H   H185      1.0  0.01700  0.67495  0.80309  1.0000
  H   H186      1.0  0.03628  0.63723  0.89981  1.0000
  C   C109      1.0  0.06291  0.78434  0.52335  1.0000
  C   C110      1.0  0.04608  0.58464  0.92733  1.0000
  H   H187      1.0  0.08140  0.78659  0.54362  1.0000
  C   C111      1.0  0.04344  0.53006  0.84997  1.0000
  C   C112      1.0  0.00958  0.77383  0.51087  1.0000
  H   H188      1.0  0.03387  0.85176  0.51055  1.0000
  H   H189      1.0  0.06539  0.53485  0.86446  1.0000
  C   C113      1.0  0.03349  0.77734  0.53699  1.0000
  H   H190      1.0  0.04543  0.89814  0.51958  1.0000
  H   H191      1.0  0.06627  0.59509  0.94274  1.0000
  H   H192      1.0  0.05019  0.55435  0.92209  1.0000
  C   C114      1.0  0.02559  0.87945  0.52136  1.0000
  C   C115      1.0  0.01893  0.87280  0.56449  1.0000
  H   H193      1.0  0.04899  0.65307  0.82660  1.0000
  H   H194      1.0  0.06341  0.60912  0.87510  1.0000
  H   H195      1.0  0.02945  0.77393  0.56754  1.0000
  H   H196      1.0  0.00995  0.95851  0.55448  1.0000
  N   N10       1.0  0.01701  0.59485  0.86244  1.0000
  H   H197      1.0  0.00875  0.89759  0.57910  1.0000
  C   C116      1.0  0.04114  0.60789  0.88999  1.0000
  H   H198      1.0  0.02035  0.94829  0.48943  1.0000
  H   H199      1.0  0.04845  0.57936  0.81667  1.0000
  C   C117      1.0  0.02984  0.56696  0.83365  1.0000
  H   H200      1.0  0.02676  0.58784  0.94754  1.0000
  H   H201      1.0  0.03059  0.63067  0.78590  1.0000
  H   H202      1.0  0.04049  0.86565  0.57959  1.0000
  H   H203      1.0  0.02787  0.51528  0.86941  1.0000
  H   H204      1.0  0.01215  0.55934  0.81223  1.0000
  C   C118      1.0  0.06844  0.78865  0.48367  1.0000
  C   C119      1.0  0.02701  0.64750  0.81254  1.0000
  H   H205      1.0  0.11041  0.71460  0.47954  1.0000
  Fe  Fe13      1.0  0.41504  0.45176  0.18301  1.0000
  S   S27       1.0  0.41211  0.45904  0.11846  1.0000
  S   S28       1.0  0.39777  0.40054  0.21544  1.0000
  H   H206      1.0  0.35597  0.32650  0.12890  1.0000
  C   C120      1.0  0.49585  0.37898  0.32681  1.0000
  H   H207      1.0  0.53441  0.10578  0.41935  1.0000
  C   C121      1.0  0.54113  0.49557  0.03235  1.0000
  H   H208      1.0  0.49471  0.37230  0.42241  1.0000
  Fe  Fe14      1.0  0.42948  0.21984  0.34140  1.0000
  S   S29       1.0  0.39824  0.24904  0.38308  1.0000
  S   S30       1.0  0.45506  0.25434  0.29712  1.0000
  Fe  Fe15      1.0  0.42260  0.14225  0.38234  1.0000
  S   S31       1.0  0.39052  0.16753  0.42583  1.0000
  S   S32       1.0  0.43907  0.08312  0.39873  1.0000
  Fe  Fe16      1.0  0.36919  0.19836  0.37564  1.0000
  Fe  Fe17      1.0  0.42336  0.21512  0.42861  1.0000
  Fe  Fe18      1.0  0.38373  0.51080  0.13185  1.0000
  S   S33       1.0  0.39967  0.17020  0.33155  1.0000
  S   S34       1.0  0.45604  0.18872  0.38733  1.0000
  S   S35       1.0  0.38430  0.50154  0.19543  1.0000
  H   H209      1.0  0.52754  0.36484  0.39540  1.0000
  H   H210      1.0  0.50259  0.29839  0.32641  1.0000
  H   H211      1.0  0.51048  0.30309  0.45290  1.0000
  H   H212      1.0  0.50259  0.24508  0.36890  1.0000
  C   C122      1.0  0.55281  0.50084  0.99475  1.0000
  C   C123      1.0  0.46749  0.30376  0.39753  1.0000
  H   H213      1.0  0.52622  0.34524  0.46803  1.0000
  C   C124      1.0  0.41491  0.36093  0.23874  1.0000
  C   C125      1.0  0.39658  0.33787  0.26145  1.0000
  C   C126      1.0  0.40860  0.30539  0.27964  1.0000
  C   C127      1.0  0.43909  0.29520  0.27485  1.0000
  C   C128      1.0  0.45752  0.31830  0.25226  1.0000
  C   C129      1.0  0.44557  0.35116  0.23448  1.0000
  H   H214      1.0  0.37287  0.34513  0.26507  1.0000
  H   H215      1.0  0.39415  0.28795  0.29695  1.0000
  H   H216      1.0  0.48113  0.31062  0.24830  1.0000
  H   H217      1.0  0.45991  0.36848  0.21692  1.0000
  C   C130      1.0  0.51010  0.50134  0.04053  1.0000
  C   C131      1.0  0.42982  0.03994  0.37680  1.0000
  H   H218      1.0  0.41021  0.06407  0.32540  1.0000
  H   H219      1.0  0.54691  0.31627  0.43409  1.0000
  H   H220      1.0  0.45913  0.34109  0.33436  1.0000
  H   H221      1.0  0.53409  0.31876  0.34931  1.0000
  H   H222      1.0  0.45463  0.28929  0.37449  1.0000
  C   C132      1.0  0.50890  0.34939  0.40936  1.0000
  H   H223      1.0  0.47715  0.28056  0.41526  1.0000
  H   H224      1.0  0.54959  0.21103  0.45938  1.0000
  C   C133      1.0  0.52398  0.32675  0.44243  1.0000
  H   H225      1.0  0.50229  0.07946  0.43290  1.0000
  H   H226      1.0  0.45553  0.33920  0.44788  1.0000
  H   H227      1.0  0.46432  0.05445  0.47459  1.0000
  C   C134      1.0  0.34412  0.33798  0.15480  1.0000
  H   H228      1.0  0.48121  0.39856  0.30963  1.0000
  N   N11       1.0  0.49154  0.32763  0.37967  1.0000
  S   S36       1.0  0.49693  0.49433  0.08896  1.0000
  H   H229      1.0  0.49584  0.21824  0.44098  1.0000
  C   C135      1.0  0.50249  0.22380  0.47023  1.0000
  H   H230      1.0  0.54004  0.25215  0.35226  1.0000
  S   S37       1.0  0.45699  0.48600  0.18790  1.0000
  C   C136      1.0  0.44442  0.32481  0.42351  1.0000
  C   C137      1.0  0.47549  0.35560  0.35341  1.0000
  H   H231      1.0  0.55631  0.48682  0.05530  1.0000
  H   H232      1.0  0.53061  0.26488  0.40060  1.0000
  H   H233      1.0  0.51180  0.39640  0.34328  1.0000
  H   H234      1.0  0.46172  0.37633  0.37027  1.0000
  H   H235      1.0  0.34689  0.41350  0.15023  1.0000
  H   H236      1.0  0.50840  0.36118  0.30569  1.0000
  H   H237      1.0  0.49904  0.12970  0.42608  1.0000
  C   C138      1.0  0.51277  0.30371  0.35525  1.0000
  C   C139      1.0  0.41602  0.03832  0.34057  1.0000
  H   H238      1.0  0.42899  0.30411  0.43647  1.0000
  H   H239      1.0  0.36211  0.35267  0.17087  1.0000
  H   H240      1.0  0.54225  0.49957  0.16052  1.0000
  Fe  Fe19      1.0  0.45217  0.49727  0.12359  1.0000
  H   H241      1.0  0.46071  0.11379  0.46844  1.0000
  C   C140      1.0  0.52188  0.26443  0.37078  1.0000
  H   H242      1.0  0.35518  0.28547  0.18413  1.0000
  H   H243      1.0  0.42989  0.34486  0.40698  1.0000
  C   C141      1.0  0.51367  0.10641  0.43740  1.0000
  H   H244      1.0  0.57667  0.49616  0.98920  1.0000
  H   H245      1.0  0.37326  0.37944  0.09787  1.0000
  C   C142      1.0  0.35210  0.39571  0.09159  1.0000
  H   H246      1.0  0.35878  0.42404  0.08166  1.0000
  H   H247      1.0  0.33990  0.38276  0.06727  1.0000
  H   H248      1.0  0.33846  0.02072  0.40370  1.0000
  Fe  Fe20      1.0  0.60508  0.21462  0.58875  1.0000
  S   S38       1.0  0.58931  0.18635  0.64330  1.0000
  S   S39       1.0  0.58080  0.21601  0.53063  1.0000
  H   H249      1.0  0.42166  0.14081  0.50729  1.0000
  S   S40       1.0  0.65627  0.20349  0.67780  1.0000
  Fe  Fe21      1.0  0.63535  0.15763  0.64302  1.0000
  S   S41       1.0  0.65256  0.09850  0.65810  1.0000
  Fe  Fe22      1.0  0.61194  0.23496  0.67340  1.0000
  S   S42       1.0  0.59772  0.26343  0.72972  1.0000
  S   S43       1.0  0.64997  0.18279  0.58691  1.0000
  S   S44       1.0  0.62464  0.26492  0.61892  1.0000
  Fe  Fe23      1.0  0.61334  0.47665  0.80712  1.0000
  S   S45       1.0  0.61874  0.46284  0.87010  1.0000
  S   S46       1.0  0.60025  0.44066  0.75559  1.0000
  H   H250      1.0  0.48095  0.45730  0.82319  1.0000
  H   H251      1.0  0.51106  0.45669  0.76460  1.0000
  H   H252      1.0  0.50591  0.16425  0.53739  1.0000
  Fe  Fe24      1.0  0.65944  0.50017  0.86773  1.0000
  H   H253      1.0  0.65545  0.36688  0.73361  1.0000
  C   C143      1.0  0.63405  0.05553  0.65011  1.0000
  H   H254      1.0  0.47325  0.40577  0.86406  1.0000
  H   H255      1.0  0.55013  0.36782  0.88639  1.0000
  H   H256      1.0  0.50271  0.38023  0.88645  1.0000
  H   H257      1.0  0.60589  0.30793  0.79799  1.0000
  C   C144      1.0  0.59821  0.31275  0.73678  1.0000
  C   C145      1.0  0.59410  0.33780  0.70607  1.0000
  C   C146      1.0  0.59406  0.37684  0.71268  1.0000
  C   C147      1.0  0.59897  0.39130  0.74981  1.0000
  C   C148      1.0  0.60345  0.36629  0.78054  1.0000
  C   C149      1.0  0.60263  0.32717  0.77409  1.0000
  H   H258      1.0  0.59047  0.32708  0.67729  1.0000
  H   H259      1.0  0.59063  0.39598  0.68871  1.0000
  H   H260      1.0  0.60773  0.37703  0.80911  1.0000
  H   H261      1.0  0.58614  0.38545  0.87469  1.0000
  C   C150      1.0  0.49018  0.24203  0.53548  1.0000
  C   C151      1.0  0.52089  0.23741  0.54627  1.0000
  C   C152      1.0  0.54240  0.22569  0.51894  1.0000
  H   H262      1.0  0.43635  0.10137  0.53380  1.0000
  H   H263      1.0  0.47360  0.25060  0.55685  1.0000
  H   H264      1.0  0.52781  0.24230  0.57575  1.0000
  C   C153      1.0  0.49427  0.07093  0.52315  1.0000
  H   H265      1.0  0.54858  0.34751  0.82467  1.0000
  C   C154      1.0  0.44195  0.12964  0.52284  1.0000
  H   H266      1.0  0.66900  0.37436  0.62549  1.0000
  H   H267      1.0  0.59179  0.08017  0.63086  1.0000
  H   H268      1.0  0.53016  0.40000  0.78522  1.0000
  H   H269      1.0  0.54497  0.46912  0.79034  1.0000
  C   C155      1.0  0.60420  0.05425  0.63678  1.0000
  H   H270      1.0  0.47257  0.15747  0.48473  1.0000
  C   C156      1.0  0.48073  0.23457  0.49753  1.0000
  H   H271      1.0  0.49148  0.12995  0.56894  1.0000
  C   C157      1.0  0.52410  0.35074  0.81826  1.0000
  H   H272      1.0  0.47999  0.06945  0.54953  1.0000
  H   H273      1.0  0.48409  0.46251  0.90246  1.0000
  H   H274      1.0  0.54251  0.09645  0.57079  1.0000
  H   H275      1.0  0.56520  0.42386  0.82941  1.0000
  C   C158      1.0  0.53363  0.51214  0.96452  1.0000
  H   H276      1.0  0.56546  0.40668  0.91279  1.0000
  H   H277      1.0  0.57820  0.02135  0.54233  1.0000
  H   H278      1.0  0.55291  0.45136  0.86907  1.0000
  H   H279      1.0  0.51031  0.33822  0.84137  1.0000
  C   C159      1.0  0.49579  0.43547  0.90962  1.0000
  H   H280      1.0  0.55736  0.13253  0.53938  1.0000
  H   H281      1.0  0.49168  0.39225  0.79785  1.0000
  H   H282      1.0  0.50979  0.47992  0.84966  1.0000
  C   C160      1.0  0.53941  0.12576  0.56044  1.0000
  H   H283      1.0  0.52024  0.33375  0.79189  1.0000
  C   C161      1.0  0.59015  0.01931  0.63229  1.0000
  C   C162      1.0  0.56288  0.39397  0.88373  1.0000
  C   C163      1.0  0.48217  0.04260  0.49362  1.0000
  N   N12       1.0  0.51749  0.41968  0.84234  1.0000
  H   H284      1.0  0.48275  0.42259  0.93338  1.0000
  C   C164      1.0  0.49688  0.40841  0.87482  1.0000
  C   C165      1.0  0.51518  0.39198  0.80957  1.0000
  C   C166      1.0  0.54995  0.42359  0.85493  1.0000
  H   H285      1.0  0.51861  0.44126  0.92110  1.0000
  C   C167      1.0  0.50591  0.45750  0.82786  1.0000
  H   H286      1.0  0.51405  0.50202  0.78620  1.0000
  N   N13       1.0  0.49794  0.11091  0.50982  1.0000
  H   H287      1.0  0.54309  0.14440  0.58565  1.0000
  H   H288      1.0  0.56681  0.01856  0.62304  1.0000
  H   H289      1.0  0.65067  0.33966  0.65337  1.0000
  H   H290      1.0  0.66996  0.29769  0.77688  1.0000
  C   C168      1.0  0.50726  0.13381  0.54435  1.0000
  H   H291      1.0  0.54178  0.09371  0.48671  1.0000
  H   H292      1.0  0.51640  0.05887  0.53289  1.0000
  H   H293      1.0  0.65615  0.30621  0.70678  1.0000
  H   H294      1.0  0.44591  0.14930  0.54705  1.0000
  C   C169      1.0  0.46881  0.12820  0.49456  1.0000
  Fe  Fe25      1.0  0.66788  0.23036  0.62171  1.0000
  C   C170      1.0  0.64982  0.02164  0.65808  1.0000
  H   H295      1.0  0.53240  0.14199  0.47979  1.0000
  C   C171      1.0  0.52002  0.47174  0.79005  1.0000
  H   H296      1.0  0.66733  0.25510  0.75041  1.0000
  H   H297      1.0  0.50080  0.03042  0.47581  1.0000
  S   S47       1.0  0.44166  0.23773  0.48545  1.0000
  S   S48       1.0  0.65591  0.50968  0.80421  1.0000
  H   H298      1.0  0.65391  0.38720  0.67138  1.0000
  C   C172      1.0  0.52260  0.11340  0.47978  1.0000
  H   H299      1.0  0.47096  0.01944  0.50919  1.0000
  C   C173      1.0  0.53308  0.21978  0.48078  1.0000
  C   C174      1.0  0.66562  0.36417  0.65542  1.0000
  Fe  Fe26      1.0  0.38026  0.81028  0.38783  1.0000
  S   S49       1.0  0.38853  0.82468  0.32618  1.0000
  Fe  Fe27      1.0  0.44721  0.81603  0.40890  1.0000
  S   S50       1.0  0.46066  0.83135  0.34805  1.0000
  H   H300      1.0  0.52874  0.79807  0.42540  1.0000
  Fe  Fe28      1.0  0.41913  0.86929  0.34849  1.0000
  S   S51       1.0  0.41219  0.92610  0.31933  1.0000
  Fe  Fe29      1.0  0.42896  0.78531  0.32988  1.0000
  S   S52       1.0  0.43524  0.75056  0.27481  1.0000
  S   S53       1.0  0.40792  0.85755  0.41005  1.0000
  S   S54       1.0  0.41842  0.76739  0.39071  1.0000
  Fe  Fe30      1.0  0.42589  0.53643  0.19603  1.0000
  S   S55       1.0  0.42344  0.54995  0.13265  1.0000
  S   S56       1.0  0.43315  0.57319  0.24903  1.0000
  H   H301      1.0  0.53524  0.64401  0.23922  1.0000
  H   H302      1.0  0.52423  0.95718  0.47221  1.0000
  C   C175      1.0  0.54024  0.52460  0.17964  1.0000
  C   C176      1.0  0.53345  0.80059  0.45589  1.0000
  C   C177      1.0  0.34977  0.71827  0.36014  1.0000
  C   C178      1.0  0.41882  0.96950  0.34236  1.0000
  C   C179      1.0  0.43186  0.97112  0.37901  1.0000
  H   H303      1.0  0.36180  0.98028  0.39312  1.0000
  H   H304      1.0  0.43813  0.94536  0.39390  1.0000
  C   C180      1.0  0.35624  0.71798  0.27458  1.0000
  C   C181      1.0  0.43411  0.70116  0.26840  1.0000
  C   C182      1.0  0.43033  0.68672  0.23097  1.0000
  C   C183      1.0  0.42912  0.64766  0.22450  1.0000
  C   C184      1.0  0.43245  0.62263  0.25540  1.0000
  C   C185      1.0  0.43600  0.63709  0.29282  1.0000
  C   C186      1.0  0.43654  0.67616  0.29939  1.0000
  H   H305      1.0  0.42823  0.70594  0.20687  1.0000
  H   H306      1.0  0.42591  0.63700  0.19564  1.0000
  H   H307      1.0  0.43856  0.61793  0.31691  1.0000
  H   H308      1.0  0.43942  0.68691  0.32831  1.0000
  H   H309      1.0  0.48567  0.58648  0.10513  1.0000
  N   N14       1.0  0.51860  0.59357  0.17736  1.0000
  C   C187      1.0  0.48962  0.61232  0.16326  1.0000
  C   C188      1.0  0.51612  0.59003  0.22061  1.0000
  C   C189      1.0  0.52095  0.55511  0.15891  1.0000
  C   C190      1.0  0.54456  0.61761  0.16521  1.0000
  C   C191      1.0  0.48549  0.61459  0.11902  1.0000
  C   C192      1.0  0.51460  0.62734  0.24330  1.0000
  H   H310      1.0  0.35641  0.92729  0.43577  1.0000
  C   C193      1.0  0.57632  0.60585  0.17986  1.0000
  H   H311      1.0  0.46965  0.59744  0.17490  1.0000
  H   H312      1.0  0.48743  0.64175  0.17385  1.0000
  H   H313      1.0  0.53526  0.57359  0.23322  1.0000
  H   H314      1.0  0.49580  0.57366  0.22831  1.0000
  H   H315      1.0  0.36400  0.70587  0.24668  1.0000
  H   H316      1.0  0.35252  0.95734  0.32044  1.0000
  H   H317      1.0  0.54650  0.61804  0.13324  1.0000
  H   H318      1.0  0.54037  0.64774  0.17267  1.0000
  H   H319      1.0  0.37178  0.65779  0.31151  1.0000
  C   C194      1.0  0.34554  0.75861  0.26582  1.0000
  H   H320      1.0  0.50260  0.63249  0.10523  1.0000
  H   H321      1.0  0.46301  0.62780  0.11269  1.0000
  H   H322      1.0  0.49428  0.64473  0.23615  1.0000
  H   H323      1.0  0.51292  0.62087  0.27457  1.0000
  C   C195      1.0  0.41077  0.00319  0.32332  1.0000
  C   C196      1.0  0.35169  0.62989  0.26356  1.0000
  C   C197      1.0  0.43754  0.00621  0.39598  1.0000
  H   H324      1.0  0.58725  0.58517  0.15998  1.0000
  H   H325      1.0  0.57652  0.59444  0.20948  1.0000
  H   H326      1.0  0.59060  0.63113  0.18135  1.0000
  H   H327      1.0  0.46703  0.51720  0.01581  1.0000
  H   H328      1.0  0.37702  0.71973  0.29243  1.0000
  C   C198      1.0  0.56343  0.79674  0.46975  1.0000
  H   H329      1.0  0.36529  0.77479  0.25578  1.0000
  H   H330      1.0  0.52896  0.51503  0.20639  1.0000
  H   H331      1.0  0.52974  0.55709  0.12887  1.0000
  H   H332      1.0  0.34018  0.72384  0.38922  1.0000
  H   H333      1.0  0.58173  0.79112  0.44972  1.0000
  H   H334      1.0  0.36350  0.64419  0.23974  1.0000
  C   C199      1.0  0.53869  0.90195  0.45365  1.0000
  H   H335      1.0  0.51537  0.89173  0.45805  1.0000
  H   H336      1.0  0.36669  0.69504  0.36335  1.0000
  H   H337      1.0  0.34878  0.01122  0.35499  1.0000
  S   S57       1.0  0.47184  0.81632  0.46672  1.0000
  H   H338      1.0  0.36234  0.91710  0.37154  1.0000
  S   S58       1.0  0.33969  0.52448  0.10020  1.0000
  H   H339      1.0  0.40079  0.00215  0.29486  1.0000
  H   H340      1.0  0.49810  0.54280  0.15616  1.0000
  H   H341      1.0  0.36116  0.74424  0.35093  1.0000
  H   H342      1.0  0.36553  0.60438  0.27094  1.0000
  C   C200      1.0  0.33853  0.91078  0.37917  1.0000
  C   C201      1.0  0.34849  0.65488  0.29976  1.0000
  H   H343      1.0  0.34723  0.91883  0.26614  1.0000
  H   H344      1.0  0.55514  0.87904  0.46066  1.0000
  H   H345      1.0  0.54082  0.90810  0.42238  1.0000
  H   H346      1.0  0.34113  0.88191  0.43451  1.0000
  H   H347      1.0  0.56343  0.53353  0.18620  1.0000
  C   C202      1.0  0.34239  0.99768  0.38257  1.0000
  H   H348      1.0  0.44825  0.00716  0.42396  1.0000
  H   H349      1.0  0.56311  0.95256  0.46282  1.0000
  H   H350      1.0  0.34556  0.88690  0.30552  1.0000
  C   C203      1.0  0.49090  0.51255  0.01028  1.0000
  Fe  Fe31      1.0  0.61387  0.80434  0.67252  1.0000
  S   S59       1.0  0.64844  0.78455  0.62923  1.0000
  S   S60       1.0  0.58994  0.76544  0.71450  1.0000
  Fe  Fe32      1.0  0.61261  0.88583  0.63941  1.0000
  S   S61       1.0  0.64729  0.87095  0.59453  1.0000
  S   S62       1.0  0.58728  0.94218  0.63551  1.0000
  Fe  Fe33      1.0  0.62068  0.81832  0.58603  1.0000
  S   S63       1.0  0.60790  0.79866  0.52572  1.0000
  C   C204      1.0  0.60001  0.69347  0.62293  1.0000
  S   S64       1.0  0.58487  0.83472  0.62848  1.0000
  S   S65       1.0  0.63790  0.85742  0.68807  1.0000
  Fe  Fe34      1.0  0.62715  0.56074  0.81899  1.0000
  H   H351      1.0  0.60129  0.98018  0.53765  1.0000
  S   S66       1.0  0.64306  0.61100  0.78356  1.0000
  C   C205      1.0  0.60511  0.72272  0.73381  1.0000
  C   C206      1.0  0.58677  0.70043  0.75738  1.0000
  C   C207      1.0  0.59775  0.66591  0.77260  1.0000
  C   C208      1.0  0.62731  0.65350  0.76457  1.0000
  C   C209      1.0  0.64558  0.67575  0.74090  1.0000
  C   C210      1.0  0.63455  0.71008  0.72548  1.0000
  H   H352      1.0  0.56396  0.70997  0.76401  1.0000
  H   H353      1.0  0.58348  0.64918  0.79085  1.0000
  H   H354      1.0  0.53068  0.70028  0.53900  1.0000
  H   H355      1.0  0.64891  0.72691  0.70744  1.0000
  S   S67       1.0  0.58422  0.52828  0.81764  1.0000
  C   C211      1.0  0.60596  0.98544  0.64046  1.0000
  C   C212      1.0  0.55291  0.68387  0.65791  1.0000
  H   H356      1.0  0.64264  0.70287  0.59403  1.0000
  H   H357      1.0  0.64827  0.96089  0.65959  1.0000
  H   H358      1.0  0.61316  0.73341  0.57720  1.0000
  H   H359      1.0  0.51856  0.77647  0.60743  1.0000
  C   C213      1.0  0.55401  0.67262  0.58801  1.0000
  C   C214      1.0  0.54605  0.80834  0.53469  1.0000
  C   C215      1.0  0.56990  0.80115  0.50920  1.0000
  N   N15       1.0  0.56599  0.69694  0.62003  1.0000
  Fe  Fe35      1.0  0.67124  0.83913  0.64215  1.0000
  H   H360      1.0  0.55058  0.81225  0.56488  1.0000
  C   C216      1.0  0.63598  0.98675  0.65294  1.0000
  C   C217      1.0  0.51619  0.81134  0.52109  1.0000
  H   H361      1.0  0.49798  0.81723  0.54119  1.0000
  H   H362      1.0  0.56688  0.64535  0.58691  1.0000
  H   H363      1.0  0.56618  0.75027  0.58885  1.0000
  H   H364      1.0  0.54206  0.89150  0.58961  1.0000
  H   H365      1.0  0.56721  0.75475  0.63894  1.0000
  H   H366      1.0  0.55421  0.96729  0.57050  1.0000
  C   C218      1.0  0.55702  0.73787  0.61549  1.0000
  H   H367      1.0  0.55812  0.70395  0.68145  1.0000
  H   H368      1.0  0.60830  0.71070  0.64746  1.0000
  H   H369      1.0  0.57018  0.71183  0.54122  1.0000
  C   C219      1.0  0.56321  0.64443  0.67201  1.0000
  H   H370      1.0  0.53011  0.66527  0.59408  1.0000
  H   H371      1.0  0.52777  0.68338  0.65653  1.0000
  H   H372      1.0  0.50102  0.93166  0.52879  1.0000
  C   C220      1.0  0.52267  0.74672  0.61603  1.0000
  C   C221      1.0  0.61813  0.70431  0.58691  1.0000
  C   C222      1.0  0.55371  0.68957  0.54675  1.0000
  H   H373      1.0  0.51330  0.74395  0.64555  1.0000
  H   H374      1.0  0.61470  0.68417  0.56301  1.0000
  H   H375      1.0  0.51000  0.72888  0.59578  1.0000
  H   H376      1.0  0.60743  0.66404  0.62914  1.0000
  H   H377      1.0  0.56167  0.62285  0.64912  1.0000
  H   H378      1.0  0.54841  0.63578  0.69618  1.0000
  N   N16       1.0  0.54967  0.93248  0.51965  1.0000
  S   S68       1.0  0.63284  0.55305  0.88329  1.0000
  H   H379      1.0  0.58655  0.64477  0.68396  1.0000
  H   H380      1.0  0.50189  0.88954  0.58692  1.0000
  C   C223      1.0  0.60487  0.91105  0.50187  1.0000
  C   C224      1.0  0.52172  0.91451  0.53583  1.0000
  H   H381      1.0  0.58459  0.91159  0.55860  1.0000
  C   C225      1.0  0.52154  0.90717  0.57973  1.0000
  H   H382      1.0  0.55891  0.66681  0.52569  1.0000
  H   H383      1.0  0.57054  0.87749  0.52665  1.0000
  H   H384      1.0  0.53165  0.98789  0.53350  1.0000
  C   C226      1.0  0.57988  0.99374  0.52741  1.0000
  C   C227      1.0  0.57690  0.90744  0.52837  1.0000
  C   C228      1.0  0.55242  0.97032  0.53875  1.0000
  H   H385      1.0  0.62565  0.90761  0.51967  1.0000
  H   H386      1.0  0.51875  0.93351  0.59658  1.0000
  H   H387      1.0  0.58090  0.99972  0.49612  1.0000
  H   H388      1.0  0.51820  0.88668  0.52235  1.0000
  H   H389      1.0  0.60600  0.88749  0.48085  1.0000
  H   H390      1.0  0.60682  0.93814  0.48669  1.0000
  H   H391      1.0  0.48742  0.52667  0.94975  1.0000
  H   H392      1.0  0.66849  0.66642  0.73452  1.0000
  C   C229      1.0  0.50259  0.51787  0.97269  1.0000
  S   S69       1.0  0.54675  0.51893  0.91605  1.0000
  C   C230      1.0  0.50973  0.80826  0.48162  1.0000
  Fe  Fe36      1.0  0.59152  0.51633  0.88127  1.0000
  C   C231      1.0  0.54425  0.93809  0.47703  1.0000
  H   H393      1.0  0.98857  0.09104  0.41433  1.0000
  H   H394      1.0  0.99320  0.45787  0.11532  1.0000
  H   H395      1.0  0.97384  0.19980  0.44228  1.0000
  H   H396      1.0  0.97387  0.40854  0.04639  1.0000
  C   C232      1.0  0.00333  0.38551  0.09146  1.0000
  H   H397      1.0  0.00019  0.35474  0.08824  1.0000
  C   C233      1.0  0.99838  0.40226  0.05078  1.0000
  H   H398      1.0  0.98374  0.39457  0.10968  1.0000
  H   H399      1.0  0.99986  0.13574  0.35948  1.0000
  C   C234      1.0  0.98988  0.19892  0.46588  1.0000
  Fe  Fe37      1.0  0.93939  0.18026  0.60282  1.0000
  S   S70       1.0  0.93604  0.17231  0.66733  1.0000
  H   H400      1.0  0.81358  0.09158  0.58464  1.0000
  Fe  Fe38      1.0  0.87127  0.17479  0.59257  1.0000
  S   S71       1.0  0.86355  0.16668  0.65555  1.0000
  S   S72       1.0  0.83017  0.17250  0.55409  1.0000
  Fe  Fe39      1.0  0.89666  0.21316  0.66385  1.0000
  S   S73       1.0  0.88139  0.26029  0.70454  1.0000
  Fe  Fe40      1.0  0.90336  0.12651  0.65285  1.0000
  S   S74       1.0  0.89814  0.07148  0.68579  1.0000
  S   S75       1.0  0.90171  0.22399  0.60034  1.0000
  S   S76       1.0  0.90934  0.13169  0.58888  1.0000
  S   S77       1.0  0.71401  0.25697  0.62193  1.0000
  H   H401      1.0  0.71167  0.37800  0.67002  1.0000
  Fe  Fe41      1.0  0.93627  0.44500  0.81332  1.0000
  S   S78       1.0  0.90826  0.45131  0.86743  1.0000
  S   S79       1.0  0.95500  0.38949  0.78835  1.0000
  C   C235      1.0  0.77132  0.11386  0.61023  1.0000
  H   H402      1.0  0.94239  0.12088  0.79878  1.0000
  H   H403      1.0  0.71422  0.40975  0.74999  1.0000
  H   H404      1.0  0.94148  0.10024  0.75193  1.0000
  H   H405      1.0  0.71807  0.06885  0.66542  1.0000
  H   H406      1.0  0.70390  0.27196  0.76214  1.0000
  H   H407      1.0  0.81547  0.48909  0.89885  1.0000
  H   H408      1.0  0.72932  0.32787  0.75921  1.0000
  S   S80       1.0  0.70413  0.48493  0.89761  1.0000
  S   S81       1.0  0.97038  0.48785  0.83179  1.0000
  C   C236      1.0  0.73034  0.15542  0.66915  1.0000
  C   C237      1.0  0.93456  0.32642  0.59659  1.0000
  C   C238      1.0  0.96462  0.28089  0.63431  1.0000
  H   H409      1.0  0.86329  0.19109  0.73852  1.0000
  C   C239      1.0  0.67996  0.36635  0.74011  1.0000
  H   H410      1.0  0.92135  0.05087  0.60983  1.0000
  H   H411      1.0  0.97540  0.28951  0.54461  1.0000
  C   C240      1.0  0.90257  0.29629  0.72662  1.0000
  C   C241      1.0  0.88742  0.32936  0.73881  1.0000
  C   C242      1.0  0.90309  0.35819  0.75764  1.0000
  C   C243      1.0  0.93411  0.35405  0.76488  1.0000
  C   C244      1.0  0.94923  0.32077  0.75299  1.0000
  C   C245      1.0  0.93357  0.29202  0.73399  1.0000
  H   H412      1.0  0.86336  0.33281  0.73368  1.0000
  H   H413      1.0  0.89114  0.38355  0.76674  1.0000
  H   H414      1.0  0.97319  0.31721  0.75873  1.0000
  H   H415      1.0  0.94536  0.26637  0.72568  1.0000
  C   C246      1.0  0.79809  0.19731  0.57177  1.0000
  C   C247      1.0  0.76967  0.19214  0.55470  1.0000
  C   C248      1.0  0.74353  0.20961  0.57029  1.0000
  C   C249      1.0  0.74591  0.23333  0.60226  1.0000
  C   C250      1.0  0.77442  0.23903  0.61878  1.0000
  C   C251      1.0  0.80036  0.22076  0.60391  1.0000
  H   H416      1.0  0.76780  0.17412  0.52974  1.0000
  H   H417      1.0  0.72166  0.20535  0.55715  1.0000
  H   H418      1.0  0.77652  0.25745  0.64334  1.0000
  H   H419      1.0  0.82217  0.22526  0.61706  1.0000
  C   C252      1.0  0.90638  0.02746  0.66350  1.0000
  H   H420      1.0  0.78307  0.05855  0.58141  1.0000
  H   H421      1.0  0.76470  0.48086  0.92850  1.0000
  H   H422      1.0  0.94762  0.34160  0.67397  1.0000
  H   H423      1.0  0.76957  0.05154  0.68750  1.0000
  N   N17       1.0  0.69645  0.33911  0.71387  1.0000
  C   C253      1.0  0.69677  0.35335  0.67291  1.0000
  H   H424      1.0  0.77627  0.14003  0.68184  1.0000
  C   C254      1.0  0.74824  0.30468  0.70662  1.0000
  C   C255      1.0  0.68035  0.30216  0.71464  1.0000
  H   H425      1.0  0.78391  0.04180  0.64134  1.0000
  H   H426      1.0  0.77333  0.50290  0.78809  1.0000
  C   C256      1.0  0.74011  0.48756  0.87511  1.0000
  H   H427      1.0  0.68844  0.42046  0.71050  1.0000
  H   H428      1.0  0.70671  0.33172  0.65327  1.0000
  H   H429      1.0  0.81529  0.16451  0.75899  1.0000
  H   H430      1.0  0.93179  0.30369  0.57490  1.0000
  H   H431      1.0  0.85158  0.20815  0.78381  1.0000
  C   C257      1.0  0.72861  0.33453  0.72785  1.0000
  H   H432      1.0  0.74078  0.36141  0.72490  1.0000
  H   H433      1.0  0.68960  0.28262  0.69244  1.0000
  H   H434      1.0  0.82665  0.05365  0.68009  1.0000
  H   H435      1.0  0.71250  0.10076  0.62637  1.0000
  H   H436      1.0  0.88385  0.18989  0.88248  1.0000
  S   S82       1.0  0.83275  0.50752  0.81901  1.0000
  C   C258      1.0  0.81160  0.07848  0.67434  1.0000
  H   H437      1.0  0.70740  0.14448  0.67446  1.0000
  C   C259      1.0  0.83674  0.15230  0.77077  1.0000
  H   H438      1.0  0.77110  0.30341  0.71997  1.0000
  H   H439      1.0  0.78741  0.13610  0.61861  1.0000
  C   C260      1.0  0.99498  0.50058  0.97131  1.0000
  C   C261      1.0  0.74286  0.49309  0.83539  1.0000
  H   H440      1.0  0.83196  0.14303  0.80061  1.0000
  H   H441      1.0  0.73894  0.27607  0.70867  1.0000
  H   H442      1.0  0.70347  0.03654  0.60756  1.0000
  H   H443      1.0  0.90015  0.14322  0.73110  1.0000
  H   H444      1.0  0.75273  0.12859  0.59418  1.0000
  H   H445      1.0  0.99138  0.27688  0.68786  1.0000
  H   H446      1.0  0.90395  0.35202  0.64053  1.0000
  C   C262      1.0  0.86114  0.18262  0.76930  1.0000
  H   H447      1.0  0.89866  0.23213  0.78164  1.0000
  H   H448      1.0  0.75147  0.31211  0.67587  1.0000
  C   C263      1.0  0.75488  0.12477  0.67690  1.0000
  C   C264      1.0  0.93686  0.12670  0.76816  1.0000
  C   C265      1.0  0.96343  0.38939  0.64204  1.0000
  C   C266      1.0  0.78005  0.06510  0.66192  1.0000
  C   C267      1.0  0.72842  0.07887  0.63805  1.0000
  C   C268      1.0  0.90513  0.32769  0.62059  1.0000
  H   H449      1.0  0.88549  0.33071  0.60073  1.0000
  H   H450      1.0  0.95533  0.19294  0.50950  1.0000
  C   C269      1.0  0.97931  0.19502  0.50393  1.0000
  H   H451      1.0  0.90183  0.30148  0.63704  1.0000
  H   H452      1.0  0.87682  0.13422  0.83048  1.0000
  C   C270      1.0  0.72713  0.04645  0.60879  1.0000
  N   N18       1.0  0.96365  0.32049  0.61885  1.0000
  N   N19       1.0  0.75902  0.09523  0.64587  1.0000
  H   H453      1.0  0.78389  0.09907  0.55148  1.0000
  H   H454      1.0  0.96084  0.25984  0.61120  1.0000
  H   H455      1.0  0.96397  0.40603  0.66916  1.0000
  H   H456      1.0  0.84894  0.18512  0.85580  1.0000
  H   H457      1.0  0.73243  0.05624  0.57927  1.0000
  H   H458      1.0  0.95344  0.18448  0.81011  1.0000
  H   H459      1.0  0.73139  0.16677  0.63952  1.0000
  C   C271      1.0  0.96551  0.34725  0.65237  1.0000
  H   H460      1.0  0.73334  0.17933  0.68928  1.0000
  C   C272      1.0  0.78876  0.08855  0.58109  1.0000
  H   H461      1.0  0.95315  0.23283  0.79645  1.0000
  S   S83       1.0  0.90897  0.48777  0.78004  1.0000
  C   C273      1.0  0.87350  0.19059  0.85327  1.0000
  C   C274      1.0  0.93878  0.20986  0.80729  1.0000
  H   H462      1.0  0.87618  0.21967  0.84246  1.0000
  C   C275      1.0  0.88928  0.16088  0.82725  1.0000
  H   H463      1.0  0.74143  0.02181  0.61711  1.0000
  N   N20       1.0  0.89187  0.17163  0.78546  1.0000
  C   C276      1.0  0.91187  0.20514  0.77932  1.0000
  H   H464      1.0  0.93090  0.21858  0.83636  1.0000
  H   H465      1.0  0.91166  0.15342  0.84008  1.0000
  H   H466      1.0  0.89030  0.11271  0.76927  1.0000
  C   C277      1.0  0.90343  0.13824  0.76253  1.0000
  H   H467      1.0  0.82265  0.09545  0.65181  1.0000
  C   C278      1.0  0.79793  0.49675  0.84143  1.0000
  H   H468      1.0  0.92079  0.20531  0.74929  1.0000
  H   H469      1.0  0.81036  0.09488  0.70149  1.0000
  Fe  Fe42      1.0  0.94122  0.49671  0.88420  1.0000
  C   C279      1.0  0.99984  0.19384  0.53460  1.0000
  C   C280      1.0  0.91748  0.02535  0.62583  1.0000
  H   H470      1.0  0.74911  0.11151  0.70502  1.0000
  H   H471      1.0  0.94547  0.27637  0.65434  1.0000
  H   H472      1.0  0.84275  0.12774  0.75241  1.0000
  H   H473      1.0  0.93492  0.35291  0.57949  1.0000
  C   C281      1.0  0.79537  0.48996  0.88102  1.0000
  C   C282      1.0  0.76655  0.48541  0.89775  1.0000
  S   S84       1.0  0.95954  0.50578  0.94619  1.0000
  S   S85       1.0  0.98779  0.18887  0.58294  1.0000
  H   H474      1.0  0.95213  0.14795  0.75587  1.0000
  H   H475      1.0  0.94200  0.39714  0.62712  1.0000
  Fe  Fe43      1.0  0.88251  0.49707  0.83492  1.0000
  C   C283      1.0  0.69068  0.40736  0.73937  1.0000
  H   H476      1.0  0.99700  0.23814  0.65461  1.0000
  C   C284      1.0  0.99343  0.26909  0.65698  1.0000
  C   C285      1.0  0.77155  0.49790  0.81877  1.0000
  H   H477      1.0  0.72283  0.49422  0.81750  1.0000
  H   H478      1.0  0.98719  0.34293  0.66832  1.0000
  C   C286      1.0  0.68073  0.28100  0.75349  1.0000
  H   H479      1.0  0.68172  0.35716  0.77070  1.0000
  H   H480      1.0  0.98297  0.39808  0.62438  1.0000
  C   C287      1.0  0.98975  0.32721  0.59186  1.0000
  H   H481      1.0  0.98611  0.35396  0.57562  1.0000
  H   H482      1.0  0.67607  0.42441  0.75910  1.0000
  H   H483      1.0  0.99953  0.11485  0.48740  1.0000
  C   C288      1.0  0.99589  0.29629  0.56145  1.0000
  H   H484      1.0  0.67274  0.02232  0.66887  1.0000
  H   H485      1.0  0.97708  0.52484  0.02370  1.0000
  H   H486      1.0  0.99691  0.77457  0.45093  1.0000
  C   C289      1.0  0.99697  0.51271  0.00994  1.0000
  H   H487      1.0  0.00368  0.71074  0.37207  1.0000
  H   H488      1.0  0.00288  0.85151  0.45166  1.0000
  H   H489      1.0  0.98984  0.89608  0.43493  1.0000
  H   H490      1.0  0.94361  0.88063  0.45463  1.0000
  H   H491      1.0  0.98262  0.94803  0.47469  1.0000
  S   S86       1.0  0.72025  0.84727  0.65943  1.0000
  Fe  Fe44      1.0  0.94810  0.78047  0.58038  1.0000
  S   S87       1.0  0.96339  0.81192  0.63293  1.0000
  S   S88       1.0  0.97259  0.76266  0.52553  1.0000
  Fe  Fe45      1.0  0.88110  0.78536  0.60498  1.0000
  S   S89       1.0  0.89125  0.81835  0.65819  1.0000
  S   S90       1.0  0.83494  0.76803  0.58425  1.0000
  Fe  Fe46      1.0  0.92345  0.85130  0.62158  1.0000
  S   S91       1.0  0.92712  0.91332  0.60515  1.0000
  Fe  Fe47      1.0  0.92988  0.77581  0.66516  1.0000
  S   S92       1.0  0.93315  0.74787  0.72453  1.0000
  S   S93       1.0  0.90995  0.82100  0.56775  1.0000
  S   S94       1.0  0.91785  0.74165  0.61323  1.0000
  H   H492      1.0  0.69632  0.56333  0.91303  1.0000
  S   S95       1.0  0.91272  0.54317  0.85586  1.0000
  S   S96       1.0  0.95972  0.57376  0.76003  1.0000
  C   C290      1.0  0.83806  0.87625  0.54519  1.0000
  H   H493      1.0  0.98545  0.62318  0.92590  1.0000
  H   H494      1.0  0.77838  0.68041  0.64533  1.0000
  H   H495      1.0  0.81081  0.70591  0.63255  1.0000
  C   C291      1.0  0.93884  0.69888  0.73310  1.0000
  C   C292      1.0  0.95166  0.67497  0.70528  1.0000
  C   C293      1.0  0.95729  0.63666  0.71385  1.0000
  C   C294      1.0  0.94931  0.62139  0.74977  1.0000
  C   C295      1.0  0.93541  0.64500  0.77712  1.0000
  C   C296      1.0  0.93072  0.68365  0.76904  1.0000
  H   H496      1.0  0.95817  0.68624  0.67760  1.0000
  H   H497      1.0  0.96824  0.61878  0.69256  1.0000
  H   H498      1.0  0.92914  0.63376  0.80490  1.0000
  H   H499      1.0  0.92076  0.70188  0.79076  1.0000
  C   C297      1.0  0.75052  0.81996  0.64074  1.0000
  C   C298      1.0  0.74833  0.80142  0.60537  1.0000
  C   C299      1.0  0.77419  0.78408  0.58900  1.0000
  C   C300      1.0  0.80227  0.78534  0.60785  1.0000
  C   C301      1.0  0.80412  0.80230  0.64407  1.0000
  C   C302      1.0  0.77831  0.81961  0.66039  1.0000
  H   H500      1.0  0.72699  0.80158  0.59004  1.0000
  H   H501      1.0  0.77264  0.77082  0.56102  1.0000
  H   H502      1.0  0.82552  0.80293  0.65905  1.0000
  H   H503      1.0  0.78001  0.83366  0.68794  1.0000
  C   C303      1.0  0.92377  0.99016  0.60876  1.0000
  C   C304      1.0  0.91925  0.95655  0.62909  1.0000
  C   C305      1.0  0.90797  0.95850  0.66675  1.0000
  H   H504      1.0  0.93222  0.98903  0.57954  1.0000
  H   H505      1.0  0.90440  0.93287  0.68275  1.0000
  C   C306      1.0  0.99067  0.57744  0.88279  1.0000
  H   H506      1.0  0.79001  0.71694  0.67603  1.0000
  N   N21       1.0  0.85116  0.66745  0.68108  1.0000
  C   C307      1.0  0.86378  0.64852  0.71687  1.0000
  C   C308      1.0  0.86140  0.70764  0.68167  1.0000
  C   C309      1.0  0.86511  0.64753  0.64682  1.0000
  C   C310      1.0  0.81713  0.66432  0.68117  1.0000
  C   C311      1.0  0.85846  0.60592  0.72087  1.0000
  C   C312      1.0  0.85175  0.73092  0.71728  1.0000
  C   C313      1.0  0.85645  0.66268  0.60663  1.0000
  C   C314      1.0  0.79880  0.69383  0.65733  1.0000
  H   H507      1.0  0.88864  0.65229  0.71863  1.0000
  H   H508      1.0  0.85416  0.66158  0.74342  1.0000
  H   H509      1.0  0.85359  0.72372  0.65607  1.0000
  H   H510      1.0  0.88654  0.70839  0.68012  1.0000
  H   H511      1.0  0.89032  0.64776  0.64889  1.0000
  H   H512      1.0  0.85884  0.61745  0.64627  1.0000
  H   H513      1.0  0.81052  0.63593  0.67108  1.0000
  H   H514      1.0  0.80846  0.66700  0.71123  1.0000
  H   H515      1.0  0.86519  0.59675  0.75040  1.0000
  H   H516      1.0  0.83440  0.59869  0.71697  1.0000
  H   H517      1.0  0.87300  0.58925  0.70084  1.0000
  H   H518      1.0  0.86568  0.72313  0.74284  1.0000
  H   H519      1.0  0.85596  0.76109  0.71157  1.0000
  H   H520      1.0  0.82744  0.72829  0.72414  1.0000
  H   H521      1.0  0.86185  0.69265  0.60270  1.0000
  H   H522      1.0  0.83233  0.65780  0.59991  1.0000
  H   H523      1.0  0.86986  0.64693  0.58462  1.0000
  H   H524      1.0  0.81417  0.90423  0.69971  1.0000
  H   H525      1.0  0.75978  0.56475  0.87517  1.0000
  C   C315      1.0  0.82587  0.90431  0.67137  1.0000
  H   H526      1.0  0.71168  0.55987  0.85132  1.0000
  H   H527      1.0  0.84442  0.92462  0.67366  1.0000
  H   H528      1.0  0.84390  0.86842  0.60548  1.0000
  H   H529      1.0  0.86095  0.93149  0.61235  1.0000
  H   H530      1.0  0.84865  0.94695  0.56664  1.0000
  H   H531      1.0  0.81651  0.99859  0.59683  1.0000
  H   H532      1.0  0.80741  0.85821  0.59001  1.0000
  C   C316      1.0  0.94223  0.88919  0.48530  1.0000
  C   C317      1.0  0.72132  0.58378  0.79650  1.0000
  C   C318      1.0  0.82534  0.87922  0.58655  1.0000
  H   H533      1.0  0.79138  0.94208  0.64878  1.0000
  H   H534      1.0  0.99613  0.65074  0.85976  1.0000
  C   C319      1.0  0.80259  0.91516  0.63982  1.0000
  H   H535      1.0  0.73945  0.56208  0.79324  1.0000
  C   C320      1.0  0.78942  0.93267  0.57366  1.0000
  C   C321      1.0  0.84096  0.94375  0.59701  1.0000
  H   H536      1.0  0.83543  0.87555  0.66727  1.0000
  H   H537      1.0  0.79824  0.94263  0.54551  1.0000
  H   H538      1.0  0.97502  0.56511  0.86138  1.0000
  C   C322      1.0  0.83506  0.98385  0.61260  1.0000
  C   C323      1.0  0.70477  0.67379  0.83608  1.0000
  N   N22       1.0  0.81462  0.91773  0.59922  1.0000
  H   H539      1.0  0.95719  0.58781  0.92792  1.0000
  H   H540      1.0  0.77989  0.59400  0.81163  1.0000
  H   H541      1.0  0.70146  0.57453  0.77967  1.0000
  H   H542      1.0  0.77839  0.95804  0.58674  1.0000
  H   H543      1.0  0.69140  0.68157  0.86199  1.0000
  H   H544      1.0  0.72719  0.63999  0.91999  1.0000
  H   H545      1.0  0.95568  0.62178  0.89009  1.0000
  H   H546      1.0  0.68765  0.59736  0.83997  1.0000
  H   H547      1.0  0.75311  0.89436  0.59183  1.0000
  H   H548      1.0  0.77136  0.60601  0.89903  1.0000
  H   H549      1.0  0.77161  0.88105  0.54718  1.0000
  H   H550      1.0  0.85573  0.00052  0.60827  1.0000
  C   C324      1.0  0.71523  0.61906  0.90193  1.0000
  H   H551      1.0  0.78445  0.89410  0.64154  1.0000
  C   C325      1.0  0.76372  0.90512  0.56516  1.0000
  C   C326      1.0  0.90154  0.99383  0.68383  1.0000
  H   H552      1.0  0.73381  0.56877  0.93301  1.0000
  H   H553      1.0  0.80663  0.58311  0.84856  1.0000
  C   C327      1.0  0.76176  0.59565  0.87136  1.0000
  H   H554      1.0  0.74792  0.65143  0.81928  1.0000
  H   H555      1.0  0.74763  0.67051  0.86608  1.0000
  H   H556      1.0  0.86254  0.88274  0.54475  1.0000
  C   C328      1.0  0.73450  0.65239  0.84623  1.0000
  H   H557      1.0  0.93777  0.91989  0.48776  1.0000
  N   N23       1.0  0.73105  0.61382  0.86365  1.0000
  C   C329      1.0  0.71190  0.58328  0.92668  1.0000
  H   H558      1.0  0.89302  0.99511  0.71303  1.0000
  H   H559      1.0  0.98487  0.62004  0.82233  1.0000
  H   H560      1.0  0.83503  0.84713  0.53439  1.0000
  H   H561      1.0  0.74559  0.92003  0.54857  1.0000
  C   C330      1.0  0.78681  0.60155  0.84115  1.0000
  C   C331      1.0  0.71197  0.58871  0.83905  1.0000
  H   H562      1.0  0.99798  0.55349  0.90125  1.0000
  H   H563      1.0  0.72799  0.61015  0.78240  1.0000
  H   H564      1.0  0.69179  0.63048  0.89789  1.0000
  C   C332      1.0  0.97142  0.60446  0.90812  1.0000
  H   H565      1.0  0.69058  0.65779  0.81580  1.0000
  Fe  Fe48      1.0  0.94020  0.53144  0.80267  1.0000
  H   H566      1.0  0.92222  0.87510  0.49760  1.0000
  H   H567      1.0  0.79484  0.63089  0.84165  1.0000
  H   H568      1.0  0.82605  0.89476  0.52436  1.0000
  H   H569      1.0  0.83041  0.98397  0.64399  1.0000
  H   H570      1.0  0.71026  0.70054  0.82135  1.0000
  H   H571      1.0  0.70163  0.59116  0.95484  1.0000
  C   C333      1.0  0.97052  0.87656  0.50831  1.0000
  H   H572      1.0  0.97916  0.98326  0.53050  1.0000
  H   H573      1.0  0.97233  0.93985  0.55221  1.0000
  H   H574      1.0  0.96500  0.88186  0.53902  1.0000
  H   H575      1.0  0.97253  0.84532  0.50615  1.0000
  C   C334      1.0  0.00469  0.62827  0.84000  1.0000
  N   N24       1.0  0.99987  0.89412  0.49639  1.0000
  C   C335      1.0  0.98966  0.95510  0.53601  1.0000
  C   C336      1.0  0.99813  0.93648  0.49730  1.0000
  H   H576      1.0  0.00407  0.84832  0.56845  1.0000
