data_image0
_chemical_formula_structural       HCSH5CNFeSFeCH2CHS2FeH3FeCH2CH2SHSNHCFeCH2CHC2H2SCSHC4SHNHC3HC3HCH2CH4C2HC2H6SH2CHC2H2C2H3C2H8FeCHSH6C2HC2NC6SCH15CHSHCH3CHSCH2CFeS2FeSH3FeSHSFeS2FeSCFeSFeS2CH4CH3C2HC2HC6H6C5H2CH4CSH2SH5C2H7CSH2NH2SH3C4H2C2FeCH7NC8H20NC7H5CHC2H2CH2CHSCH3C2HC2NHCFeSHFeS2FeSFeSFeS2FeH2CHFeCS2HC2SHC2H2C6H4C4HC2HCHCSCH2CSH2CH2NC8H20CH3C2NH3NC4H12FeH2CH4C2HC4H2SCH3CH9CS2CH4SH4CSH2FeCSFeSCHFeS2HSH2FeH2SHNH2CH4CHCFeH3CSH2CNH4C3H4CH2C2H3CH2SCNH4C2HSH7CHC2H3C2H12C3H4CH2CHCH3CHCH3CHC2HC2SH5CHCNC3HCHNH5C3HCHC3H5CH2C2HCH3CHSH3SCHC2FeHCH2CH2CHFe2H2SH3CHFeS2CFeSHC2HCH2Fe2CHFeCSHCHSH3FeHC2HC3H2CH2CHC2HSCSHS2H3C5H4CFeC2H8CHSH4CH7NHC2SH2CHCHC2HS2C2FeH4CHCH2SCH2CHNH3CH3CHNH3CHC2HC2HSCH4C4H2SC3H2SCHFeHCHCSH2FeS2FeCFeHS2FeS2FeHFeCFeHS2HC2H3CH5CH3CHC7H4CSH3CH2C3H3CSC2H6NC2H2CH2CHC3HSNC2H4NCHCHSC2H3CH9CHC5H3FeCHCHSH5CHCHSH2CHCH4CHCHSH2CH3CHCHCHCH4SH2C3HNHCH3CH3CFeSHFeSHFeSFeS2FeSHFeS2HC2HS2CH5FeH2C3H2C2H3C7H5C3H4CHC2NHCH3CHS2CHC2H2C3HNH3CH5FeCHCHCHCSH5C4NH3CH2SHCHNC8H21C2H2CHC2HCH4CHCHS2HCHFeSCH2CHSH3C2H2FeS2HFeS2CH3FeCHFeCSFe2SHC6FeH5C3HCSH2FeHCSH3CH4SHCH4CHC3H2CNHC2H2CH2CH3CSNH4CH6CHSNHC2H2CFeSH3CSH4C2S2H3CHC2SNH2CSC4H2SHCH2CHCH2CHC2H3CHC2HFeHC2HFeH3C2HC2SH5CHNH6CHCH2S2FeS3HFeCH2NHSFeH4CH2CH4CS2HC2H3CSC4H2SHCHCH4SH2CH2CH2CH3C2H3C2H3C2HNC3NCFeC2H3FeHNC5HC2H2CH8CH2FeCH4NC8H19SH3CH4SHSH3CHSCH3SC2H3FeCH2C2HCHFeHCFeS2NCH2S2FeS2FeS2FeHFeS3HC8H5CH8C2H7C2HCH3SHCH2CH5CH4C2H3CH2SH4CH3CH5CNHCHCH2CH5NC3SHCHCH2C4H3CH2C2FeCHC2HNCH3C3H5SH2CHFeCHCH2CSCH3CHCHFeSCFeSHFeSFeHS2FeSCFeS2FeSH2SFeC6H4CH3C2HC2S2CH3CHCHCH7SNC8H22CH2CHCHCH2CHC4H2CHCHC2H4NH4CHC2SCH2C5SCHFeSCHCHCHSHCHFeHFeHSHCHC2SCS2H2C2NHCHS2C2H7CNH4CH5CH3C2HCFeHCH5CHSCH2CNC8H3CH10FeCH5CHC3NH2CH3CH3CFeSHSH2C2HCHNH6CH4CH2CH2C3SHCH4CH2SHCSCHC2H4C3H
_chemical_formula_sum              "H1152 C672 S192 N48 Fe96"
_cell_length_a       66.418
_cell_length_b       35.2403
_cell_length_c       38.7044
_cell_angle_alpha    89.2226
_cell_angle_beta     89.0726
_cell_angle_gamma    89.6315

_space_group_name_H-M_alt    "P 1"
_space_group_IT_number       1

loop_
  _space_group_symop_operation_xyz
  'x, y, z'

loop_
  _atom_site_type_symbol
  _atom_site_label
  _atom_site_symmetry_multiplicity
  _atom_site_fract_x
  _atom_site_fract_y
  _atom_site_fract_z
  _atom_site_occupancy
  H   H1        1.0  0.05141  0.32049  0.03277  1.0000
  C   C1        1.0  0.09081  0.49886  0.40914  1.0000
  S   S1        1.0  0.30174  0.07149  0.32781  1.0000
  H   H2        1.0  0.27761  0.27545  0.35402  1.0000
  H   H3        1.0  0.10448  0.37089  0.10519  1.0000
  H   H4        1.0  0.07316  0.29854  0.15548  1.0000
  H   H5        1.0  0.27600  0.48525  0.48868  1.0000
  H   H6        1.0  0.06290  0.24295  0.13945  1.0000
  C   C2        1.0  0.08665  0.51351  0.26923  1.0000
  N   N1        1.0  0.07274  0.31514  0.10109  1.0000
  Fe  Fe1       1.0  0.33589  0.46769  0.35371  1.0000
  S   S2        1.0  0.05332  0.06822  0.13628  1.0000
  Fe  Fe2       1.0  0.04442  0.44629  0.16950  1.0000
  C   C3        1.0  0.02932  0.24047  0.18736  1.0000
  H   H7        1.0  0.08573  0.23905  0.11337  1.0000
  H   H8        1.0  0.25665  0.22405  0.34677  1.0000
  C   C4        1.0  0.06315  0.34622  0.07966  1.0000
  H   H9        1.0  0.11977  0.47681  0.35949  1.0000
  S   S3        1.0  0.03715  0.42290  0.11706  1.0000
  S   S4        1.0  0.02041  0.05940  0.20046  1.0000
  Fe  Fe3       1.0  0.04317  0.02209  0.17344  1.0000
  H   H10       1.0  0.13868  0.42021  0.41080  1.0000
  H   H11       1.0  0.30833  0.17772  0.26857  1.0000
  H   H12       1.0  0.25881  0.46041  0.28329  1.0000
  Fe  Fe4       1.0  0.02900  0.10425  0.16093  1.0000
  C   C5        1.0  0.07749  0.35781  0.15442  1.0000
  H   H13       1.0  0.15529  0.10741  0.35108  1.0000
  H   H14       1.0  0.28391  0.25367  0.31314  1.0000
  C   C6        1.0  0.11683  0.47250  0.44797  1.0000
  H   H15       1.0  0.08931  0.48245  0.47919  1.0000
  H   H16       1.0  0.25879  0.06818  0.32076  1.0000
  S   S5        1.0  0.03227  0.05024  0.04187  1.0000
  H   H17       1.0  0.06053  0.36769  0.02684  1.0000
  S   S6        1.0  0.02276  0.40719  0.19756  1.0000
  N   N2        1.0  0.11298  0.49082  0.41313  1.0000
  H   H18       1.0  0.12325  0.34178  0.08544  1.0000
  C   C7        1.0  0.24872  0.51792  0.35124  1.0000
  Fe  Fe5       1.0  0.02878  0.04721  0.10118  1.0000
  C   C8        1.0  0.11004  0.47834  0.21843  1.0000
  H   H19       1.0  0.07475  0.38396  0.13909  1.0000
  H   H20       1.0  0.24470  0.19354  0.37790  1.0000
  C   C9        1.0  0.31983  0.49485  0.46112  1.0000
  H   H21       1.0  0.06284  0.21715  0.10053  1.0000
  C   C10       1.0  0.11909  0.46280  0.38549  1.0000
  C   C11       1.0  0.13960  0.44253  0.39033  1.0000
  H   H22       1.0  0.29993  0.28815  0.32959  1.0000
  H   H23       1.0  0.09601  0.09595  0.24414  1.0000
  S   S7        1.0  0.34294  0.08170  0.39601  1.0000
  C   C12       1.0  0.25720  0.19534  0.35852  1.0000
  S   S8        1.0  0.07790  0.45091  0.18231  1.0000
  H   H24       1.0  0.10979  0.12691  0.27105  1.0000
  C   C13       1.0  0.06274  0.27833  0.09182  1.0000
  C   C14       1.0  0.08891  0.47644  0.21659  1.0000
  C   C15       1.0  0.02347  0.27690  0.17559  1.0000
  C   C16       1.0  0.32298  0.48156  0.49885  1.0000
  S   S9        1.0  0.30858  0.50456  0.36692  1.0000
  H   H25       1.0  0.32285  0.20602  0.41480  1.0000
  N   N3        1.0  0.12152  0.06815  0.31991  1.0000
  H   H26       1.0  0.13224  0.02054  0.19660  1.0000
  C   C17       1.0  0.14240  0.07784  0.30665  1.0000
  C   C18       1.0  0.10668  0.06762  0.29063  1.0000
  C   C19       1.0  0.11441  0.09452  0.34794  1.0000
  H   H27       1.0  0.06100  0.49309  0.24111  1.0000
  C   C20       1.0  0.15854  0.08262  0.33451  1.0000
  C   C21       1.0  0.10916  0.09757  0.26148  1.0000
  C   C22       1.0  0.11389  0.13721  0.33877  1.0000
  H   H28       1.0  0.14790  0.05581  0.28830  1.0000
  C   C23       1.0  0.07725  0.49424  0.24216  1.0000
  H   H29       1.0  0.14267  0.10457  0.29129  1.0000
  H   H30       1.0  0.03649  0.23733  0.21215  1.0000
  C   C24       1.0  0.10778  0.51554  0.27097  1.0000
  H   H31       1.0  0.09091  0.06999  0.30070  1.0000
  H   H32       1.0  0.09878  0.08743  0.35634  1.0000
  H   H33       1.0  0.12319  0.09043  0.37205  1.0000
  H   H34       1.0  0.30393  0.50092  0.45509  1.0000
  C   C25       1.0  0.28424  0.49927  0.34982  1.0000
  C   C26       1.0  0.10563  0.48892  0.47967  1.0000
  H   H35       1.0  0.17335  0.08777  0.32154  1.0000
  C   C27       1.0  0.10686  0.34830  0.08601  1.0000
  C   C28       1.0  0.02630  0.20820  0.16708  1.0000
  H   H36       1.0  0.12269  0.09136  0.24518  1.0000
  H   H37       1.0  0.13570  0.49906  0.24634  1.0000
  H   H38       1.0  0.08208  0.47210  0.41243  1.0000
  H   H39       1.0  0.09938  0.14525  0.32673  1.0000
  H   H40       1.0  0.12651  0.14643  0.32177  1.0000
  H   H41       1.0  0.11562  0.15375  0.36278  1.0000
  S   S10       1.0  0.22155  0.49792  0.30130  1.0000
  H   H42       1.0  0.25405  0.17379  0.33865  1.0000
  H   H43       1.0  0.14401  0.42821  0.36591  1.0000
  C   C29       1.0  0.06806  0.32241  0.13873  1.0000
  H   H44       1.0  0.27626  0.15623  0.38493  1.0000
  C   C30       1.0  0.09517  0.31145  0.09463  1.0000
  C   C31       1.0  0.11945  0.49786  0.24536  1.0000
  H   H45       1.0  0.04607  0.28106  0.09424  1.0000
  H   H46       1.0  0.29308  0.46232  0.30836  1.0000
  C   C32       1.0  0.17474  0.50649  0.45409  1.0000
  C   C33       1.0  0.28459  0.03326  0.33269  1.0000
  H   H47       1.0  0.09482  0.02613  0.36752  1.0000
  H   H48       1.0  0.07056  0.36265  0.18034  1.0000
  H   H49       1.0  0.05150  0.32482  0.14300  1.0000
  C   C34       1.0  0.06916  0.24275  0.11275  1.0000
  C   C35       1.0  0.02040  0.46444  0.01012  1.0000
  H   H50       1.0  0.30338  0.17217  0.42751  1.0000
  H   H51       1.0  0.17785  0.50214  0.42696  1.0000
  H   H52       1.0  0.04699  0.34975  0.08731  1.0000
  H   H53       1.0  0.17305  0.44669  0.46629  1.0000
  H   H54       1.0  0.10766  0.43994  0.38335  1.0000
  H   H55       1.0  0.08798  0.49830  0.35225  1.0000
  H   H56       1.0  0.13317  0.47296  0.45380  1.0000
  H   H57       1.0  0.11921  0.46468  0.19882  1.0000
  Fe  Fe6       1.0  0.33486  0.06676  0.34176  1.0000
  C   C36       1.0  0.06355  0.34016  0.04022  1.0000
  H   H58       1.0  0.09385  0.35373  0.15858  1.0000
  S   S11       1.0  0.03486  0.16332  0.18246  1.0000
  H   H59       1.0  0.06584  0.27123  0.06432  1.0000
  H   H60       1.0  0.13209  0.02769  0.35866  1.0000
  H   H61       1.0  0.09846  0.29205  0.07272  1.0000
  H   H62       1.0  0.15183  0.46226  0.39660  1.0000
  H   H63       1.0  0.32522  0.16709  0.30238  1.0000
  H   H64       1.0  0.15331  0.05653  0.47734  1.0000
  C   C37       1.0  0.17218  0.47512  0.47646  1.0000
  C   C38       1.0  0.28076  0.47769  0.32047  1.0000
  H   H65       1.0  0.07822  0.32907  0.03064  1.0000
  C   C39       1.0  0.26134  0.47668  0.30631  1.0000
  C   C40       1.0  0.24530  0.49713  0.32141  1.0000
  N   N4        1.0  0.29646  0.19353  0.35600  1.0000
  C   C41       1.0  0.31283  0.16965  0.37229  1.0000
  C   C42       1.0  0.29413  0.18001  0.31945  1.0000
  C   C43       1.0  0.27727  0.18665  0.37662  1.0000
  C   C44       1.0  0.30267  0.23458  0.35766  1.0000
  C   C45       1.0  0.31684  0.17714  0.41082  1.0000
  C   C46       1.0  0.31250  0.18582  0.29515  1.0000
  S   S12       1.0  0.34910  0.44571  0.30386  1.0000
  C   C47       1.0  0.29004  0.26409  0.33755  1.0000
  H   H66       1.0  0.30944  0.13884  0.36996  1.0000
  H   H67       1.0  0.32752  0.17381  0.35871  1.0000
  H   H68       1.0  0.28128  0.19383  0.30635  1.0000
  H   H69       1.0  0.29038  0.14924  0.31954  1.0000
  H   H70       1.0  0.11259  0.44193  0.44774  1.0000
  H   H71       1.0  0.27716  0.20328  0.40089  1.0000
  H   H72       1.0  0.30245  0.24435  0.38487  1.0000
  H   H73       1.0  0.31868  0.23832  0.34968  1.0000
  H   H74       1.0  0.32867  0.15715  0.41990  1.0000
  H   H75       1.0  0.02307  0.44130  0.02815  1.0000
  H   H76       1.0  0.10251  0.29785  0.11738  1.0000
  H   H77       1.0  0.31743  0.21580  0.29391  1.0000
  H   H78       1.0  0.10312  0.35985  0.06011  1.0000
  H   H79       1.0  0.07007  0.37422  0.08433  1.0000
  H   H80       1.0  0.32496  0.47197  0.44346  1.0000
  C   C48       1.0  0.26395  0.03990  0.32740  1.0000
  H   H81       1.0  0.16043  0.05702  0.35101  1.0000
  S   S13       1.0  0.02220  0.49427  0.16423  1.0000
  H   H82       1.0  0.31656  0.45251  0.50134  1.0000
  C   C49       1.0  0.12264  0.02854  0.33526  1.0000
  H   H83       1.0  0.09622  0.02185  0.17982  1.0000
  H   H84       1.0  0.10737  0.04001  0.27717  1.0000
  H   H85       1.0  0.33958  0.47775  0.50117  1.0000
  C   C50       1.0  0.08472  0.51716  0.37439  1.0000
  H   H86       1.0  0.02615  0.30152  0.19124  1.0000
  S   S14       1.0  0.34211  0.41400  0.38388  1.0000
  C   C51       1.0  0.15819  0.02890  0.48653  1.0000
  H   H87       1.0  0.11166  0.47503  0.50336  1.0000
  H   H88       1.0  0.08480  0.51771  0.42955  1.0000
  C   C52       1.0  0.27765  0.50887  0.50713  1.0000
  Fe  Fe7       1.0  0.20414  0.06136  0.66574  1.0000
  S   S15       1.0  0.19957  0.07122  0.60909  1.0000
  S   S16       1.0  0.23640  0.06803  0.68367  1.0000
  Fe  Fe8       1.0  0.15818  0.06065  0.68104  1.0000
  S   S17       1.0  0.15098  0.07184  0.62509  1.0000
  H   H89       1.0  0.20075  0.49429  0.71925  1.0000
  H   H90       1.0  0.09021  0.06210  0.74113  1.0000
  H   H91       1.0  0.08559  0.03235  0.65608  1.0000
  Fe  Fe9       1.0  0.17619  0.11402  0.62563  1.0000
  S   S18       1.0  0.17677  0.17161  0.59881  1.0000
  H   H92       1.0  0.06787  0.02774  0.95529  1.0000
  S   S19       1.0  0.18180  0.10635  0.68203  1.0000
  Fe  Fe10      1.0  0.20420  0.43651  0.64622  1.0000
  S   S20       1.0  0.19133  0.39219  0.61190  1.0000
  S   S21       1.0  0.23759  0.43401  0.65845  1.0000
  Fe  Fe11      1.0  0.16206  0.46610  0.66792  1.0000
  S   S22       1.0  0.14621  0.42435  0.63475  1.0000
  C   C53       1.0  0.10698  0.30416  0.72008  1.0000
  Fe  Fe12      1.0  0.16860  0.38131  0.65415  1.0000
  S   S23       1.0  0.15944  0.32507  0.67866  1.0000
  Fe  Fe13      1.0  0.17020  0.43887  0.59491  1.0000
  S   S24       1.0  0.16282  0.44035  0.53805  1.0000
  S   S25       1.0  0.18292  0.42209  0.69001  1.0000
  C   C54       1.0  0.06669  0.02281  0.88294  1.0000
  H   H93       1.0  0.08821  0.35452  0.66926  1.0000
  H   H94       1.0  0.08132  0.37621  0.79665  1.0000
  H   H95       1.0  0.29219  0.07858  0.58396  1.0000
  H   H96       1.0  0.11519  0.31155  0.69585  1.0000
  C   C55       1.0  0.31449  0.05599  0.61830  1.0000
  H   H97       1.0  0.32708  0.06507  0.60100  1.0000
  H   H98       1.0  0.15368  0.40184  0.76773  1.0000
  H   H99       1.0  0.24804  0.47533  0.71973  1.0000
  C   C56       1.0  0.10747  0.49228  0.69140  1.0000
  C   C57       1.0  0.27551  0.02363  0.55200  1.0000
  H   H100      1.0  0.11309  0.48308  0.66646  1.0000
  C   C58       1.0  0.32756  0.45636  0.57134  1.0000
  C   C59       1.0  0.29470  0.05133  0.59828  1.0000
  H   H101      1.0  0.24279  0.02808  0.55261  1.0000
  C   C60       1.0  0.17072  0.21382  0.62094  1.0000
  C   C61       1.0  0.17345  0.24886  0.60385  1.0000
  C   C62       1.0  0.16985  0.28315  0.62115  1.0000
  C   C63       1.0  0.16343  0.28262  0.65572  1.0000
  C   C64       1.0  0.16039  0.24760  0.67271  1.0000
  C   C65       1.0  0.16401  0.21329  0.65539  1.0000
  H   H102      1.0  0.17857  0.24949  0.57715  1.0000
  H   H103      1.0  0.17213  0.30995  0.60774  1.0000
  H   H104      1.0  0.15533  0.24697  0.69941  1.0000
  H   H105      1.0  0.16169  0.18646  0.66873  1.0000
  H   H106      1.0  0.27905  0.06730  0.69371  1.0000
  H   H107      1.0  0.10502  0.02704  0.89426  1.0000
  C   C66       1.0  0.12097  0.50443  0.71623  1.0000
  C   C67       1.0  0.02437  0.45975  0.97446  1.0000
  C   C68       1.0  0.02505  0.03016  0.97456  1.0000
  C   C69       1.0  0.25536  0.46993  0.64866  1.0000
  C   C70       1.0  0.27520  0.46537  0.66022  1.0000
  H   H108      1.0  0.07634  0.48252  0.67931  1.0000
  H   H109      1.0  0.27955  0.43925  0.67318  1.0000
  C   C71       1.0  0.22731  0.44967  0.75596  1.0000
  H   H110      1.0  0.33692  0.45414  0.59483  1.0000
  H   H111      1.0  0.08054  0.34046  0.72731  1.0000
  H   H112      1.0  0.34254  0.50809  0.55618  1.0000
  H   H113      1.0  0.25373  0.04917  0.58928  1.0000
  C   C72       1.0  0.08663  0.49210  0.69871  1.0000
  S   S26       1.0  0.18463  0.48431  0.62652  1.0000
  H   H114      1.0  0.27682  0.05054  0.53666  1.0000
  H   H115      1.0  0.15988  0.04618  0.53981  1.0000
  S   S27       1.0  0.02603  0.48185  0.90592  1.0000
  H   H116      1.0  0.02590  0.06030  0.96913  1.0000
  H   H117      1.0  0.09564  0.28291  0.71255  1.0000
  H   H118      1.0  0.31754  0.04806  0.54564  1.0000
  H   H119      1.0  0.31248  0.44529  0.57872  1.0000
  H   H120      1.0  0.21912  0.50110  0.68687  1.0000
  C   C73       1.0  0.02102  0.48958  0.95062  1.0000
  C   C74       1.0  0.16836  0.48029  0.51184  1.0000
  H   H121      1.0  0.11782  0.29061  0.73809  1.0000
  H   H122      1.0  0.07033  0.04630  0.90060  1.0000
  H   H123      1.0  0.09401  0.32989  0.76466  1.0000
  H   H124      1.0  0.09371  0.06809  0.62592  1.0000
  H   H125      1.0  0.13671  0.35084  0.73881  1.0000
  H   H126      1.0  0.14315  0.42044  0.72900  1.0000
  H   H127      1.0  0.08070  0.42665  0.79845  1.0000
  C   C75       1.0  0.21241  0.51454  0.71025  1.0000
  S   S28       1.0  0.14732  0.50484  0.70796  1.0000
  H   H128      1.0  0.25134  0.48785  0.76346  1.0000
  H   H129      1.0  0.09760  0.39534  0.64677  1.0000
  N   N5        1.0  0.31489  0.50685  0.52722  1.0000
  H   H130      1.0  0.11130  0.04896  0.65548  1.0000
  H   H131      1.0  0.30441  0.49128  0.66581  1.0000
  S   S29       1.0  0.13177  0.06254  0.71970  1.0000
  H   H132      1.0  0.08267  0.05445  0.84153  1.0000
  H   H133      1.0  0.32035  0.51420  0.58197  1.0000
  H   H134      1.0  0.12478  0.35980  0.77888  1.0000
  C   C76       1.0  0.09567  0.03315  0.74290  1.0000
  C   C77       1.0  0.25415  0.03034  0.68361  1.0000
  C   C78       1.0  0.16191  0.02309  0.52192  1.0000
  C   C79       1.0  0.32667  0.49838  0.55952  1.0000
  H   H135      1.0  0.13146  0.43050  0.77045  1.0000
  H   H136      1.0  0.28792  0.51147  0.55994  1.0000
  C   C80       1.0  0.28932  0.49478  0.65608  1.0000
  C   C81       1.0  0.11574  0.02493  0.73332  1.0000
  Fe  Fe14      1.0  0.17503  0.02825  0.61430  1.0000
  C   C82       1.0  0.27452  0.03835  0.68939  1.0000
  H   H137      1.0  0.23748  0.42452  0.75710  1.0000
  H   H138      1.0  0.11627  0.41684  0.69529  1.0000
  H   H139      1.0  0.22127  0.45362  0.78252  1.0000
  H   H140      1.0  0.29095  0.46762  0.54024  1.0000
  H   H141      1.0  0.05635  0.06373  0.84471  1.0000
  H   H142      1.0  0.07996  0.40181  0.68150  1.0000
  H   H143      1.0  0.10407  0.40276  0.80493  1.0000
  N   N6        1.0  0.23340  0.20960  0.66395  1.0000
  C   C83       1.0  0.22680  0.23475  0.63420  1.0000
  C   C84       1.0  0.24289  0.17442  0.64873  1.0000
  C   C85       1.0  0.24874  0.23106  0.68440  1.0000
  C   C86       1.0  0.21502  0.20057  0.68583  1.0000
  C   C87       1.0  0.22012  0.27556  0.64348  1.0000
  C   C88       1.0  0.22929  0.15086  0.62548  1.0000
  C   C89       1.0  0.26395  0.20737  0.70559  1.0000
  C   C90       1.0  0.21792  0.17401  0.71730  1.0000
  H   H144      1.0  0.23909  0.23749  0.61439  1.0000
  H   H145      1.0  0.21388  0.22201  0.62062  1.0000
  H   H146      1.0  0.24840  0.15451  0.66894  1.0000
  H   H147      1.0  0.25652  0.18216  0.63306  1.0000
  H   H148      1.0  0.25827  0.24903  0.66682  1.0000
  H   H149      1.0  0.24108  0.25108  0.70248  1.0000
  H   H150      1.0  0.20832  0.22694  0.69660  1.0000
  H   H151      1.0  0.20262  0.18915  0.67015  1.0000
  H   H152      1.0  0.20717  0.27606  0.66184  1.0000
  H   H153      1.0  0.23259  0.29262  0.65379  1.0000
  H   H154      1.0  0.21507  0.29039  0.61959  1.0000
  H   H155      1.0  0.23752  0.12471  0.61771  1.0000
  H   H156      1.0  0.21548  0.14156  0.63941  1.0000
  H   H157      1.0  0.22524  0.16618  0.60133  1.0000
  H   H158      1.0  0.27503  0.19286  0.68839  1.0000
  H   H159      1.0  0.25679  0.18613  0.72295  1.0000
  H   H160      1.0  0.27267  0.22672  0.72206  1.0000
  H   H161      1.0  0.22364  0.18976  0.73972  1.0000
  H   H162      1.0  0.22767  0.14922  0.71179  1.0000
  H   H163      1.0  0.20317  0.16148  0.72481  1.0000
  N   N7        1.0  0.10700  0.37575  0.73431  1.0000
  C   C91       1.0  0.09398  0.40605  0.75064  1.0000
  C   C92       1.0  0.11098  0.38706  0.69712  1.0000
  C   C93       1.0  0.12685  0.37178  0.75233  1.0000
  C   C94       1.0  0.09620  0.33836  0.73708  1.0000
  C   C95       1.0  0.09002  0.40206  0.78990  1.0000
  C   C96       1.0  0.09294  0.38433  0.67272  1.0000
  C   C97       1.0  0.13924  0.40852  0.75485  1.0000
  H   H164      1.0  0.10055  0.43458  0.74598  1.0000
  H   H165      1.0  0.07892  0.40735  0.73849  1.0000
  H   H166      1.0  0.12359  0.37037  0.68562  1.0000
  H   H167      1.0  0.03013  0.43286  0.96533  1.0000
  H   H168      1.0  0.21527  0.44223  0.73791  1.0000
  C   C98       1.0  0.31286  0.01836  0.55186  1.0000
  H   H169      1.0  0.31236  0.07866  0.63771  1.0000
  C   C99       1.0  0.29304  0.49849  0.53518  1.0000
  C   C100      1.0  0.09247  0.51663  0.75567  1.0000
  H   H170      1.0  0.19533  0.49279  0.77419  1.0000
  H   H171      1.0  0.09491  0.02001  0.95148  1.0000
  C   C101      1.0  0.23969  0.48410  0.74348  1.0000
  H   H172      1.0  0.26277  0.51427  0.51974  1.0000
  H   H173      1.0  0.28244  0.04961  0.61817  1.0000
  C   C102      1.0  0.09840  0.04145  0.63928  1.0000
  H   H174      1.0  0.23470  0.50746  0.62264  1.0000
  S   S30       1.0  0.05265  0.50267  0.73859  1.0000
  C   C103      1.0  0.06788  0.04082  0.84651  1.0000
  H   H175      1.0  0.06451  0.02057  0.82584  1.0000
  H   H176      1.0  0.33481  0.43788  0.55172  1.0000
  H   H177      1.0  0.11640  0.02350  0.59522  1.0000
  C   C104      1.0  0.07900  0.50418  0.73085  1.0000
  C   C105      1.0  0.24989  0.50372  0.63184  1.0000
  H   H178      1.0  0.12170  0.01937  0.84288  1.0000
  C   C106      1.0  0.16746  0.51709  0.52490  1.0000
  C   C107      1.0  0.25506  0.02472  0.57163  1.0000
  N   N8        1.0  0.29388  0.01810  0.57403  1.0000
  H   H179      1.0  0.31900  0.03002  0.63267  1.0000
  C   C108      1.0  0.11334  0.51701  0.74825  1.0000
  Fe  Fe15      1.0  0.16635  0.95733  0.30091  1.0000
  S   S31       1.0  0.14691  0.93583  0.34445  1.0000
  H   H180      1.0  0.23026  0.59449  0.21969  1.0000
  Fe  Fe16      1.0  0.20540  0.93898  0.33984  1.0000
  S   S32       1.0  0.18834  0.91563  0.38626  1.0000
  S   S33       1.0  0.23960  0.93429  0.34080  1.0000
  Fe  Fe17      1.0  0.16893  0.88712  0.34731  1.0000
  S   S34       1.0  0.15508  0.82869  0.35423  1.0000
  Fe  Fe18      1.0  0.16807  0.96628  0.37908  1.0000
  S   S35       1.0  0.18724  0.90662  0.30131  1.0000
  Fe  Fe19      1.0  0.18211  0.62011  0.31496  1.0000
  S   S36       1.0  0.17754  0.56969  0.28084  1.0000
  S   S37       1.0  0.19343  0.67710  0.29472  1.0000
  Fe  Fe20      1.0  0.17536  0.57325  0.38112  1.0000
  H   H181      1.0  0.22447  0.67279  0.42200  1.0000
  H   H182      1.0  0.15476  0.66019  0.40589  1.0000
  C   C109      1.0  0.26198  0.61676  0.33940  1.0000
  H   H183      1.0  0.09210  0.54498  0.36992  1.0000
  Fe  Fe21      1.0  0.15148  0.55471  0.31637  1.0000
  C   C110      1.0  0.08653  0.98531  0.22174  1.0000
  S   S38       1.0  0.20308  0.58954  0.35086  1.0000
  S   S39       1.0  0.15474  0.60787  0.34768  1.0000
  H   H184      1.0  0.12518  0.58677  0.41554  1.0000
  C   C111      1.0  0.16096  0.99927  0.46295  1.0000
  C   C112      1.0  0.20677  0.78298  0.41235  1.0000
  S   S40       1.0  0.17395  0.58312  0.43880  1.0000
  H   H185      1.0  0.23111  0.72116  0.42388  1.0000
  C   C113      1.0  0.10238  0.01037  0.34635  1.0000
  C   C114      1.0  0.29109  0.99651  0.34115  1.0000
  H   H186      1.0  0.27066  0.53558  0.38813  1.0000
  H   H187      1.0  0.22265  0.72789  0.35908  1.0000
  C   C115      1.0  0.16521  0.78766  0.33473  1.0000
  C   C116      1.0  0.15511  0.75306  0.33960  1.0000
  C   C117      1.0  0.16331  0.71919  0.32652  1.0000
  C   C118      1.0  0.18172  0.71962  0.30849  1.0000
  C   C119      1.0  0.19148  0.75444  0.30253  1.0000
  C   C120      1.0  0.18328  0.78839  0.31569  1.0000
  H   H188      1.0  0.14105  0.75233  0.35412  1.0000
  H   H189      1.0  0.15552  0.69266  0.33085  1.0000
  H   H190      1.0  0.20568  0.75505  0.28845  1.0000
  H   H191      1.0  0.19119  0.81491  0.31179  1.0000
  C   C121      1.0  0.16726  0.96363  0.47508  1.0000
  C   C122      1.0  0.27709  0.96664  0.34372  1.0000
  C   C123      1.0  0.17301  0.54328  0.46684  1.0000
  C   C124      1.0  0.26811  0.51907  0.36528  1.0000
  H   H192      1.0  0.23440  0.66249  0.24441  1.0000
  C   C125      1.0  0.22571  0.70049  0.37243  1.0000
  C   C126      1.0  0.12751  0.98396  0.24107  1.0000
  H   H193      1.0  0.12936  0.55967  0.45442  1.0000
  C   C127      1.0  0.25646  0.97320  0.33829  1.0000
  H   H194      1.0  0.16932  0.94058  0.45718  1.0000
  C   C128      1.0  0.10082  0.00590  0.20247  1.0000
  S   S41       1.0  0.15569  0.00734  0.41883  1.0000
  C   C129      1.0  0.12124  0.00496  0.21198  1.0000
  H   H195      1.0  0.20729  0.78950  0.44023  1.0000
  H   H196      1.0  0.15596  0.70964  0.41462  1.0000
  C   C130      1.0  0.27453  0.57662  0.27472  1.0000
  S   S42       1.0  0.15332  0.98377  0.25203  1.0000
  H   H197      1.0  0.17758  0.75755  0.41382  1.0000
  H   H198      1.0  0.24206  0.69469  0.36905  1.0000
  C   C131      1.0  0.12071  0.56066  0.43009  1.0000
  H   H199      1.0  0.28231  0.93822  0.34980  1.0000
  H   H200      1.0  0.18484  0.68366  0.37754  1.0000
  N   N9        1.0  0.12770  0.84200  0.24750  1.0000
  C   C132      1.0  0.11882  0.82473  0.28027  1.0000
  C   C133      1.0  0.13358  0.80950  0.22435  1.0000
  C   C134      1.0  0.11132  0.86516  0.23055  1.0000
  C   C135      1.0  0.14533  0.86652  0.25681  1.0000
  C   C136      1.0  0.11012  0.85277  0.30705  1.0000
  C   C137      1.0  0.14954  0.78179  0.23897  1.0000
  C   C138      1.0  0.11700  0.88650  0.19686  1.0000
  C   C139      1.0  0.16125  0.87486  0.22800  1.0000
  H   H201      1.0  0.10660  0.80441  0.27423  1.0000
  H   H202      1.0  0.13034  0.80780  0.29429  1.0000
  H   H203      1.0  0.13926  0.81936  0.19878  1.0000
  H   H204      1.0  0.12008  0.79232  0.21825  1.0000
  H   H205      1.0  0.09810  0.84697  0.22510  1.0000
  H   H206      1.0  0.10563  0.88756  0.24806  1.0000
  H   H207      1.0  0.13994  0.89437  0.26672  1.0000
  H   H208      1.0  0.15372  0.85311  0.27855  1.0000
  H   H209      1.0  0.10716  0.83715  0.33174  1.0000
  H   H210      1.0  0.12079  0.87571  0.31293  1.0000
  H   H211      1.0  0.09550  0.86503  0.29886  1.0000
  H   H212      1.0  0.15499  0.76280  0.21809  1.0000
  H   H213      1.0  0.16282  0.79660  0.24905  1.0000
  H   H214      1.0  0.14308  0.76311  0.25960  1.0000
  H   H215      1.0  0.12245  0.86740  0.17620  1.0000
  H   H216      1.0  0.12803  0.90931  0.20152  1.0000
  H   H217      1.0  0.10331  0.90107  0.18692  1.0000
  H   H218      1.0  0.16580  0.90510  0.22939  1.0000
  H   H219      1.0  0.15634  0.87058  0.20127  1.0000
  H   H220      1.0  0.17522  0.85818  0.23260  1.0000
  C   C140      1.0  0.19694  0.71354  0.45920  1.0000
  H   H221      1.0  0.11765  0.94818  0.28347  1.0000
  H   H222      1.0  0.20053  0.80866  0.39920  1.0000
  H   H223      1.0  0.12580  0.53554  0.38021  1.0000
  C   C141      1.0  0.22051  0.70140  0.41143  1.0000
  C   C142      1.0  0.11313  0.96407  0.26079  1.0000
  N   N10       1.0  0.19899  0.71129  0.42047  1.0000
  H   H224      1.0  0.27448  0.59618  0.34306  1.0000
  H   H225      1.0  0.22222  0.77896  0.40172  1.0000
  H   H226      1.0  0.02727  0.96727  0.04171  1.0000
  N   N11       1.0  0.26003  0.60972  0.27326  1.0000
  C   C143      1.0  0.23193  0.57429  0.24168  1.0000
  C   C144      1.0  0.23889  0.59426  0.27462  1.0000
  C   C145      1.0  0.26269  0.63587  0.30331  1.0000
  C   C146      1.0  0.26394  0.63194  0.24036  1.0000
  H   H227      1.0  0.21762  0.67743  0.35939  1.0000
  H   H228      1.0  0.21769  0.67507  0.48666  1.0000
  H   H229      1.0  0.18183  0.72442  0.46733  1.0000
  H   H230      1.0  0.21688  0.56173  0.24669  1.0000
  H   H231      1.0  0.27325  0.55874  0.25142  1.0000
  H   H232      1.0  0.27713  0.65161  0.30085  1.0000
  H   H233      1.0  0.22756  0.61661  0.28095  1.0000
  H   H234      1.0  0.23721  0.57330  0.29613  1.0000
  H   H235      1.0  0.10454  0.56458  0.43599  1.0000
  H   H236      1.0  0.25076  0.65827  0.30341  1.0000
  H   H237      1.0  0.27944  0.64372  0.24008  1.0000
  H   H238      1.0  0.26395  0.61340  0.21727  1.0000
  Fe  Fe22      1.0  0.19681  0.53813  0.31945  1.0000
  H   H239      1.0  0.19785  0.65040  0.46564  1.0000
  H   H240      1.0  0.24809  0.67093  0.20569  1.0000
  C   C147      1.0  0.24992  0.01009  0.33036  1.0000
  H   H241      1.0  0.19213  0.67554  0.50361  1.0000
  H   H242      1.0  0.24202  0.55047  0.23433  1.0000
  H   H243      1.0  0.08181  0.94866  0.26610  1.0000
  H   H244      1.0  0.30577  0.55957  0.28041  1.0000
  C   C148      1.0  0.09280  0.96455  0.25100  1.0000
  C   C149      1.0  0.20155  0.67653  0.47963  1.0000
  H   H245      1.0  0.09201  0.00718  0.32441  1.0000
  C   C150      1.0  0.24986  0.66639  0.23394  1.0000
  C   C151      1.0  0.16966  0.54853  0.50237  1.0000
  C   C152      1.0  0.19297  0.74909  0.40495  1.0000
  C   C153      1.0  0.18544  0.68130  0.40616  1.0000
  H   H246      1.0  0.25613  0.69249  0.24531  1.0000
  H   H247      1.0  0.19159  0.65228  0.41067  1.0000
  S   S43       1.0  0.06093  0.98285  0.20965  1.0000
  C   C154      1.0  0.16345  0.68197  0.41961  1.0000
  H   H248      1.0  0.20743  0.73503  0.46932  1.0000
  H   H249      1.0  0.16239  0.67439  0.44748  1.0000
  H   H250      1.0  0.19197  0.74717  0.37653  1.0000
  C   C155      1.0  0.29705  0.58647  0.27756  1.0000
  H   H251      1.0  0.32743  0.99869  0.50463  1.0000
  H   H252      1.0  0.13004  0.00883  0.31665  1.0000
  H   H253      1.0  0.30692  0.99097  0.34521  1.0000
  H   H254      1.0  0.24742  0.60252  0.34458  1.0000
  H   H255      1.0  0.27073  0.55726  0.29670  1.0000
  H   H256      1.0  0.30030  0.60349  0.30064  1.0000
  H   H257      1.0  0.26370  0.63874  0.35938  1.0000
  H   H258      1.0  0.30292  0.60100  0.25394  1.0000
  H   H259      1.0  0.10542  0.98132  0.35660  1.0000
  C   C156      1.0  0.02572  0.97792  0.01553  1.0000
  S   S44       1.0  0.18630  0.99148  0.33509  1.0000
  S   S45       1.0  0.11870  0.53959  0.30621  1.0000
  C   C157      1.0  0.12564  0.52588  0.40770  1.0000
  H   H260      1.0  0.23412  0.01551  0.32601  1.0000
  H   H261      1.0  0.28111  0.53533  0.49272  1.0000
  H   H262      1.0  0.23645  0.53322  0.36343  1.0000
  H   H263      1.0  0.07745  0.52716  0.28879  1.0000
  S   S46       1.0  0.02041  0.99827  0.13663  1.0000
  H   H264      1.0  0.31110  0.55641  0.49339  1.0000
  H   H265      1.0  0.14170  0.51928  0.41243  1.0000
  H   H266      1.0  0.10783  0.51968  0.48264  1.0000
  H   H267      1.0  0.06822  0.52245  0.37466  1.0000
  C   C158      1.0  0.02699  0.01697  0.00890  1.0000
  S   S47       1.0  0.17043  0.51925  0.35244  1.0000
  H   H268      1.0  0.32918  0.52000  0.45447  1.0000
  H   H269      1.0  0.30237  0.01489  0.49819  1.0000
  Fe  Fe23      1.0  0.33460  0.94360  0.67672  1.0000
  C   C159      1.0  0.13963  0.94073  0.65801  1.0000
  S   S48       1.0  0.30107  0.93385  0.68530  1.0000
  Fe  Fe24      1.0  0.33380  0.56834  0.64734  1.0000
  S   S49       1.0  0.29998  0.56838  0.63802  1.0000
  C   C160      1.0  0.31144  0.57708  0.54505  1.0000
  H   H270      1.0  0.11908  0.96950  0.84285  1.0000
  Fe  Fe25      1.0  0.04159  0.93207  0.79316  1.0000
  S   S50       1.0  0.07400  0.92927  0.77263  1.0000
  S   S51       1.0  0.03480  0.88928  0.83535  1.0000
  H   H271      1.0  0.10628  0.61923  0.72327  1.0000
  S   S52       1.0  0.04735  0.55116  0.83264  1.0000
  H   H272      1.0  0.31620  0.72615  0.61524  1.0000
  H   H273      1.0  0.25928  0.56218  0.76938  1.0000
  Fe  Fe26      1.0  0.02578  0.60028  0.82475  1.0000
  H   H274      1.0  0.06518  0.58414  0.75416  1.0000
  H   H275      1.0  0.06263  0.95653  0.66236  1.0000
  S   S53       1.0  0.03899  0.65923  0.83149  1.0000
  H   H276      1.0  0.24823  0.53961  0.69512  1.0000
  N   N12       1.0  0.11003  0.97293  0.62572  1.0000
  H   H277      1.0  0.23277  0.98626  0.67400  1.0000
  H   H278      1.0  0.07445  0.96348  0.83943  1.0000
  C   C161      1.0  0.24842  0.99277  0.67833  1.0000
  H   H279      1.0  0.21802  0.56800  0.76750  1.0000
  H   H280      1.0  0.29536  0.57376  0.55256  1.0000
  H   H281      1.0  0.08347  0.94620  0.57336  1.0000
  H   H282      1.0  0.11392  0.91590  0.60599  1.0000
  C   C162      1.0  0.28908  0.00913  0.68972  1.0000
  H   H283      1.0  0.03603  0.79792  0.81760  1.0000
  C   C163      1.0  0.02767  0.77178  0.81605  1.0000
  Fe  Fe27      1.0  0.03492  0.52853  0.78365  1.0000
  H   H284      1.0  0.28080  0.94618  0.55416  1.0000
  H   H285      1.0  0.30975  0.80861  0.72648  1.0000
  H   H286      1.0  0.13821  0.98091  0.72960  1.0000
  C   C164      1.0  0.08954  0.96677  0.75731  1.0000
  S   S54       1.0  0.18113  0.01468  0.67037  1.0000
  H   H287      1.0  0.27737  0.81647  0.70653  1.0000
  H   H288      1.0  0.25205  0.99795  0.58615  1.0000
  C   C165      1.0  0.07315  0.95650  0.86727  1.0000
  N   N13       1.0  0.07435  0.63268  0.72300  1.0000
  H   H289      1.0  0.07849  0.90367  0.89673  1.0000
  H   H290      1.0  0.13023  0.92622  0.67800  1.0000
  H   H291      1.0  0.06079  0.96561  0.93070  1.0000
  H   H292      1.0  0.08139  0.68800  0.70101  1.0000
  C   C166      1.0  0.28831  0.80130  0.65464  1.0000
  C   C167      1.0  0.26291  0.96342  0.67953  1.0000
  C   C168      1.0  0.28330  0.97148  0.68508  1.0000
  H   H293      1.0  0.05281  0.73617  0.83057  1.0000
  H   H294      1.0  0.25831  0.93438  0.67592  1.0000
  H   H295      1.0  0.04311  0.59007  0.66399  1.0000
  H   H296      1.0  0.31567  0.75268  0.69054  1.0000
  C   C169      1.0  0.07283  0.95441  0.63937  1.0000
  H   H297      1.0  0.06814  0.97793  0.62211  1.0000
  H   H298      1.0  0.06905  0.72853  0.74627  1.0000
  C   C170      1.0  0.12268  0.98747  0.73605  1.0000
  C   C171      1.0  0.08412  0.91825  0.87289  1.0000
  H   H299      1.0  0.06358  0.69010  0.77495  1.0000
  H   H300      1.0  0.33586  0.79766  0.71662  1.0000
  H   H301      1.0  0.23080  0.53225  0.79153  1.0000
  C   C172      1.0  0.29261  0.98241  0.59581  1.0000
  H   H302      1.0  0.09438  0.67735  0.73942  1.0000
  H   H303      1.0  0.31983  0.84805  0.57453  1.0000
  S   S55       1.0  0.02516  0.97929  0.82059  1.0000
  C   C173      1.0  0.09258  0.61230  0.70843  1.0000
  N   N14       1.0  0.07993  0.98860  0.88958  1.0000
  H   H304      1.0  0.27083  0.57982  0.73025  1.0000
  H   H305      1.0  0.04301  0.64330  0.71165  1.0000
  H   H306      1.0  0.25951  0.55966  0.61563  1.0000
  H   H307      1.0  0.04885  0.69760  0.73656  1.0000
  C   C174      1.0  0.27803  0.79130  0.68953  1.0000
  C   C175      1.0  0.02192  0.00478  0.94723  1.0000
  H   H308      1.0  0.28111  0.78447  0.63412  1.0000
  S   S56       1.0  0.17188  0.97843  0.57846  1.0000
  H   H309      1.0  0.04073  0.85162  0.90436  1.0000
  H   H310      1.0  0.28020  0.98410  0.61529  1.0000
  H   H311      1.0  0.27300  0.53068  0.74031  1.0000
  H   H312      1.0  0.02012  0.01552  0.92118  1.0000
  H   H313      1.0  0.21060  0.56750  0.67961  1.0000
  H   H314      1.0  0.18698  0.54159  0.77555  1.0000
  H   H315      1.0  0.02062  0.75543  0.92413  1.0000
  C   C176      1.0  0.31840  0.54802  0.51787  1.0000
  H   H316      1.0  0.28335  0.92357  0.59456  1.0000
  C   C177      1.0  0.21996  0.53666  0.77017  1.0000
  C   C178      1.0  0.02648  0.70246  0.82146  1.0000
  H   H317      1.0  0.28338  0.83092  0.64871  1.0000
  H   H318      1.0  0.10218  0.97389  0.54966  1.0000
  H   H319      1.0  0.07969  0.99196  0.98048  1.0000
  C   C179      1.0  0.09772  0.62089  0.67015  1.0000
  C   C180      1.0  0.31053  0.72588  0.64235  1.0000
  H   H320      1.0  0.04186  0.80112  0.90148  1.0000
  H   H321      1.0  0.31621  0.69901  0.65417  1.0000
  H   H322      1.0  0.18751  0.54224  0.68379  1.0000
  H   H323      1.0  0.05883  0.64683  0.67521  1.0000
  H   H324      1.0  0.33531  0.75872  0.66030  1.0000
  H   H325      1.0  0.09120  0.58104  0.71149  1.0000
  H   H326      1.0  0.31325  0.60615  0.53405  1.0000
  H   H327      1.0  0.09903  0.92769  0.65930  1.0000
  H   H328      1.0  0.31893  0.86829  0.61635  1.0000
  H   H329      1.0  0.08597  0.61025  0.65276  1.0000
  H   H330      1.0  0.17527  0.92989  0.51977  1.0000
  H   H331      1.0  0.06244  0.56879  0.68828  1.0000
  C   C181      1.0  0.32356  0.81879  0.71321  1.0000
  C   C182      1.0  0.03714  0.73673  0.82334  1.0000
  C   C183      1.0  0.02298  0.95248  0.98811  1.0000
  H   H332      1.0  0.09946  0.99983  0.82611  1.0000
  H   H333      1.0  0.15395  0.94810  0.67061  1.0000
  H   H334      1.0  0.05452  0.62733  0.76784  1.0000
  H   H335      1.0  0.14366  0.92096  0.63691  1.0000
  C   C184      1.0  0.10963  0.95859  0.74792  1.0000
  H   H336      1.0  0.19608  0.56858  0.71971  1.0000
  H   H337      1.0  0.32094  0.57571  0.56833  1.0000
  C   C185      1.0  0.11053  0.99631  0.84688  1.0000
  H   H338      1.0  0.11193  0.60581  0.66310  1.0000
  C   C186      1.0  0.08007  0.00609  0.95461  1.0000
  H   H339      1.0  0.12365  0.52657  0.76762  1.0000
  H   H340      1.0  0.33396  0.80083  0.61234  1.0000
  H   H341      1.0  0.05678  0.95119  0.87168  1.0000
  C   C187      1.0  0.08486  0.61686  0.78539  1.0000
  H   H342      1.0  0.33474  0.55295  0.51290  1.0000
  C   C188      1.0  0.06870  0.61474  0.75729  1.0000
  H   H343      1.0  0.08087  0.89931  0.85095  1.0000
  H   H344      1.0  0.33578  0.83574  0.66427  1.0000
  H   H345      1.0  0.10018  0.65157  0.66523  1.0000
  C   C189      1.0  0.08256  0.00419  0.75457  1.0000
  H   H346      1.0  0.09487  0.97278  0.67610  1.0000
  C   C190      1.0  0.06420  0.69842  0.74727  1.0000
  C   C191      1.0  0.26257  0.55537  0.74199  1.0000
  H   H347      1.0  0.28513  0.76722  0.70335  1.0000
  C   C192      1.0  0.24326  0.54870  0.72133  1.0000
  C   C193      1.0  0.07955  0.67404  0.72682  1.0000
  S   S57       1.0  0.01914  0.93184  0.92009  1.0000
  H   H348      1.0  0.32823  0.84486  0.72667  1.0000
  H   H349      1.0  0.10273  0.92346  0.54829  1.0000
  H   H350      1.0  0.07865  0.60469  0.80989  1.0000
  H   H351      1.0  0.08918  0.64639  0.79109  1.0000
  H   H352      1.0  0.09843  0.59989  0.77854  1.0000
  C   C194      1.0  0.20116  0.55060  0.69798  1.0000
  H   H353      1.0  0.03295  0.82351  0.94082  1.0000
  C   C195      1.0  0.03290  0.82505  0.91223  1.0000
  N   N15       1.0  0.31094  0.79838  0.65270  1.0000
  C   C196      1.0  0.31743  0.80549  0.61558  1.0000
  C   C197      1.0  0.31865  0.75951  0.66293  1.0000
  C   C198      1.0  0.32051  0.82838  0.67460  1.0000
  H   H354      1.0  0.08637  0.95158  0.93346  1.0000
  C   C199      1.0  0.31269  0.84534  0.60061  1.0000
  H   H355      1.0  0.26240  0.78186  0.68482  1.0000
  N   N16       1.0  0.22839  0.52071  0.73687  1.0000
  H   H356      1.0  0.23618  0.57714  0.71761  1.0000
  H   H357      1.0  0.30617  0.97906  0.61195  1.0000
  H   H358      1.0  0.31023  0.78516  0.59795  1.0000
  H   H359      1.0  0.14093  0.99175  0.62712  1.0000
  H   H360      1.0  0.29386  0.72463  0.64316  1.0000
  C   C200      1.0  0.16802  0.98734  0.53404  1.0000
  C   C201      1.0  0.07645  0.97606  0.92672  1.0000
  C   C202      1.0  0.09950  0.94782  0.56551  1.0000
  H   H361      1.0  0.12782  0.99652  0.66677  1.0000
  C   C203      1.0  0.09480  0.95705  0.65130  1.0000
  H   H362      1.0  0.31168  0.85531  0.67352  1.0000
  C   C204      1.0  0.29068  0.94454  0.57681  1.0000
  C   C205      1.0  0.12964  0.97760  0.64431  1.0000
  C   C206      1.0  0.05655  0.62997  0.69949  1.0000
  H   H363      1.0  0.11520  0.92975  0.75021  1.0000
  H   H364      1.0  0.16840  0.57695  0.51241  1.0000
  H   H365      1.0  0.30470  0.01562  0.69432  1.0000
  H   H366      1.0  0.30718  0.96900  0.51815  1.0000
  H   H367      1.0  0.07010  0.92686  0.62672  1.0000
  C   C207      1.0  0.04993  0.58951  0.69000  1.0000
  H   H368      1.0  0.10067  0.92133  0.87396  1.0000
  H   H369      1.0  0.29629  0.84990  0.59742  1.0000
  C   C208      1.0  0.26398  0.53321  0.62789  1.0000
  C   C209      1.0  0.11391  0.94581  0.59634  1.0000
  H   H370      1.0  0.11140  0.97836  0.89989  1.0000
  C   C210      1.0  0.10192  0.99817  0.88433  1.0000
  H   H371      1.0  0.03867  0.57840  0.70898  1.0000
  H   H372      1.0  0.06710  0.01085  0.76146  1.0000
  H   H373      1.0  0.12921  0.95045  0.58470  1.0000
  C   C211      1.0  0.19922  0.52152  0.78283  1.0000
  H   H374      1.0  0.30575  0.93340  0.56903  1.0000
  S   S58       1.0  0.34779  0.61798  0.61923  1.0000
  H   H375      1.0  0.32564  0.00538  0.56623  1.0000
  H   H376      1.0  0.02243  0.92233  0.99359  1.0000
  H   H377      1.0  0.19893  0.52043  0.81154  1.0000
  S   S59       1.0  0.34406  0.93427  0.62171  1.0000
  C   C212      1.0  0.28363  0.52908  0.64047  1.0000
  H   H378      1.0  0.08681  0.52566  0.78064  1.0000
  C   C213      1.0  0.02116  0.96566  0.95377  1.0000
  C   C214      1.0  0.17058  0.95762  0.51055  1.0000
  Fe  Fe28      1.0  0.02137  0.52220  0.85997  1.0000
  H   H379      1.0  0.27418  0.00117  0.53241  1.0000
  C   C215      1.0  0.10405  0.01159  0.61189  1.0000
  H   H380      1.0  0.09094  0.01028  0.59466  1.0000
  H   H381      1.0  0.16442  0.52128  0.55213  1.0000
  C   C216      1.0  0.31207  0.99884  0.51644  1.0000
  H   H382      1.0  0.05063  0.01555  0.88827  1.0000
  H   H383      1.0  0.39844  0.21253  0.31574  1.0000
  C   C217      1.0  0.61177  0.47525  0.24835  1.0000
  H   H384      1.0  0.64352  0.09475  0.28986  1.0000
  Fe  Fe29      1.0  0.66900  0.05365  0.41084  1.0000
  Fe  Fe30      1.0  0.36679  0.03686  0.39037  1.0000
  H   H385      1.0  0.42767  0.24676  0.26789  1.0000
  H   H386      1.0  0.53926  0.46729  0.35479  1.0000
  S   S60       1.0  0.65550  0.08403  0.36489  1.0000
  H   H387      1.0  0.65022  0.24781  0.25346  1.0000
  H   H388      1.0  0.67606  0.12682  0.23959  1.0000
  H   H389      1.0  0.42963  0.43763  0.36532  1.0000
  C   C218      1.0  0.35909  0.22300  0.33579  1.0000
  H   H390      1.0  0.62200  0.08254  0.24485  1.0000
  Fe  Fe31      1.0  0.66447  0.44377  0.33298  1.0000
  S   S61       1.0  0.64118  0.44565  0.28998  1.0000
  S   S62       1.0  0.65787  0.42816  0.38877  1.0000
  C   C219      1.0  0.44935  0.11749  0.31892  1.0000
  Fe  Fe32      1.0  0.37957  0.06283  0.31799  1.0000
  S   S63       1.0  0.39041  0.07757  0.37088  1.0000
  H   H391      1.0  0.56732  0.45091  0.25637  1.0000
  C   C220      1.0  0.35765  0.29238  0.33526  1.0000
  C   C221      1.0  0.42628  0.17717  0.35739  1.0000
  H   H392      1.0  0.45019  0.46926  0.36227  1.0000
  C   C222      1.0  0.62488  0.48253  0.27565  1.0000
  H   H393      1.0  0.40793  0.22892  0.36700  1.0000
  H   H394      1.0  0.54007  0.42219  0.33467  1.0000
  Fe  Fe33      1.0  0.37193  0.44025  0.39514  1.0000
  Fe  Fe34      1.0  0.35749  0.39346  0.33536  1.0000
  C   C223      1.0  0.58314  0.44305  0.33366  1.0000
  H   H395      1.0  0.51049  0.37512  0.03811  1.0000
  Fe  Fe35      1.0  0.37897  0.46873  0.32087  1.0000
  C   C224      1.0  0.42175  0.49497  0.38020  1.0000
  S   S64       1.0  0.38812  0.41525  0.34904  1.0000
  H   H396      1.0  0.50274  0.51684  0.06429  1.0000
  C   C225      1.0  0.43626  0.04192  0.23795  1.0000
  H   H397      1.0  0.58035  0.03210  0.31172  1.0000
  S   S65       1.0  0.35259  0.33510  0.31243  1.0000
  H   H398      1.0  0.44158  0.16856  0.36576  1.0000
  H   H399      1.0  0.44124  0.45091  0.40424  1.0000
  H   H400      1.0  0.40923  0.19108  0.25290  1.0000
  Fe  Fe36      1.0  0.68248  0.38415  0.38234  1.0000
  H   H401      1.0  0.39613  0.14775  0.26444  1.0000
  C   C226      1.0  0.36512  0.22282  0.37025  1.0000
  C   C227      1.0  0.36734  0.25756  0.38712  1.0000
  H   H402      1.0  0.40722  0.48334  0.39041  1.0000
  C   C228      1.0  0.65209  0.11953  0.27938  1.0000
  C   C229      1.0  0.38091  0.47584  0.47675  1.0000
  C   C230      1.0  0.43646  0.47470  0.28407  1.0000
  H   H403      1.0  0.43014  0.45168  0.29939  1.0000
  H   H404      1.0  0.46618  0.44962  0.28081  1.0000
  C   C231      1.0  0.45688  0.47357  0.27338  1.0000
  H   H405      1.0  0.61277  0.16822  0.24127  1.0000
  H   H406      1.0  0.44702  0.26001  0.29600  1.0000
  C   C232      1.0  0.37404  0.51074  0.46396  1.0000
  H   H407      1.0  0.45013  0.11146  0.34707  1.0000
  C   C233      1.0  0.65096  0.18691  0.26307  1.0000
  C   C234      1.0  0.63733  0.17770  0.33564  1.0000
  H   H408      1.0  0.64967  0.47429  0.46535  1.0000
  S   S66       1.0  0.36496  0.49504  0.36813  1.0000
  C   C235      1.0  0.59152  0.02257  0.29306  1.0000
  S   S67       1.0  0.65478  0.05225  0.46425  1.0000
  H   H409      1.0  0.54325  0.40925  0.23177  1.0000
  S   S68       1.0  0.39832  0.50830  0.28678  1.0000
  S   S69       1.0  0.40165  0.06438  0.27206  1.0000
  H   H410      1.0  0.67319  0.07980  0.25604  1.0000
  H   H411      1.0  0.39245  0.16485  0.32433  1.0000
  H   H412      1.0  0.66311  0.12630  0.29959  1.0000
  C   C236      1.0  0.50302  0.50392  0.00966  1.0000
  C   C237      1.0  0.39787  0.17822  0.27062  1.0000
  C   C238      1.0  0.42274  0.21643  0.37343  1.0000
  C   C239      1.0  0.36813  0.04056  0.48621  1.0000
  C   C240      1.0  0.61211  0.10783  0.24713  1.0000
  H   H413      1.0  0.58823  0.49733  0.21540  1.0000
  H   H414      1.0  0.52966  0.45163  0.24047  1.0000
  H   H415      1.0  0.65022  0.47916  0.20688  1.0000
  H   H416      1.0  0.43503  0.23632  0.36629  1.0000
  C   C241      1.0  0.67148  0.51600  0.47962  1.0000
  Fe  Fe37      1.0  0.36558  0.12125  0.37142  1.0000
  C   C242      1.0  0.54438  0.49413  0.01664  1.0000
  C   C243      1.0  0.54386  0.50495  0.28604  1.0000
  H   H417      1.0  0.42770  0.13040  0.28043  1.0000
  H   H418      1.0  0.65761  0.44225  0.17826  1.0000
  H   H419      1.0  0.61942  0.13304  0.31550  1.0000
  H   H420      1.0  0.60326  0.10600  0.27162  1.0000
  H   H421      1.0  0.65088  0.16124  0.34267  1.0000
  H   H422      1.0  0.60122  0.10637  0.22570  1.0000
  H   H423      1.0  0.64179  0.20750  0.33030  1.0000
  H   H424      1.0  0.62728  0.17804  0.35887  1.0000
  C   C244      1.0  0.49413  0.38036  0.03536  1.0000
  H   H425      1.0  0.55422  0.51385  0.26454  1.0000
  S   S70       1.0  0.67864  0.32587  0.40773  1.0000
  H   H426      1.0  0.50598  0.43317  0.33531  1.0000
  H   H427      1.0  0.56172  0.41311  0.28584  1.0000
  H   H428      1.0  0.61664  0.03311  0.32657  1.0000
  H   H429      1.0  0.44283  0.18874  0.27385  1.0000
  C   C245      1.0  0.36360  0.29221  0.36975  1.0000
  H   H430      1.0  0.63035  0.22325  0.23295  1.0000
  H   H431      1.0  0.58119  0.49293  0.30147  1.0000
  H   H432      1.0  0.50791  0.48317  0.33496  1.0000
  H   H433      1.0  0.49008  0.40413  0.05278  1.0000
  H   H434      1.0  0.62922  0.23193  0.27891  1.0000
  H   H435      1.0  0.46885  0.50043  0.39939  1.0000
  H   H436      1.0  0.61194  0.44759  0.23654  1.0000
  N   N17       1.0  0.63831  0.15295  0.27282  1.0000
  H   H437      1.0  0.37207  0.25773  0.41374  1.0000
  C   C246      1.0  0.59832  0.50338  0.23628  1.0000
  C   C247      1.0  0.42099  0.03119  0.26170  1.0000
  S   S71       1.0  0.38463  0.43701  0.44906  1.0000
  H   H438      1.0  0.56048  0.49047  0.01913  1.0000
  H   H439      1.0  0.36958  0.51347  0.43743  1.0000
  C   C248      1.0  0.43950  0.19999  0.30015  1.0000
  H   H440      1.0  0.57379  0.42384  0.35006  1.0000
  C   C249      1.0  0.43337  0.24210  0.29445  1.0000
  H   H441      1.0  0.65530  0.09738  0.22609  1.0000
  C   C250      1.0  0.66226  0.45795  0.20148  1.0000
  C   C251      1.0  0.57104  0.47732  0.31962  1.0000
  H   H442      1.0  0.65960  0.18176  0.23873  1.0000
  S   S72       1.0  0.54496  0.51242  0.08570  1.0000
  S   S73       1.0  0.37085  0.18011  0.39272  1.0000
  C   C252      1.0  0.53759  0.42754  0.25301  1.0000
  C   C253      1.0  0.55556  0.43992  0.27471  1.0000
  Fe  Fe38      1.0  0.66750  0.03468  0.33452  1.0000
  H   H443      1.0  0.41704  0.11495  0.32057  1.0000
  H   H444      1.0  0.38313  0.19205  0.26536  1.0000
  H   H445      1.0  0.50995  0.45696  0.29523  1.0000
  H   H446      1.0  0.41560  0.15707  0.37050  1.0000
  C   C254      1.0  0.62415  0.14506  0.24374  1.0000
  H   H447      1.0  0.54524  0.04210  0.02622  1.0000
  C   C255      1.0  0.65425  0.49385  0.48500  1.0000
  H   H448      1.0  0.42280  0.21327  0.40203  1.0000
  H   H449      1.0  0.36533  0.31881  0.38303  1.0000
  S   S74       1.0  0.35736  0.01884  0.33719  1.0000
  C   C256      1.0  0.62600  0.16003  0.30529  1.0000
  H   H450      1.0  0.63234  0.14477  0.21841  1.0000
  H   H451      1.0  0.46277  0.02436  0.20879  1.0000
  C   C257      1.0  0.63925  0.22432  0.25693  1.0000
  H   H452      1.0  0.61281  0.17871  0.29991  1.0000
  N   N18       1.0  0.55130  0.46857  0.30259  1.0000
  H   H453      1.0  0.41902  0.50318  0.35287  1.0000
  H   H454      1.0  0.66263  0.19200  0.28284  1.0000
  H   H455      1.0  0.59558  0.45357  0.34979  1.0000
  C   C258      1.0  0.53690  0.45286  0.32975  1.0000
  H   H456      1.0  0.42238  0.25365  0.31334  1.0000
  H   H457      1.0  0.59051  0.42699  0.31237  1.0000
  H   H458      1.0  0.46200  0.13585  0.31035  1.0000
  C   C259      1.0  0.51411  0.45721  0.32269  1.0000
  H   H459      1.0  0.48564  0.35511  0.04466  1.0000
  N   N19       1.0  0.42444  0.17470  0.31867  1.0000
  H   H460      1.0  0.41635  0.49950  0.44665  1.0000
  H   H461      1.0  0.52687  0.41005  0.26854  1.0000
  H   H462      1.0  0.45142  0.08970  0.30596  1.0000
  C   C260      1.0  0.43684  0.46171  0.37843  1.0000
  H   H463      1.0  0.45411  0.19950  0.31390  1.0000
  C   C261      1.0  0.42416  0.50522  0.27420  1.0000
  C   C262      1.0  0.40297  0.18330  0.30903  1.0000
  H   H464      1.0  0.43627  0.07038  0.22714  1.0000
  C   C263      1.0  0.35548  0.25764  0.31835  1.0000
  C   C264      1.0  0.42864  0.13403  0.30889  1.0000
  H   H465      1.0  0.36778  0.06341  0.46727  1.0000
  S   S75       1.0  0.35613  0.10948  0.31758  1.0000
  C   C265      1.0  0.53273  0.50465  0.04575  1.0000
  H   H466      1.0  0.66296  0.43727  0.22323  1.0000
  H   H467      1.0  0.56870  0.49663  0.34186  1.0000
  H   H468      1.0  0.35747  0.19654  0.32239  1.0000
  H   H469      1.0  0.44258  0.49657  0.44217  1.0000
  C   C266      1.0  0.46521  0.50271  0.25248  1.0000
  C   C267      1.0  0.61208  0.02319  0.30156  1.0000
  C   C268      1.0  0.66469  0.10565  0.24810  1.0000
  C   C269      1.0  0.51194  0.50923  0.04210  1.0000
  H   H470      1.0  0.52918  0.50150  0.27347  1.0000
  H   H471      1.0  0.66468  0.50922  0.25174  1.0000
  S   S76       1.0  0.49097  0.49941  0.23940  1.0000
  C   C270      1.0  0.68277  0.28211  0.38648  1.0000
  C   C271      1.0  0.67833  0.24798  0.40420  1.0000
  C   C272      1.0  0.68164  0.21259  0.38844  1.0000
  H   H472      1.0  0.67815  0.18660  0.40243  1.0000
  H   H473      1.0  0.67229  0.24893  0.43031  1.0000
  S   S77       1.0  0.53944  0.51295  0.18739  1.0000
  C   C273      1.0  0.53123  0.02806  0.02076  1.0000
  H   H474      1.0  0.35096  0.25760  0.29162  1.0000
  Fe  Fe39      1.0  0.68304  0.46812  0.40094  1.0000
  H   H475      1.0  0.68015  0.49943  0.17382  1.0000
  C   C274      1.0  0.68271  0.47721  0.19409  1.0000
  H   H476      1.0  0.68356  0.45993  0.26921  1.0000
  C   C275      1.0  0.42974  0.51632  0.43834  1.0000
  S   S78       1.0  0.47812  0.51271  0.77294  1.0000
  H   H477      1.0  0.57014  0.26030  0.75103  1.0000
  H   H478      1.0  0.50410  0.30496  0.77427  1.0000
  Fe  Fe40      1.0  0.52321  0.12063  0.85500  1.0000
  S   S79       1.0  0.49174  0.10001  0.86551  1.0000
  S   S80       1.0  0.53454  0.18051  0.86539  1.0000
  Fe  Fe41      1.0  0.50637  0.04952  0.89162  1.0000
  C   C276      1.0  0.46569  0.38705  0.93121  1.0000
  Fe  Fe42      1.0  0.49555  0.06745  0.81601  1.0000
  H   H479      1.0  0.43719  0.07519  0.73002  1.0000
  S   S81       1.0  0.53764  0.07213  0.88464  1.0000
  S   S82       1.0  0.52641  0.09151  0.80362  1.0000
  Fe  Fe43      1.0  0.49989  0.39369  0.84452  1.0000
  S   S83       1.0  0.48182  0.44513  0.86010  1.0000
  S   S84       1.0  0.48532  0.33528  0.84739  1.0000
  Fe  Fe44      1.0  0.53634  0.44157  0.82357  1.0000
  H   H480      1.0  0.46170  0.38083  0.90409  1.0000
  Fe  Fe45      1.0  0.51013  0.46404  0.88639  1.0000
  C   C277      1.0  0.48507  0.29731  0.94855  1.0000
  Fe  Fe46      1.0  0.49389  0.47358  0.81195  1.0000
  H   H481      1.0  0.48692  0.50765  0.00719  1.0000
  S   S85       1.0  0.52747  0.41056  0.87308  1.0000
  S   S86       1.0  0.50976  0.42075  0.79422  1.0000
  H   H482      1.0  0.52872  0.05366  0.96977  1.0000
  C   C278      1.0  0.53599  0.29086  0.77615  1.0000
  C   C279      1.0  0.51698  0.35687  0.97001  1.0000
  H   H483      1.0  0.44339  0.46555  0.79290  1.0000
  H   H484      1.0  0.56905  0.29976  0.70613  1.0000
  H   H485      1.0  0.67986  0.05935  0.83569  1.0000
  C   C280      1.0  0.43312  0.09096  0.84457  1.0000
  H   H486      1.0  0.46025  0.06879  0.90878  1.0000
  H   H487      1.0  0.41860  0.10164  0.85484  1.0000
  H   H488      1.0  0.58493  0.22983  0.80797  1.0000
  H   H489      1.0  0.50071  0.29105  0.93992  1.0000
  H   H490      1.0  0.57683  0.34616  0.75186  1.0000
  C   C281      1.0  0.60085  0.48771  0.65806  1.0000
  H   H491      1.0  0.38889  0.50137  0.56035  1.0000
  H   H492      1.0  0.52672  0.41288  0.94919  1.0000
  H   H493      1.0  0.54969  0.35398  0.81296  1.0000
  C   C282      1.0  0.67995  0.04738  0.72724  1.0000
  H   H494      1.0  0.55244  0.47608  0.72638  1.0000
  C   C283      1.0  0.44384  0.06577  0.91430  1.0000
  C   C284      1.0  0.51996  0.22272  0.86199  1.0000
  C   C285      1.0  0.52810  0.25694  0.87359  1.0000
  C   C286      1.0  0.51759  0.29155  0.86948  1.0000
  C   C287      1.0  0.49878  0.29224  0.85384  1.0000
  C   C288      1.0  0.49036  0.25791  0.84317  1.0000
  C   C289      1.0  0.50093  0.22331  0.84703  1.0000
  H   H495      1.0  0.54271  0.25666  0.88555  1.0000
  H   H496      1.0  0.52406  0.31768  0.87836  1.0000
  H   H497      1.0  0.47572  0.25814  0.83127  1.0000
  H   H498      1.0  0.49447  0.19720  0.83802  1.0000
  C   C290      1.0  0.55812  0.32231  0.71332  1.0000
  S   S87       1.0  0.56579  0.42940  0.79452  1.0000
  H   H499      1.0  0.63256  0.04577  0.79295  1.0000
  H   H500      1.0  0.56088  0.34659  0.69529  1.0000
  H   H501      1.0  0.49474  0.42017  0.99219  1.0000
  C   C291      1.0  0.53545  0.48874  0.98419  1.0000
  H   H502      1.0  0.56255  0.50721  0.63634  1.0000
  H   H503      1.0  0.59999  0.42600  0.74859  1.0000
  C   C292      1.0  0.53028  0.39263  0.97032  1.0000
  C   C293      1.0  0.51871  0.32015  0.77442  1.0000
  C   C294      1.0  0.38606  0.47247  0.51170  1.0000
  H   H504      1.0  0.40597  0.04919  0.56737  1.0000
  H   H505      1.0  0.59786  0.46945  0.68105  1.0000
  H   H506      1.0  0.45583  0.36889  0.94754  1.0000
  C   C295      1.0  0.59861  0.03156  0.73843  1.0000
  S   S88       1.0  0.52117  0.49642  0.83882  1.0000
  C   C296      1.0  0.42147  0.02178  0.73424  1.0000
  C   C297      1.0  0.66023  0.42829  0.59272  1.0000
  H   H507      1.0  0.59186  0.47884  0.63578  1.0000
  H   H508      1.0  0.58817  0.35399  0.80459  1.0000
  H   H509      1.0  0.44775  0.08256  0.96753  1.0000
  H   H510      1.0  0.59931  0.05500  0.72012  1.0000
  H   H511      1.0  0.52156  0.34078  0.94656  1.0000
  H   H512      1.0  0.58760  0.28540  0.77495  1.0000
  N   N20       1.0  0.49449  0.36361  0.97071  1.0000
  C   C298      1.0  0.45388  0.50643  0.75506  1.0000
  C   C299      1.0  0.42004  0.48010  0.75646  1.0000
  H   H513      1.0  0.65111  0.08202  0.79460  1.0000
  H   H514      1.0  0.56512  0.25363  0.82957  1.0000
  C   C300      1.0  0.51467  0.49360  0.98050  1.0000
  H   H515      1.0  0.43428  0.07642  0.62333  1.0000
  H   H516      1.0  0.46189  0.41721  0.93652  1.0000
  C   C301      1.0  0.57993  0.33688  0.82437  1.0000
  H   H517      1.0  0.47840  0.27009  0.95774  1.0000
  C   C302      1.0  0.61452  0.48059  0.74976  1.0000
  C   C303      1.0  0.44126  0.05830  0.95353  1.0000
  C   C304      1.0  0.64638  0.05693  0.77992  1.0000
  H   H518      1.0  0.40900  0.46164  0.76866  1.0000
  S   S89       1.0  0.50231  0.48702  0.94048  1.0000
  N   N21       1.0  0.43501  0.03643  0.89094  1.0000
  C   C305      1.0  0.57180  0.27500  0.77605  1.0000
  C   C306      1.0  0.48846  0.37975  0.93615  1.0000
  H   H519      1.0  0.45272  0.04318  0.84358  1.0000
  H   H520      1.0  0.53251  0.27184  0.79865  1.0000
  H   H521      1.0  0.51841  0.33849  0.79738  1.0000
  H   H522      1.0  0.51944  0.33803  0.75068  1.0000
  N   N22       1.0  0.55682  0.30711  0.77898  1.0000
  C   C307      1.0  0.58393  0.50000  0.79742  1.0000
  H   H523      1.0  0.55151  0.31003  0.83443  1.0000
  C   C308      1.0  0.55626  0.48810  0.70038  1.0000
  H   H524      1.0  0.49578  0.40754  0.93130  1.0000
  S   S90       1.0  0.36723  0.03020  0.59069  1.0000
  C   C309      1.0  0.58379  0.03172  0.76499  1.0000
  C   C310      1.0  0.43955  0.48223  0.77024  1.0000
  H   H525      1.0  0.46823  0.33020  0.98596  1.0000
  H   H526      1.0  0.53488  0.27220  0.75330  1.0000
  H   H527      1.0  0.67044  0.07335  0.72500  1.0000
  C   C311      1.0  0.55844  0.32693  0.81314  1.0000
  H   H528      1.0  0.38623  0.05443  0.92056  1.0000
  H   H529      1.0  0.43751  0.09447  0.90954  1.0000
  H   H530      1.0  0.44558  0.10912  0.85340  1.0000
  H   H531      1.0  0.52170  0.33864  0.99220  1.0000
  H   H532      1.0  0.66154  0.39981  0.60493  1.0000
  H   H533      1.0  0.42706  0.03202  0.83682  1.0000
  H   H534      1.0  0.62628  0.47290  0.73146  1.0000
  H   H535      1.0  0.63002  0.47913  0.52058  1.0000
  H   H536      1.0  0.55913  0.22113  0.79607  1.0000
  C   C312      1.0  0.41464  0.50199  0.72733  1.0000
  H   H537      1.0  0.55161  0.36188  0.75413  1.0000
  C   C313      1.0  0.56996  0.24325  0.80392  1.0000
  C   C314      1.0  0.58421  0.46371  0.78327  1.0000
  C   C315      1.0  0.43713  0.04881  0.85346  1.0000
  C   C316      1.0  0.43710  0.04717  0.74179  1.0000
  C   C317      1.0  0.45234  0.03694  0.76506  1.0000
  H   H538      1.0  0.49426  0.36214  0.91451  1.0000
  H   H539      1.0  0.40960  0.03036  0.71693  1.0000
  H   H540      1.0  0.65114  0.44599  0.61072  1.0000
  Fe  Fe47      1.0  0.53844  0.04149  0.83387  1.0000
  C   C318      1.0  0.38467  0.50404  0.53352  1.0000
  H   H541      1.0  0.54257  0.31257  0.70876  1.0000
  C   C319      1.0  0.59960  0.45409  0.75952  1.0000
  H   H542      1.0  0.58879  0.31108  0.83104  1.0000
  S   S91       1.0  0.47084  0.07101  0.77551  1.0000
  H   H543      1.0  0.67324  0.40610  0.52845  1.0000
  H   H544      1.0  0.57322  0.05509  0.76696  1.0000
  H   H545      1.0  0.36576  0.07771  0.52997  1.0000
  H   H546      1.0  0.56511  0.46626  0.68660  1.0000
  H   H547      1.0  0.64899  0.04149  0.53748  1.0000
  C   C320      1.0  0.56106  0.33591  0.75063  1.0000
  H   H548      1.0  0.64183  0.06553  0.75350  1.0000
  C   C321      1.0  0.68084  0.44741  0.58649  1.0000
  H   H549      1.0  0.57891  0.35439  0.84801  1.0000
  S   S92       1.0  0.65940  0.49968  0.67065  1.0000
  H   H550      1.0  0.65152  0.42671  0.56858  1.0000
  H   H551      1.0  0.58784  0.03559  0.93127  1.0000
  C   C322      1.0  0.52193  0.03460  0.98868  1.0000
  H   H552      1.0  0.40515  0.08773  0.91092  1.0000
  C   C323      1.0  0.39848  0.06120  0.90161  1.0000
  H   H553      1.0  0.67174  0.02484  0.71349  1.0000
  H   H554      1.0  0.49113  0.31172  0.00095  1.0000
  H   H555      1.0  0.54467  0.48099  0.96206  1.0000
  H   H556      1.0  0.47610  0.30701  0.92610  1.0000
  C   C324      1.0  0.48429  0.32618  0.97819  1.0000
  H   H557      1.0  0.54629  0.38410  0.96671  1.0000
  C   C325      1.0  0.66254  0.02525  0.77956  1.0000
  H   H558      1.0  0.42884  0.07311  0.56782  1.0000
  S   S93       1.0  0.38956  0.49998  0.71209  1.0000
  H   H559      1.0  0.43274  0.09446  0.81599  1.0000
  H   H560      1.0  0.61684  0.48255  0.65058  1.0000
  C   C326      1.0  0.48841  0.39158  0.99811  1.0000
  H   H561      1.0  0.52918  0.40753  0.99532  1.0000
  H   H562      1.0  0.39163  0.06650  0.87596  1.0000
  H   H563      1.0  0.39138  0.44551  0.52181  1.0000
  C   C327      1.0  0.41339  0.02751  0.90004  1.0000
  H   H564      1.0  0.67747  0.47578  0.57518  1.0000
  C   C328      1.0  0.36697  0.04857  0.52170  1.0000
  H   H565      1.0  0.57222  0.50768  0.81584  1.0000
  C   C329      1.0  0.64316  0.49663  0.51626  1.0000
  H   H566      1.0  0.68227  0.45204  0.51879  1.0000
  C   C330      1.0  0.42290  0.04646  0.51964  1.0000
  H   H567      1.0  0.42522  0.05628  0.96161  1.0000
  H   H568      1.0  0.47180  0.39611  0.99842  1.0000
  H   H569      1.0  0.44963  0.03281  0.96247  1.0000
  H   H570      1.0  0.54178  0.49268  0.68706  1.0000
  S   S94       1.0  0.49280  0.02035  0.93974  1.0000
  H   H571      1.0  0.46046  0.06811  0.57844  1.0000
  H   H572      1.0  0.43385  0.04800  0.66154  1.0000
  C   C331      1.0  0.43858  0.04820  0.63386  1.0000
  C   C332      1.0  0.42207  0.04621  0.55955  1.0000
  C   C333      1.0  0.36761  0.01911  0.54642  1.0000
  H   H573      1.0  0.68301  0.09525  0.77791  1.0000
  N   N23       1.0  0.68291  0.03584  0.76456  1.0000
  H   H574      1.0  0.45516  0.04432  0.63356  1.0000
  C   C334      1.0  0.46646  0.04285  0.56514  1.0000
  H   H575      1.0  0.46953  0.05024  0.53756  1.0000
  H   H576      1.0  0.48142  0.03675  0.57648  1.0000
  H   H577      1.0  0.43791  0.03855  0.50906  1.0000
  C   C335      1.0  0.61431  0.51682  0.76408  1.0000
  H   H578      1.0  0.41132  0.02757  0.50888  1.0000
  H   H579      1.0  0.41925  0.07547  0.50991  1.0000
  H   H580      1.0  0.41159  0.01813  0.62198  1.0000
  C   C336      1.0  0.42106  0.99419  0.27523  1.0000
  Fe  Fe48      1.0  0.54244  0.97473  0.21089  1.0000
  S   S95       1.0  0.52339  0.92614  0.22955  1.0000
  H   H581      1.0  0.42344  0.85469  0.26365  1.0000
  Fe  Fe49      1.0  0.52751  0.96647  0.13666  1.0000
  S   S96       1.0  0.50731  0.91668  0.15031  1.0000
  H   H582      1.0  0.47568  0.61008  0.06221  1.0000
  Fe  Fe50      1.0  0.49859  0.95087  0.19754  1.0000
  S   S97       1.0  0.46827  0.94339  0.22528  1.0000
  Fe  Fe51      1.0  0.53316  0.89503  0.18201  1.0000
  S   S98       1.0  0.54480  0.83471  0.19225  1.0000
  S   S99       1.0  0.55421  0.94212  0.16542  1.0000
  Fe  Fe52      1.0  0.55313  0.56754  0.20399  1.0000
  S   S100      1.0  0.67868  0.00224  0.38115  1.0000
  H   H583      1.0  0.56254  0.62097  0.02297  1.0000
  Fe  Fe53      1.0  0.52005  0.61533  0.16955  1.0000
  S   S101      1.0  0.50364  0.56344  0.15072  1.0000
  S   S102      1.0  0.50744  0.67395  0.15493  1.0000
  H   H584      1.0  0.54923  0.91902  0.02505  1.0000
  C   C337      1.0  0.53551  0.60454  0.05403  1.0000
  C   C338      1.0  0.43258  0.53460  0.25375  1.0000
  H   H585      1.0  0.49350  0.85380  0.29016  1.0000
  S   S103      1.0  0.52366  0.59192  0.22350  1.0000
  S   S104      1.0  0.55048  0.59492  0.15127  1.0000
  C   C339      1.0  0.46276  0.81710  0.19904  1.0000
  H   H586      1.0  0.67188  0.54193  0.21866  1.0000
  H   H587      1.0  0.43724  0.53654  0.48954  1.0000
  H   H588      1.0  0.42826  0.81610  0.23614  1.0000
  H   H589      1.0  0.43120  0.80951  0.28200  1.0000
  H   H590      1.0  0.45267  0.84995  0.15450  1.0000
  Fe  Fe54      1.0  0.53443  0.54155  0.13566  1.0000
  H   H591      1.0  0.49771  0.96646  0.05733  1.0000
  H   H592      1.0  0.48542  0.72489  0.24800  1.0000
  C   C340      1.0  0.48971  0.61249  0.04633  1.0000
  C   C341      1.0  0.43180  0.54854  0.46465  1.0000
  C   C342      1.0  0.47051  0.77997  0.25123  1.0000
  H   H593      1.0  0.42319  0.55830  0.24592  1.0000
  H   H594      1.0  0.51640  0.85092  0.26570  1.0000
  C   C343      1.0  0.48538  0.75232  0.23351  1.0000
  C   C344      1.0  0.45686  0.85513  0.18169  1.0000
  H   H595      1.0  0.55654  0.55150  0.31585  1.0000
  H   H596      1.0  0.44985  0.79741  0.19671  1.0000
  H   H597      1.0  0.67370  0.97886  0.45224  1.0000
  C   C345      1.0  0.61123  0.54668  0.27833  1.0000
  C   C346      1.0  0.53450  0.79039  0.18042  1.0000
  C   C347      1.0  0.54346  0.75675  0.19297  1.0000
  C   C348      1.0  0.53551  0.72091  0.18516  1.0000
  C   C349      1.0  0.51842  0.71832  0.16473  1.0000
  C   C350      1.0  0.50954  0.75196  0.15191  1.0000
  C   C351      1.0  0.51756  0.78780  0.15958  1.0000
  H   H598      1.0  0.55662  0.75834  0.20896  1.0000
  H   H599      1.0  0.54252  0.69532  0.19517  1.0000
  H   H600      1.0  0.49631  0.75029  0.13609  1.0000
  H   H601      1.0  0.51060  0.81341  0.14951  1.0000
  H   H602      1.0  0.53267  0.56166  0.29740  1.0000
  C   C352      1.0  0.37020  0.00302  0.47534  1.0000
  C   C353      1.0  0.52519  0.65597  0.01221  1.0000
  C   C354      1.0  0.62041  0.99772  0.24543  1.0000
  H   H603      1.0  0.44766  0.54307  0.35765  1.0000
  H   H604      1.0  0.36870  0.56979  0.47488  1.0000
  H   H605      1.0  0.50032  0.82506  0.21578  1.0000
  H   H606      1.0  0.48071  0.74593  0.20684  1.0000
  C   C355      1.0  0.45100  0.97853  0.24017  1.0000
  H   H607      1.0  0.51332  0.71345  0.08568  1.0000
  C   C356      1.0  0.49016  0.83794  0.23549  1.0000
  C   C357      1.0  0.46718  0.53159  0.40057  1.0000
  N   N24       1.0  0.46973  0.81945  0.23587  1.0000
  H   H608      1.0  0.49629  0.66772  0.06340  1.0000
  C   C358      1.0  0.43347  0.82963  0.25995  1.0000
  H   H609      1.0  0.50107  0.76283  0.23310  1.0000
  H   H610      1.0  0.53838  0.73034  0.08459  1.0000
  H   H611      1.0  0.48892  0.86829  0.22748  1.0000
  C   C359      1.0  0.52266  0.00335  0.04576  1.0000
  H   H612      1.0  0.47969  0.54404  0.38481  1.0000
  S   S105      1.0  0.37278  0.99184  0.43127  1.0000
  S   S106      1.0  0.53616  0.99371  0.08428  1.0000
  C   C360      1.0  0.62661  0.01040  0.27785  1.0000
  H   H613      1.0  0.45573  0.87339  0.24976  1.0000
  C   C361      1.0  0.55839  0.60389  0.04621  1.0000
  C   C362      1.0  0.50152  0.83728  0.26997  1.0000
  H   H614      1.0  0.61099  0.57431  0.29020  1.0000
  H   H615      1.0  0.59529  0.98690  0.21203  1.0000
  C   C363      1.0  0.67476  0.95081  0.50200  1.0000
  C   C364      1.0  0.67802  0.52336  0.23960  1.0000
  C   C365      1.0  0.67724  0.54135  0.50518  1.0000
  H   H616      1.0  0.47475  0.80448  0.18227  1.0000
  N   N25       1.0  0.52523  0.64248  0.04947  1.0000
  H   H617      1.0  0.45912  0.55599  0.22685  1.0000
  H   H618      1.0  0.56341  0.57418  0.04175  1.0000
  H   H619      1.0  0.41692  0.56186  0.47033  1.0000
  C   C366      1.0  0.43586  0.96792  0.26420  1.0000
  H   H620      1.0  0.53330  0.59367  0.08097  1.0000
  H   H621      1.0  0.41890  0.57953  0.34634  1.0000
  H   H622      1.0  0.46956  0.87534  0.18085  1.0000
  H   H623      1.0  0.44361  0.86855  0.19451  1.0000
  H   H624      1.0  0.47403  0.78067  0.27923  1.0000
  Fe  Fe55      1.0  0.50958  0.53866  0.20381  1.0000
  C   C367      1.0  0.53638  0.67085  0.07087  1.0000
  H   H625      1.0  0.39590  0.59767  0.36462  1.0000
  C   C368      1.0  0.50409  0.63977  0.06419  1.0000
  H   H626      1.0  0.37223  0.94449  0.49181  1.0000
  C   C369      1.0  0.54162  0.53903  0.31040  1.0000
  H   H627      1.0  0.45543  0.76641  0.25024  1.0000
  C   C370      1.0  0.66083  0.01387  0.49208  1.0000
  S   S107      1.0  0.58024  0.57469  0.23896  1.0000
  H   H628      1.0  0.56686  0.61418  0.06872  1.0000
  H   H629      1.0  0.44249  0.57072  0.45564  1.0000
  H   H630      1.0  0.53726  0.66087  0.09829  1.0000
  H   H631      1.0  0.44704  0.57759  0.39037  1.0000
  H   H632      1.0  0.50448  0.63117  0.09201  1.0000
  C   C371      1.0  0.59783  0.53917  0.25147  1.0000
  C   C372      1.0  0.52774  0.71166  0.07102  1.0000
  C   C373      1.0  0.41107  0.55769  0.39904  1.0000
  C   C374      1.0  0.45557  0.84301  0.25772  1.0000
  N   N26       1.0  0.42791  0.52874  0.40102  1.0000
  H   H633      1.0  0.50468  0.80808  0.27941  1.0000
  H   H634      1.0  0.41483  0.58361  0.41364  1.0000
  H   H635      1.0  0.56313  0.96109  0.01702  1.0000
  C   C375      1.0  0.50447  0.98557  0.03843  1.0000
  H   H636      1.0  0.46939  0.54067  0.42755  1.0000
  H   H637      1.0  0.67358  0.56336  0.28156  1.0000
  S   S108      1.0  0.55914  0.00675  0.25264  1.0000
  H   H638      1.0  0.46077  0.84376  0.28486  1.0000
  C   C376      1.0  0.37069  0.97358  0.50012  1.0000
  H   H639      1.0  0.40935  0.98550  0.29336  1.0000
  N   N27       1.0  0.58898  0.88041  0.27780  1.0000
  C   C377      1.0  0.58565  0.91313  0.30212  1.0000
  C   C378      1.0  0.61096  0.86951  0.27922  1.0000
  C   C379      1.0  0.57642  0.84772  0.29134  1.0000
  C   C380      1.0  0.58243  0.89248  0.24200  1.0000
  C   C381      1.0  0.56357  0.92564  0.30802  1.0000
  C   C382      1.0  0.62596  0.90215  0.27233  1.0000
  C   C383      1.0  0.57865  0.80977  0.27238  1.0000
  C   C384      1.0  0.59308  0.87333  0.21094  1.0000
  H   H640      1.0  0.59206  0.90656  0.32799  1.0000
  H   H641      1.0  0.59372  0.93884  0.29254  1.0000
  H   H642      1.0  0.61482  0.84687  0.26057  1.0000
  H   H643      1.0  0.61456  0.85714  0.30509  1.0000
  H   H644      1.0  0.57972  0.84199  0.31909  1.0000
  H   H645      1.0  0.56007  0.85478  0.29029  1.0000
  H   H646      1.0  0.56596  0.88807  0.23903  1.0000
  H   H647      1.0  0.58442  0.92352  0.23772  1.0000
  H   H648      1.0  0.55535  0.90551  0.32533  1.0000
  H   H649      1.0  0.56327  0.95365  0.32089  1.0000
  H   H650      1.0  0.55544  0.92918  0.28342  1.0000
  H   H651      1.0  0.64126  0.89027  0.26741  1.0000
  H   H652      1.0  0.62180  0.91961  0.24955  1.0000
  H   H653      1.0  0.62708  0.92084  0.29511  1.0000
  H   H654      1.0  0.56992  0.78779  0.28688  1.0000
  H   H655      1.0  0.59438  0.79929  0.27079  1.0000
  H   H656      1.0  0.57193  0.81146  0.24643  1.0000
  H   H657      1.0  0.60881  0.88308  0.20745  1.0000
  H   H658      1.0  0.58509  0.88150  0.18694  1.0000
  H   H659      1.0  0.59292  0.84203  0.21247  1.0000
  H   H660      1.0  0.43542  0.93911  0.27412  1.0000
  C   C385      1.0  0.37341  0.54257  0.48532  1.0000
  C   C386      1.0  0.44696  0.54634  0.38628  1.0000
  H   H661      1.0  0.48518  0.62381  0.02072  1.0000
  H   H662      1.0  0.52583  0.72350  0.04460  1.0000
  C   C387      1.0  0.59985  0.99686  0.23702  1.0000
  H   H663      1.0  0.39707  0.54634  0.41138  1.0000
  C   C388      1.0  0.67018  0.98109  0.47944  1.0000
  C   C389      1.0  0.58527  0.00892  0.26098  1.0000
  H   H664      1.0  0.39650  0.55069  0.34889  1.0000
  C   C390      1.0  0.45296  0.53337  0.24287  1.0000
  H   H665      1.0  0.63469  0.52454  0.31141  1.0000
  H   H666      1.0  0.68189  0.92549  0.49194  1.0000
  H   H667      1.0  0.49589  0.58343  0.04404  1.0000
  H   H668      1.0  0.55223  0.67386  0.06162  1.0000
  C   C391      1.0  0.40555  0.57193  0.36247  1.0000
  H   H669      1.0  0.52869  0.58267  0.03775  1.0000
  C   C392      1.0  0.45132  0.01588  0.22748  1.0000
  H   H670      1.0  0.53376  0.53142  0.33495  1.0000
  S   S109      1.0  0.65260  0.00922  0.28751  1.0000
  S   S110      1.0  0.51687  0.00206  0.18182  1.0000
  H   H671      1.0  0.63159  0.98822  0.22676  1.0000
  C   C393      1.0  0.62465  0.51850  0.29046  1.0000
  H   H672      1.0  0.51252  0.67627  0.00790  1.0000
  Fe  Fe56      1.0  0.65346  0.95658  0.68676  1.0000
  S   S111      1.0  0.64564  0.90865  0.65180  1.0000
  C   C394      1.0  0.42801  0.01535  0.61582  1.0000
  H   H673      1.0  0.62843  0.83446  0.63980  1.0000
  H   H674      1.0  0.42625  0.95441  0.88380  1.0000
  C   C395      1.0  0.37329  0.76293  0.61915  1.0000
  H   H675      1.0  0.56295  0.59851  0.68423  1.0000
  S   S112      1.0  0.35055  0.58046  0.69600  1.0000
  H   H676      1.0  0.38360  0.57513  0.74727  1.0000
  H   H677      1.0  0.38603  0.54491  0.78422  1.0000
  H   H678      1.0  0.66363  0.01501  0.80669  1.0000
  C   C396      1.0  0.52396  0.62527  0.98409  1.0000
  C   C397      1.0  0.66635  0.77097  0.68903  1.0000
  H   H679      1.0  0.62963  0.78484  0.55274  1.0000
  H   H680      1.0  0.53575  0.55360  0.66602  1.0000
  Fe  Fe57      1.0  0.65358  0.54912  0.70541  1.0000
  S   S113      1.0  0.63236  0.55153  0.75205  1.0000
  S   S114      1.0  0.64684  0.59024  0.66190  1.0000
  H   H681      1.0  0.66700  0.75038  0.61325  1.0000
  Fe  Fe58      1.0  0.37873  0.95259  0.69942  1.0000
  S   S115      1.0  0.39079  0.94356  0.64552  1.0000
  S   S116      1.0  0.40038  0.95438  0.74465  1.0000
  C   C398      1.0  0.59905  0.52626  0.78813  1.0000
  H   H682      1.0  0.42452  0.60116  0.72036  1.0000
  H   H683      1.0  0.46345  0.00596  0.88870  1.0000
  H   H684      1.0  0.51125  0.60551  0.98796  1.0000
  Fe  Fe59      1.0  0.37163  0.57637  0.60266  1.0000
  C   C399      1.0  0.66628  0.54393  0.53633  1.0000
  H   H685      1.0  0.57939  0.95116  0.87789  1.0000
  Fe  Fe60      1.0  0.36637  0.62677  0.66597  1.0000
  C   C400      1.0  0.66700  0.72254  0.56389  1.0000
  S   S117      1.0  0.37078  0.68169  0.69485  1.0000
  Fe  Fe61      1.0  0.37520  0.54259  0.67483  1.0000
  Fe  Fe62      1.0  0.66558  0.87233  0.68542  1.0000
  S   S118      1.0  0.39186  0.58963  0.64718  1.0000
  H   H686      1.0  0.62818  0.78589  0.62875  1.0000
  C   C401      1.0  0.65566  0.73675  0.69173  1.0000
  C   C402      1.0  0.37395  0.79670  0.63798  1.0000
  C   C403      1.0  0.38713  0.57489  0.77511  1.0000
  C   C404      1.0  0.37280  0.72544  0.67232  1.0000
  C   C405      1.0  0.37389  0.75915  0.69116  1.0000
  C   C406      1.0  0.37436  0.79468  0.67408  1.0000
  Fe  Fe63      1.0  0.36822  0.89638  0.64311  1.0000
  H   H687      1.0  0.46053  0.98711  0.58728  1.0000
  H   H688      1.0  0.65772  0.98838  0.57759  1.0000
  H   H689      1.0  0.68372  0.78961  0.53797  1.0000
  H   H690      1.0  0.44320  0.93229  0.56617  1.0000
  H   H691      1.0  0.37502  0.82047  0.68884  1.0000
  C   C407      1.0  0.66116  0.98617  0.55026  1.0000
  C   C408      1.0  0.43627  0.97547  0.77292  1.0000
  C   C409      1.0  0.58276  0.00169  0.78895  1.0000
  H   H692      1.0  0.59377  0.91013  0.88801  1.0000
  C   C410      1.0  0.42823  0.93845  0.57801  1.0000
  S   S119      1.0  0.67124  0.91939  0.72285  1.0000
  H   H693      1.0  0.43599  0.94766  0.78510  1.0000
  H   H694      1.0  0.37409  0.75785  0.71909  1.0000
  Fe  Fe64      1.0  0.36535  0.98187  0.62941  1.0000
  H   H695      1.0  0.68033  0.95624  0.79234  1.0000
  C   C411      1.0  0.54634  0.94048  0.97236  1.0000
  S   S120      1.0  0.63635  0.52248  0.58233  1.0000
  H   H696      1.0  0.53452  0.54377  0.62071  1.0000
  H   H697      1.0  0.65005  0.77973  0.52330  1.0000
  H   H698      1.0  0.38259  0.64980  0.76266  1.0000
  C   C412      1.0  0.44078  0.96616  0.87418  1.0000
  H   H699      1.0  0.58570  0.92203  0.94468  1.0000
  H   H700      1.0  0.56861  0.90441  0.87497  1.0000
  H   H701      1.0  0.53808  0.60841  0.98209  1.0000
  H   H702      1.0  0.59883  0.55419  0.79943  1.0000
  S   S121      1.0  0.50777  0.01549  0.84274  1.0000
  H   H703      1.0  0.41428  0.68673  0.71336  1.0000
  C   C413      1.0  0.59145  0.59918  0.70854  1.0000
  H   H704      1.0  0.63036  0.83634  0.50960  1.0000
  H   H705      1.0  0.64036  0.73695  0.70179  1.0000
  H   H706      1.0  0.54952  0.97437  0.88910  1.0000
  H   H707      1.0  0.37304  0.76426  0.59121  1.0000
  C   C414      1.0  0.41496  0.62561  0.72813  1.0000
  H   H708      1.0  0.65769  0.72016  0.54052  1.0000
  C   C415      1.0  0.64118  0.83748  0.53114  1.0000
  C   C416      1.0  0.59670  0.97158  0.78597  1.0000
  C   C417      1.0  0.61140  0.97127  0.75924  1.0000
  H   H709      1.0  0.59603  0.94819  0.80433  1.0000
  H   H710      1.0  0.62195  0.94785  0.75722  1.0000
  C   C418      1.0  0.55877  0.93381  0.00527  1.0000
  N   N28       1.0  0.55783  0.95402  0.94050  1.0000
  H   H711      1.0  0.56452  0.89451  0.93329  1.0000
  C   C419      1.0  0.54246  0.96487  0.91375  1.0000
  C   C420      1.0  0.41988  0.97748  0.56605  1.0000
  H   H712      1.0  0.61967  0.82198  0.59833  1.0000
  H   H713      1.0  0.45485  0.99247  0.54269  1.0000
  C   C421      1.0  0.52737  0.93357  0.90476  1.0000
  H   H714      1.0  0.65614  0.67617  0.68357  1.0000
  H   H715      1.0  0.41122  0.58755  0.80980  1.0000
  C   C422      1.0  0.42081  0.98593  0.75019  1.0000
  H   H716      1.0  0.45444  0.61388  0.74596  1.0000
  H   H717      1.0  0.52191  0.63939  0.95853  1.0000
  H   H718      1.0  0.53349  0.98991  0.92245  1.0000
  C   C423      1.0  0.67040  0.95336  0.53747  1.0000
  S   S122      1.0  0.37325  0.84070  0.61549  1.0000
  N   N29       1.0  0.41333  0.62828  0.76694  1.0000
  H   H719      1.0  0.63453  0.85682  0.55065  1.0000
  H   H720      1.0  0.53412  0.96078  0.97920  1.0000
  H   H721      1.0  0.37557  0.59137  0.78958  1.0000
  H   H722      1.0  0.66650  0.69452  0.57745  1.0000
  C   C424      1.0  0.65867  0.75299  0.58869  1.0000
  H   H723      1.0  0.55683  0.54514  0.71805  1.0000
  H   H724      1.0  0.51942  0.94188  0.88076  1.0000
  H   H725      1.0  0.68293  0.72737  0.55629  1.0000
  H   H726      1.0  0.43614  0.67120  0.77374  1.0000
  H   H727      1.0  0.53856  0.91323  0.96750  1.0000
  H   H728      1.0  0.40705  0.00784  0.88080  1.0000
  C   C425      1.0  0.56486  0.53784  0.64103  1.0000
  H   H729      1.0  0.68019  0.83511  0.55562  1.0000
  S   S123      1.0  0.68068  0.97409  0.65443  1.0000
  N   N30       1.0  0.65897  0.79335  0.57520  1.0000
  H   H730      1.0  0.60553  0.54652  0.64513  1.0000
  C   C426      1.0  0.39695  0.65651  0.77568  1.0000
  C   C427      1.0  0.56773  0.52565  0.70498  1.0000
  H   H731      1.0  0.45008  0.58785  0.78595  1.0000
  H   H732      1.0  0.53487  0.90590  0.90013  1.0000
  C   C428      1.0  0.45142  0.61659  0.77405  1.0000
  Fe  Fe65      1.0  0.65497  0.54166  0.62729  1.0000
  S   S124      1.0  0.65420  0.81376  0.70116  1.0000
  H   H733      1.0  0.39996  0.61993  0.71702  1.0000
  H   H734      1.0  0.40073  0.68508  0.76501  1.0000
  H   H735      1.0  0.42273  0.65559  0.68043  1.0000
  C   C429      1.0  0.59825  0.52999  0.66667  1.0000
  S   S125      1.0  0.56475  0.00072  0.82348  1.0000
  H   H736      1.0  0.42910  0.93522  0.60640  1.0000
  H   H737      1.0  0.59477  0.99141  0.91279  1.0000
  H   H738      1.0  0.36956  0.95857  0.55436  1.0000
  H   H739      1.0  0.40204  0.68553  0.82468  1.0000
  C   C430      1.0  0.57847  0.92288  0.89032  1.0000
  C   C431      1.0  0.39256  0.66244  0.81456  1.0000
  S   S126      1.0  0.63133  0.00348  0.70225  1.0000
  S   S127      1.0  0.35759  0.90253  0.69782  1.0000
  H   H740      1.0  0.64306  0.74407  0.59546  1.0000
  H   H741      1.0  0.37183  0.70163  0.62145  1.0000
  H   H742      1.0  0.60769  0.59632  0.70197  1.0000
  C   C432      1.0  0.64461  0.79685  0.54555  1.0000
  H   H743      1.0  0.45958  0.54641  0.71346  1.0000
  C   C433      1.0  0.37261  0.72742  0.63622  1.0000
  C   C434      1.0  0.37872  0.53935  0.52014  1.0000
  S   S128      1.0  0.35689  0.52616  0.62849  1.0000
  N   N31       1.0  0.57700  0.54408  0.67303  1.0000
  H   H744      1.0  0.43145  0.64263  0.81078  1.0000
  H   H745      1.0  0.66272  0.81509  0.62672  1.0000
  C   C435      1.0  0.61242  0.00131  0.73528  1.0000
  S   S129      1.0  0.67746  0.91557  0.56502  1.0000
  C   C436      1.0  0.42335  0.66079  0.70866  1.0000
  C   C437      1.0  0.40857  0.58936  0.78153  1.0000
  C   C438      1.0  0.63100  0.81471  0.61806  1.0000
  C   C439      1.0  0.56947  0.98886  0.95015  1.0000
  H   H746      1.0  0.53907  0.67238  0.00576  1.0000
  H   H747      1.0  0.43933  0.66608  0.71468  1.0000
  S   S130      1.0  0.37865  0.58047  0.54542  1.0000
  H   H748      1.0  0.54504  0.58754  0.63428  1.0000
  C   C440      1.0  0.43276  0.64153  0.78209  1.0000
  H   H749      1.0  0.51566  0.93043  0.92539  1.0000
  H   H750      1.0  0.39494  0.63664  0.83057  1.0000
  C   C441      1.0  0.65281  0.81934  0.60418  1.0000
  H   H751      1.0  0.41903  0.56775  0.77057  1.0000
  C   C442      1.0  0.66458  0.70226  0.68144  1.0000
  H   H752      1.0  0.58065  0.98205  0.97042  1.0000
  H   H753      1.0  0.37643  0.67017  0.81831  1.0000
  C   C443      1.0  0.44733  0.00054  0.89547  1.0000
  H   H754      1.0  0.65490  0.84960  0.59645  1.0000
  C   C444      1.0  0.49526  0.99184  0.00618  1.0000
  C   C445      1.0  0.57184  0.92256  0.92886  1.0000
  H   H755      1.0  0.46492  0.62977  0.78532  1.0000
  H   H756      1.0  0.42535  0.54165  0.68870  1.0000
  H   H757      1.0  0.46389  0.99212  0.79749  1.0000
  C   C446      1.0  0.58165  0.00882  0.92110  1.0000
  H   H758      1.0  0.44719  0.99052  0.92279  1.0000
  C   C447      1.0  0.54385  0.55686  0.64088  1.0000
  C   C448      1.0  0.57814  0.58639  0.67855  1.0000
  H   H759      1.0  0.45222  0.94322  0.87690  1.0000
  Fe  Fe66      1.0  0.67999  0.60263  0.66225  1.0000
  H   H760      1.0  0.60774  0.53446  0.68963  1.0000
  C   C449      1.0  0.64934  0.52133  0.54219  1.0000
  C   C450      1.0  0.67971  0.80438  0.56239  1.0000
  H   H761      1.0  0.67086  0.56373  0.55569  1.0000
  Fe  Fe67      1.0  0.67413  0.92286  0.62276  1.0000
  H   H762      1.0  0.65522  0.85015  0.52038  1.0000
  H   H763      1.0  0.41787  0.91597  0.56928  1.0000
  H   H764      1.0  0.43976  0.97292  0.84632  1.0000
  C   C451      1.0  0.42914  0.52538  0.71160  1.0000
  C   C452      1.0  0.45206  0.00063  0.78008  1.0000
  H   H765      1.0  0.40388  0.97933  0.57492  1.0000
  C   C453      1.0  0.44857  0.52786  0.72560  1.0000
  C   C454      1.0  0.36917  0.98153  0.53554  1.0000
  S   S131      1.0  0.35449  0.99437  0.68354  1.0000
  H   H766      1.0  0.43313  0.98937  0.62972  1.0000
  H   H767      1.0  0.57324  0.54846  0.61764  1.0000
  H   H768      1.0  0.58373  0.60119  0.65462  1.0000
  H   H769      1.0  0.57228  0.91594  0.00043  1.0000
  H   H770      1.0  0.41941  0.97563  0.53746  1.0000
  C   C455      1.0  0.45335  0.00669  0.56818  1.0000
  H   H771      1.0  0.65624  0.00093  0.76516  1.0000
  N   N32       1.0  0.43134  0.01204  0.57727  1.0000
  H   H772      1.0  0.58809  0.58361  0.73301  1.0000
  H   H773      1.0  0.48139  0.97740  0.00058  1.0000
  H   H774      1.0  0.55911  0.01048  0.96148  1.0000
  H   H775      1.0  0.58872  0.62979  0.71341  1.0000
  H   H776      1.0  0.57240  0.01706  0.89866  1.0000
  H   H777      1.0  0.57945  0.52006  0.72449  1.0000
  C   C456      1.0  0.50406  0.01597  0.98097  1.0000
  H   H778      1.0  0.41217  0.01118  0.92484  1.0000
  C   C457      1.0  0.65626  0.01624  0.52754  1.0000
  H   H779      1.0  0.98799  0.13579  0.25625  1.0000
  H   H780      1.0  0.92959  0.08485  0.19418  1.0000
  S   S132      1.0  0.69859  0.08341  0.40545  1.0000
  S   S133      1.0  0.68775  0.48741  0.34564  1.0000
  Fe  Fe68      1.0  0.71034  0.43993  0.34323  1.0000
  S   S134      1.0  0.74102  0.44365  0.31652  1.0000
  S   S135      1.0  0.70709  0.42313  0.39903  1.0000
  S   S136      1.0  0.68761  0.39712  0.32613  1.0000
  H   H781      1.0  0.94740  0.47024  0.18876  1.0000
  Fe  Fe69      1.0  0.99844  0.03873  0.16181  1.0000
  C   C458      1.0  0.71141  0.51499  0.21337  1.0000
  H   H782      1.0  0.75766  0.50312  0.42097  1.0000
  H   H783      1.0  0.80178  0.43410  0.40774  1.0000
  N   N33       1.0  0.79716  0.48182  0.44171  1.0000
  H   H784      1.0  0.70516  0.37653  0.50615  1.0000
  S   S137      1.0  0.98926  0.43123  0.13882  1.0000
  Fe  Fe70      1.0  0.99983  0.45426  0.18935  1.0000
  H   H785      1.0  0.89475  0.05040  0.48251  1.0000
  H   H786      1.0  0.99116  0.12306  0.19517  1.0000
  H   H787      1.0  0.79098  0.47470  0.38734  1.0000
  H   H788      1.0  0.92852  0.45525  0.39708  1.0000
  C   C459      1.0  0.75930  0.47276  0.42830  1.0000
  H   H789      1.0  0.82477  0.46156  0.36580  1.0000
  H   H790      1.0  0.76060  0.45530  0.40468  1.0000
  C   C460      1.0  0.72837  0.49090  0.19701  1.0000
  H   H791      1.0  0.74501  0.46419  0.44147  1.0000
  H   H792      1.0  0.94775  0.23982  0.18017  1.0000
  H   H793      1.0  0.94589  0.18562  0.22953  1.0000
  H   H794      1.0  0.99003  0.17118  0.18384  1.0000
  C   C461      1.0  0.76213  0.03704  0.50490  1.0000
  S   S138      1.0  0.98130  0.47394  0.23629  1.0000
  S   S139      1.0  0.96551  0.02333  0.17259  1.0000
  H   H795      1.0  0.92065  0.12754  0.21564  1.0000
  C   C462      1.0  0.95947  0.21966  0.18943  1.0000
  C   C463      1.0  0.80228  0.46572  0.40671  1.0000
  H   H796      1.0  0.96658  0.23386  0.21155  1.0000
  H   H797      1.0  0.97063  0.21714  0.16810  1.0000
  H   H798      1.0  0.93426  0.18092  0.18880  1.0000
  C   C464      1.0  0.82272  0.47689  0.39053  1.0000
  S   S140      1.0  0.88034  0.48579  0.41328  1.0000
  C   C465      1.0  0.75837  0.48015  0.32515  1.0000
  C   C466      1.0  0.69057  0.28050  0.35272  1.0000
  C   C467      1.0  0.77831  0.47691  0.31272  1.0000
  C   C468      1.0  0.87370  0.49322  0.45699  1.0000
  H   H799      1.0  0.94779  0.48447  0.37628  1.0000
  H   H800      1.0  0.98104  0.16310  0.13048  1.0000
  S   S141      1.0  0.69778  0.06132  0.32396  1.0000
  H   H801      1.0  0.96284  0.14057  0.10491  1.0000
  C   C469      1.0  0.95736  0.49658  0.23525  1.0000
  H   H802      1.0  0.95562  0.18254  0.12703  1.0000
  C   C470      1.0  0.88431  0.02834  0.49029  1.0000
  H   H803      1.0  0.76058  0.08412  0.41504  1.0000
  H   H804      1.0  0.90552  0.47630  0.34681  1.0000
  H   H805      1.0  0.92653  0.49638  0.32606  1.0000
  H   H806      1.0  0.69230  0.40481  0.24322  1.0000
  S   S142      1.0  0.85659  0.51691  0.32787  1.0000
  H   H807      1.0  0.92449  0.50489  0.39016  1.0000
  H   H808      1.0  0.80772  0.50291  0.30874  1.0000
  C   C471      1.0  0.93128  0.10324  0.21701  1.0000
  H   H809      1.0  0.77826  0.43418  0.45703  1.0000
  H   H810      1.0  0.95445  0.12583  0.24806  1.0000
  C   C472      1.0  0.98899  0.16072  0.23847  1.0000
  H   H811      1.0  0.87848  0.43473  0.47192  1.0000
  H   H812      1.0  0.71625  0.41522  0.25956  1.0000
  C   C473      1.0  0.98309  0.14996  0.20146  1.0000
  H   H813      1.0  0.69292  0.40631  0.47537  1.0000
  H   H814      1.0  0.74062  0.51014  0.18798  1.0000
  H   H815      1.0  0.69240  0.45592  0.18115  1.0000
  C   C474      1.0  0.79244  0.50567  0.31859  1.0000
  C   C475      1.0  0.87403  0.46263  0.48064  1.0000
  H   H816      1.0  0.81404  0.43671  0.46678  1.0000
  H   H817      1.0  0.97975  0.18436  0.24879  1.0000
  H   H818      1.0  0.75858  0.03539  0.47718  1.0000
  C   C476      1.0  0.96483  0.15632  0.12930  1.0000
  C   C477      1.0  0.71240  0.04917  0.49793  1.0000
  H   H819      1.0  0.89069  0.46807  0.29802  1.0000
  H   H820      1.0  0.77208  0.47727  0.47826  1.0000
  H   H821      1.0  0.82309  0.50751  0.38372  1.0000
  C   C478      1.0  0.81256  0.46823  0.46746  1.0000
  C   C479      1.0  0.94319  0.48832  0.21010  1.0000
  H   H822      1.0  0.72349  0.47515  0.17408  1.0000
  N   N34       1.0  0.96083  0.14582  0.19561  1.0000
  C   C480      1.0  0.94919  0.18221  0.20141  1.0000
  C   C481      1.0  0.95758  0.13108  0.15971  1.0000
  C   C482      1.0  0.95331  0.11593  0.22098  1.0000
  N   N35       1.0  0.69261  0.49431  0.22502  1.0000
  C   C483      1.0  0.01701  0.21264  0.13512  1.0000
  Fe  Fe71      1.0  0.70782  0.03363  0.37322  1.0000
  C   C484      1.0  0.93139  0.47903  0.37870  1.0000
  C   C485      1.0  0.01101  0.24900  0.12348  1.0000
  H   H823      1.0  0.73522  0.47147  0.21640  1.0000
  H   H824      1.0  0.76065  0.13533  0.41963  1.0000
  H   H825      1.0  0.90716  0.22727  0.47199  1.0000
  Fe  Fe72      1.0  0.01328  0.46790  0.11379  1.0000
  H   H826      1.0  0.94133  0.12642  0.15501  1.0000
  N   N36       1.0  0.92729  0.43507  0.32644  1.0000
  C   C486      1.0  0.94997  0.43398  0.32209  1.0000
  C   C487      1.0  0.92194  0.47232  0.34318  1.0000
  C   C488      1.0  0.91847  0.43366  0.29078  1.0000
  C   C489      1.0  0.92082  0.40115  0.34800  1.0000
  C   C490      1.0  0.95876  0.40136  0.30017  1.0000
  H   H827      1.0  0.70013  0.24420  0.31100  1.0000
  C   C491      1.0  0.89567  0.44041  0.28759  1.0000
  C   C492      1.0  0.89981  0.40331  0.36593  1.0000
  H   H828      1.0  0.96499  0.10286  0.15675  1.0000
  H   H829      1.0  0.00495  0.16997  0.23835  1.0000
  C   C493      1.0  0.69726  0.46539  0.25301  1.0000
  H   H830      1.0  0.71177  0.42461  0.21532  1.0000
  H   H831      1.0  0.92600  0.45479  0.27353  1.0000
  H   H832      1.0  0.92144  0.40567  0.27868  1.0000
  H   H833      1.0  0.92125  0.37499  0.33220  1.0000
  H   H834      1.0  0.93177  0.39593  0.36909  1.0000
  H   H835      1.0  0.95561  0.40578  0.27228  1.0000
  H   H836      1.0  0.97543  0.40130  0.30223  1.0000
  H   H837      1.0  0.78062  0.02340  0.28602  1.0000
  C   C494      1.0  0.70471  0.42576  0.24125  1.0000
  H   H838      1.0  0.89196  0.44153  0.25968  1.0000
  H   H839      1.0  0.73735  0.51536  0.35317  1.0000
  Fe  Fe73      1.0  0.01389  0.38711  0.14502  1.0000
  C   C495      1.0  0.77705  0.46551  0.45296  1.0000
  H   H840      1.0  0.88685  0.41671  0.29905  1.0000
  H   H841      1.0  0.89219  0.37551  0.36373  1.0000
  H   H842      1.0  0.88935  0.42489  0.35553  1.0000
  H   H843      1.0  0.90139  0.40813  0.39408  1.0000
  N   N37       1.0  0.76158  0.13876  0.34768  1.0000
  C   C496      1.0  0.76131  0.12500  0.31084  1.0000
  C   C497      1.0  0.78328  0.13767  0.35874  1.0000
  C   C498      1.0  0.75410  0.17929  0.34753  1.0000
  C   C499      1.0  0.74798  0.11381  0.36977  1.0000
  C   C500      1.0  0.74092  0.12781  0.29240  1.0000
  C   C501      1.0  0.79358  0.09827  0.35762  1.0000
  C   C502      1.0  0.75291  0.19914  0.38269  1.0000
  C   C503      1.0  0.75253  0.11107  0.40891  1.0000
  H   H844      1.0  0.77251  0.14068  0.29440  1.0000
  H   H845      1.0  0.76586  0.09460  0.30960  1.0000
  H   H846      1.0  0.78520  0.14854  0.38513  1.0000
  H   H847      1.0  0.79253  0.15714  0.34210  1.0000
  H   H848      1.0  0.76355  0.19715  0.32975  1.0000
  H   H849      1.0  0.73850  0.18124  0.33759  1.0000
  H   H850      1.0  0.73199  0.12294  0.36709  1.0000
  H   H851      1.0  0.74855  0.08415  0.36035  1.0000
  H   H852      1.0  0.72843  0.11642  0.30856  1.0000
  H   H853      1.0  0.73738  0.15746  0.28444  1.0000
  H   H854      1.0  0.74167  0.11082  0.26843  1.0000
  H   H855      1.0  0.80797  0.09910  0.37183  1.0000
  H   H856      1.0  0.78424  0.07571  0.36977  1.0000
  H   H857      1.0  0.79751  0.09010  0.33071  1.0000
  H   H858      1.0  0.74131  0.18595  0.39988  1.0000
  H   H859      1.0  0.74793  0.22899  0.37841  1.0000
  H   H860      1.0  0.76763  0.20029  0.39564  1.0000
  H   H861      1.0  0.73812  0.10930  0.42370  1.0000
  H   H862      1.0  0.82790  0.47852  0.46105  1.0000
  S   S143      1.0  0.00841  0.32677  0.12559  1.0000
  H   H863      1.0  0.72591  0.06441  0.48843  1.0000
  H   H864      1.0  0.95330  0.37318  0.30903  1.0000
  H   H865      1.0  0.95745  0.43180  0.34756  1.0000
  C   C504      1.0  0.90422  0.22948  0.50024  1.0000
  H   H866      1.0  0.78283  0.45205  0.29835  1.0000
  H   H867      1.0  0.96293  0.08997  0.21954  1.0000
  H   H868      1.0  0.95559  0.46086  0.30999  1.0000
  H   H869      1.0  0.92685  0.08555  0.23988  1.0000
  S   S144      1.0  0.00524  0.08646  0.12403  1.0000
  H   H870      1.0  0.83566  0.46881  0.40680  1.0000
  S   S145      1.0  0.69431  0.16731  0.33401  1.0000
  H   H871      1.0  0.87225  0.22192  0.49407  1.0000
  H   H872      1.0  0.70861  0.47670  0.27102  1.0000
  H   H873      1.0  0.88611  0.17946  0.49880  1.0000
  C   C505      1.0  0.75266  0.51248  0.34354  1.0000
  H   H874      1.0  0.01486  0.18817  0.11904  1.0000
  S   S146      1.0  0.00717  0.50649  0.06685  1.0000
  C   C506      1.0  0.68957  0.21104  0.35481  1.0000
  H   H875      1.0  0.77885  0.03597  0.50560  1.0000
  H   H876      1.0  0.70463  0.03624  0.47581  1.0000
  H   H877      1.0  0.71489  0.42343  0.49560  1.0000
  S   S147      1.0  0.68691  0.51205  0.44237  1.0000
  C   C507      1.0  0.92324  0.50199  0.21349  1.0000
  C   C508      1.0  0.69399  0.24511  0.33703  1.0000
  H   H878      1.0  0.91222  0.49446  0.19452  1.0000
  H   H879      1.0  0.00412  0.25219  0.09845  1.0000
  H   H880      1.0  0.98139  0.02019  0.24278  1.0000
  Fe  Fe74      1.0  0.68637  0.10924  0.35691  1.0000
  C   C509      1.0  0.01447  0.28142  0.14335  1.0000
  H   H881      1.0  0.69409  0.30651  0.33883  1.0000
  H   H882      1.0  0.74777  0.02600  0.31796  1.0000
  C   C510      1.0  0.01287  0.49902  0.02233  1.0000
  C   C511      1.0  0.70111  0.40644  0.50021  1.0000
  H   H883      1.0  0.90323  0.26016  0.50609  1.0000
  C   C512      1.0  0.80829  0.47904  0.50540  1.0000
  H   H884      1.0  0.75698  0.06478  0.51521  1.0000
  Fe  Fe75      1.0  0.86725  0.06241  0.60573  1.0000
  H   H885      1.0  0.88320  0.15879  0.76066  1.0000
  C   C513      1.0  0.92295  0.46759  0.72332  1.0000
  Fe  Fe76      1.0  0.85942  0.11413  0.66739  1.0000
  S   S148      1.0  0.84432  0.06759  0.69848  1.0000
  S   S149      1.0  0.86745  0.17086  0.69048  1.0000
  N   N38       1.0  0.95353  0.47878  0.88898  1.0000
  C   C514      1.0  0.70525  0.38328  0.61602  1.0000
  H   H886      1.0  0.82189  0.47289  0.52092  1.0000
  H   H887      1.0  0.87561  0.30497  0.55508  1.0000
  S   S150      1.0  0.88580  0.07789  0.65129  1.0000
  S   S151      1.0  0.84223  0.10267  0.61942  1.0000
  Fe  Fe77      1.0  0.83241  0.45149  0.67890  1.0000
  S   S152      1.0  0.82777  0.43269  0.62460  1.0000
  S   S153      1.0  0.80712  0.47779  0.71126  1.0000
  Fe  Fe78      1.0  0.87824  0.43704  0.67473  1.0000
  S   S154      1.0  0.87642  0.41711  0.61959  1.0000
  S   S155      1.0  0.91027  0.43593  0.69580  1.0000
  Fe  Fe79      1.0  0.85537  0.46634  0.61143  1.0000
  H   H888      1.0  0.98524  0.48099  0.87572  1.0000
  Fe  Fe80      1.0  0.84911  0.38480  0.63799  1.0000
  S   S156      1.0  0.84149  0.32634  0.61785  1.0000
  S   S157      1.0  0.85204  0.40127  0.69365  1.0000
  S   S158      1.0  0.85895  0.48840  0.66514  1.0000
  H   H889      1.0  0.86873  0.44430  0.53363  1.0000
  C   C515      1.0  0.91333  0.49884  0.73836  1.0000
  C   C516      1.0  0.90325  0.18091  0.79887  1.0000
  C   C517      1.0  0.85927  0.21418  0.67153  1.0000
  C   C518      1.0  0.86798  0.24842  0.68174  1.0000
  C   C519      1.0  0.86230  0.28319  0.66619  1.0000
  C   C520      1.0  0.84787  0.28394  0.64028  1.0000
  C   C521      1.0  0.83896  0.24975  0.63046  1.0000
  C   C522      1.0  0.84458  0.21504  0.64609  1.0000
  H   H890      1.0  0.87927  0.24807  0.70156  1.0000
  H   H891      1.0  0.86926  0.30935  0.67397  1.0000
  H   H892      1.0  0.82763  0.25015  0.61070  1.0000
  H   H893      1.0  0.83747  0.18897  0.63856  1.0000
  H   H894      1.0  0.89773  0.06041  0.74835  1.0000
  C   C523      1.0  0.94359  0.46165  0.72929  1.0000
  H   H895      1.0  0.90614  0.12639  0.70200  1.0000
  H   H896      1.0  0.71161  0.48570  0.51826  1.0000
  H   H897      1.0  0.95118  0.43757  0.71777  1.0000
  H   H898      1.0  0.70707  0.08152  0.71481  1.0000
  H   H899      1.0  0.92743  0.02434  0.58399  1.0000
  H   H900      1.0  0.87605  0.24284  0.59192  1.0000
  H   H901      1.0  0.72738  0.42975  0.55028  1.0000
  H   H902      1.0  0.95521  0.04511  0.71304  1.0000
  C   C524      1.0  0.85722  0.19458  0.55106  1.0000
  C   C525      1.0  0.69935  0.05573  0.70589  1.0000
  H   H903      1.0  0.89743  0.50361  0.73429  1.0000
  H   H904      1.0  0.90913  0.45834  0.56854  1.0000
  H   H905      1.0  0.85613  0.15126  0.51019  1.0000
  H   H906      1.0  0.97618  0.41071  0.87023  1.0000
  H   H907      1.0  0.78802  0.44197  0.65288  1.0000
  H   H908      1.0  0.73058  0.49903  0.54777  1.0000
  H   H909      1.0  0.86018  0.13238  0.55326  1.0000
  C   C526      1.0  0.88917  0.08518  0.75823  1.0000
  C   C527      1.0  0.95455  0.48664  0.74991  1.0000
  H   H910      1.0  0.89467  0.51037  0.59631  1.0000
  C   C528      1.0  0.94575  0.02223  0.72251  1.0000
  H   H911      1.0  0.91003  0.03382  0.79816  1.0000
  H   H912      1.0  0.92586  0.04680  0.83275  1.0000
  H   H913      1.0  0.94082  0.40453  0.89728  1.0000
  S   S159      1.0  0.85545  0.51241  0.57001  1.0000
  H   H914      1.0  0.70482  0.50640  0.55936  1.0000
  C   C529      1.0  0.87539  0.02885  0.52340  1.0000
  H   H915      1.0  0.92606  0.48254  0.91952  1.0000
  H   H916      1.0  0.86790  0.27703  0.52019  1.0000
  C   C530      1.0  0.93980  0.46431  0.91766  1.0000
  H   H917      1.0  0.93047  0.14695  0.70414  1.0000
  H   H918      1.0  0.93252  0.13644  0.76644  1.0000
  H   H919      1.0  0.69520  0.06119  0.67856  1.0000
  H   H920      1.0  0.99636  0.42042  0.89812  1.0000
  H   H921      1.0  0.89285  0.15072  0.55127  1.0000
  C   C531      1.0  0.91056  0.09546  0.80946  1.0000
  H   H922      1.0  0.84720  0.21463  0.53684  1.0000
  H   H923      1.0  0.90964  0.17347  0.82437  1.0000
  H   H924      1.0  0.85194  0.19605  0.57835  1.0000
  H   H925      1.0  0.75404  0.03449  0.62270  1.0000
  C   C532      1.0  0.68711  0.42362  0.52819  1.0000
  C   C533      1.0  0.93876  0.51513  0.64043  1.0000
  H   H926      1.0  0.94837  0.43500  0.85066  1.0000
  H   H927      1.0  0.89146  0.19582  0.61940  1.0000
  H   H928      1.0  0.94900  0.50333  0.62016  1.0000
  C   C534      1.0  0.89109  0.14791  0.78401  1.0000
  H   H929      1.0  0.91440  0.47066  0.86227  1.0000
  H   H930      1.0  0.92939  0.45352  0.59818  1.0000
  S   S160      1.0  0.01030  0.49554  0.81108  1.0000
  H   H931      1.0  0.71974  0.39754  0.62087  1.0000
  H   H932      1.0  0.93269  0.40918  0.94090  1.0000
  H   H933      1.0  0.71142  0.37212  0.56275  1.0000
  H   H934      1.0  0.92972  0.49107  0.56583  1.0000
  C   C535      1.0  0.69917  0.38641  0.57771  1.0000
  H   H935      1.0  0.98014  0.47675  0.92085  1.0000
  H   H936      1.0  0.70550  0.04233  0.82857  1.0000
  H   H937      1.0  0.93402  0.05611  0.78944  1.0000
  C   C536      1.0  0.97507  0.46709  0.89518  1.0000
  H   H938      1.0  0.83601  0.14938  0.54138  1.0000
  H   H939      1.0  0.80472  0.50959  0.50826  1.0000
  H   H940      1.0  0.86340  0.04803  0.76497  1.0000
  H   H941      1.0  0.95815  0.47734  0.83351  1.0000
  H   H942      1.0  0.90958  0.17103  0.72355  1.0000
  C   C537      1.0  0.75655  0.45698  0.65657  1.0000
  N   N39       1.0  0.69564  0.42608  0.56393  1.0000
  H   H943      1.0  0.72072  0.03478  0.55008  1.0000
  C   C538      1.0  0.86852  0.27751  0.54869  1.0000
  H   H944      1.0  0.71006  0.03146  0.70571  1.0000
  C   C539      1.0  0.85241  0.15461  0.53800  1.0000
  H   H945      1.0  0.89704  0.25343  0.56605  1.0000
  H   H946      1.0  0.89942  0.14826  0.61237  1.0000
  C   C540      1.0  0.92073  0.12058  0.75262  1.0000
  H   H947      1.0  0.97040  0.48162  0.75429  1.0000
  H   H948      1.0  0.88250  0.09879  0.73493  1.0000
  H   H949      1.0  0.90251  0.48112  0.63072  1.0000
  H   H950      1.0  0.70033  0.09167  0.83227  1.0000
  H   H951      1.0  0.73499  0.50941  0.72044  1.0000
  N   N40       1.0  0.90289  0.11230  0.77609  1.0000
  C   C541      1.0  0.88102  0.24460  0.56437  1.0000
  C   C542      1.0  0.88878  0.17056  0.60337  1.0000
  C   C543      1.0  0.74657  0.49512  0.70545  1.0000
  S   S161      1.0  0.71656  0.47527  0.65992  1.0000
  H   H952      1.0  0.87343  0.15973  0.60851  1.0000
  C   C544      1.0  0.74149  0.47632  0.67523  1.0000
  H   H953      1.0  0.69351  0.39457  0.63387  1.0000
  C   C545      1.0  0.77663  0.45701  0.66751  1.0000
  H   H954      1.0  0.91537  0.19079  0.78099  1.0000
  H   H955      1.0  0.94728  0.46681  0.94312  1.0000
  C   C546      1.0  0.90830  0.50006  0.60960  1.0000
  C   C547      1.0  0.76666  0.49459  0.71673  1.0000
  C   C548      1.0  0.92569  0.01984  0.71134  1.0000
  C   C549      1.0  0.89286  0.17852  0.56465  1.0000
  H   H956      1.0  0.90869  0.18840  0.56275  1.0000
  H   H957      1.0  0.86010  0.09249  0.78590  1.0000
  H   H958      1.0  0.87597  0.05545  0.80426  1.0000
  C   C550      1.0  0.92603  0.47799  0.84254  1.0000
  H   H959      1.0  0.92821  0.09378  0.74452  1.0000
  H   H960      1.0  0.72083  0.45106  0.59000  1.0000
  C   C551      1.0  0.71531  0.48665  0.54607  1.0000
  C   C552      1.0  0.86274  0.50402  0.52685  1.0000
  Fe  Fe81      1.0  0.82879  0.05304  0.64895  1.0000
  C   C553      1.0  0.71543  0.44688  0.56332  1.0000
  H   H961      1.0  0.70734  0.07515  0.77220  1.0000
  C   C554      1.0  0.93216  0.42301  0.91494  1.0000
  C   C555      1.0  0.87127  0.06985  0.78009  1.0000
  H   H962      1.0  0.93480  0.49059  0.65754  1.0000
  N   N41       1.0  0.87889  0.20662  0.54740  1.0000
  C   C556      1.0  0.78183  0.47588  0.69758  1.0000
  H   H963      1.0  0.92465  0.03549  0.62854  1.0000
  H   H964      1.0  0.92203  0.11423  0.82085  1.0000
  H   H965      1.0  0.87882  0.14183  0.80317  1.0000
  C   C557      1.0  0.97987  0.42429  0.89493  1.0000
  C   C558      1.0  0.92001  0.47458  0.58400  1.0000
  C   C559      1.0  0.86854  0.46798  0.51554  1.0000
  H   H966      1.0  0.70738  0.35286  0.62302  1.0000
  H   H967      1.0  0.89294  0.20549  0.80290  1.0000
  H   H968      1.0  0.97269  0.40936  0.91724  1.0000
  H   H969      1.0  0.85287  0.27735  0.55925  1.0000
  H   H970      1.0  0.75273  0.44189  0.63347  1.0000
  S   S162      1.0  0.88250  0.06381  0.55300  1.0000
  H   H971      1.0  0.89827  0.09351  0.82927  1.0000
  H   H972      1.0  0.77052  0.50887  0.74027  1.0000
  C   C560      1.0  0.91617  0.14255  0.71888  1.0000
  H   H973      1.0  0.68732  0.45347  0.61208  1.0000
  Fe  Fe82      1.0  0.86997  0.03062  0.67911  1.0000
  C   C561      1.0  0.69438  0.06471  0.82206  1.0000
  H   H974      1.0  0.91606  0.42282  0.90759  1.0000
  C   C562      1.0  0.69200  0.06900  0.78275  1.0000
  H   H975      1.0  0.92518  0.50878  0.83633  1.0000
  H   H976      1.0  0.79597  0.46171  0.51701  1.0000
  C   C563      1.0  0.94742  0.46610  0.85357  1.0000
  S   S163      1.0  0.79564  0.04593  0.63625  1.0000
  C   C564      1.0  0.92060  0.05588  0.80680  1.0000
  H   H977      1.0  0.68567  0.36838  0.57423  1.0000
  H   H978      1.0  0.92224  0.46300  0.81842  1.0000
  H   H979      1.0  0.91738  0.21672  0.51340  1.0000
  C   C565      1.0  0.71702  0.01917  0.52619  1.0000
  H   H980      1.0  0.91984  0.04083  0.69350  1.0000
  C   C566      1.0  0.88447  0.20856  0.50947  1.0000
  H   H981      1.0  0.70176  0.07061  0.50869  1.0000
  Fe  Fe83      1.0  0.84676  0.96732  0.32867  1.0000
  S   S164      1.0  0.84307  0.91316  0.35922  1.0000
  C   C567      1.0  0.95599  0.00583  0.27611  1.0000
  Fe  Fe84      1.0  0.89297  0.96387  0.33118  1.0000
  S   S165      1.0  0.89253  0.90985  0.36310  1.0000
  H   H982      1.0  0.69573  0.53466  0.28634  1.0000
  Fe  Fe85      1.0  0.86877  0.89050  0.32698  1.0000
  S   S166      1.0  0.86961  0.83374  0.29952  1.0000
  Fe  Fe86      1.0  0.86711  0.93723  0.39288  1.0000
  H   H983      1.0  0.69529  0.57321  0.25512  1.0000
  S   S167      1.0  0.87063  0.94299  0.29313  1.0000
  S   S168      1.0  0.86930  0.99293  0.36427  1.0000
  Fe  Fe87      1.0  0.87829  0.55574  0.29947  1.0000
  S   S169      1.0  0.89648  0.56855  0.34634  1.0000
  C   C568      1.0  0.94925  0.86863  0.25042  1.0000
  Fe  Fe88      1.0  0.83775  0.56896  0.33722  1.0000
  S   S170      1.0  0.85337  0.58285  0.38623  1.0000
  S   S171      1.0  0.80377  0.57540  0.34420  1.0000
  Fe  Fe89      1.0  0.87465  0.61743  0.35321  1.0000
  S   S172      1.0  0.88234  0.67469  0.37582  1.0000
  H   H984      1.0  0.78808  0.53358  0.41516  1.0000
  H   H985      1.0  0.81373  0.57343  0.42631  1.0000
  S   S173      1.0  0.85778  0.60702  0.30451  1.0000
  Fe  Fe90      1.0  0.87342  0.53332  0.37514  1.0000
  C   C569      1.0  0.87450  0.79001  0.32069  1.0000
  C   C570      1.0  0.87437  0.75639  0.30152  1.0000
  C   C571      1.0  0.87706  0.72080  0.31789  1.0000
  C   C572      1.0  0.88019  0.71867  0.35352  1.0000
  C   C573      1.0  0.88101  0.75240  0.37241  1.0000
  C   C574      1.0  0.87802  0.78792  0.35616  1.0000
  H   H986      1.0  0.87175  0.75782  0.27401  1.0000
  H   H987      1.0  0.87658  0.69505  0.30301  1.0000
  H   H988      1.0  0.88357  0.75100  0.39994  1.0000
  H   H989      1.0  0.87824  0.81363  0.37114  1.0000
  C   C575      1.0  0.81482  0.54772  0.44315  1.0000
  H   H990      1.0  0.92429  0.82306  0.22339  1.0000
  H   H991      1.0  0.86809  0.55308  0.45073  1.0000
  H   H992      1.0  0.78501  0.53473  0.46084  1.0000
  C   C576      1.0  0.86712  0.96955  0.47758  1.0000
  C   C577      1.0  0.76672  0.54149  0.34898  1.0000
  H   H993      1.0  0.82880  0.53290  0.43530  1.0000
  C   C578      1.0  0.86249  0.53452  0.50323  1.0000
  C   C579      1.0  0.92025  0.82401  0.25141  1.0000
  S   S174      1.0  0.86276  0.93044  0.45082  1.0000
  S   S175      1.0  0.92400  0.98898  0.31943  1.0000
  C   C580      1.0  0.86800  0.52919  0.46848  1.0000
  H   H994      1.0  0.70755  0.53804  0.19454  1.0000
  H   H995      1.0  0.94359  0.87350  0.35432  1.0000
  H   H996      1.0  0.90124  0.88575  0.27938  1.0000
  C   C581      1.0  0.75991  0.00380  0.36539  1.0000
  H   H997      1.0  0.91741  0.84446  0.31901  1.0000
  C   C582      1.0  0.79710  0.00030  0.32905  1.0000
  H   H998      1.0  0.73336  0.00221  0.46276  1.0000
  C   C583      1.0  0.74744  0.94810  0.46884  1.0000
  H   H999      1.0  0.91720  0.78077  0.29274  1.0000
  H   H1000     1.0  0.74549  0.94321  0.44078  1.0000
  H   H1001     1.0  0.93261  0.90889  0.32759  1.0000
  H   H1002     1.0  0.69042  0.55882  0.50102  1.0000
  H   H1003     1.0  0.92177  0.91749  0.27524  1.0000
  H   H1004     1.0  0.96254  0.52711  0.28212  1.0000
  H   H1005     1.0  0.95456  0.89671  0.25943  1.0000
  S   S176      1.0  0.73732  0.00688  0.38995  1.0000
  N   N42       1.0  0.81644  0.71452  0.36316  1.0000
  C   C584      1.0  0.82226  0.74929  0.34207  1.0000
  C   C585      1.0  0.82342  0.68034  0.34304  1.0000
  C   C586      1.0  0.82723  0.71615  0.39720  1.0000
  C   C587      1.0  0.79391  0.71560  0.36868  1.0000
  C   C588      1.0  0.81997  0.78793  0.36018  1.0000
  C   C589      1.0  0.81343  0.67509  0.30774  1.0000
  C   C590      1.0  0.82998  0.67857  0.41748  1.0000
  C   C591      1.0  0.78391  0.68013  0.38508  1.0000
  H   H1006     1.0  0.83822  0.74723  0.33336  1.0000
  H   H1007     1.0  0.81337  0.75157  0.31800  1.0000
  H   H1008     1.0  0.82116  0.65341  0.35762  1.0000
  H   H1009     1.0  0.84002  0.68148  0.33849  1.0000
  H   H1010     1.0  0.84278  0.72722  0.39314  1.0000
  H   H1011     1.0  0.81959  0.73648  0.41496  1.0000
  H   H1012     1.0  0.78957  0.73960  0.38567  1.0000
  H   H1013     1.0  0.78596  0.72241  0.34421  1.0000
  H   H1014     1.0  0.83032  0.79050  0.38225  1.0000
  H   H1015     1.0  0.82427  0.81085  0.34148  1.0000
  H   H1016     1.0  0.80427  0.79371  0.36871  1.0000
  H   H1017     1.0  0.81786  0.69762  0.28890  1.0000
  H   H1018     1.0  0.81859  0.64773  0.29664  1.0000
  H   H1019     1.0  0.79681  0.67336  0.31011  1.0000
  H   H1020     1.0  0.84137  0.66027  0.40457  1.0000
  H   H1021     1.0  0.81588  0.66261  0.42146  1.0000
  H   H1022     1.0  0.83601  0.68485  0.44338  1.0000
  H   H1023     1.0  0.78318  0.68225  0.41367  1.0000
  H   H1024     1.0  0.79116  0.65300  0.37787  1.0000
  H   H1025     1.0  0.76830  0.67783  0.37544  1.0000
  H   H1026     1.0  0.71863  0.52908  0.23551  1.0000
  H   H1027     1.0  0.92223  0.91406  0.21208  1.0000
  C   C592      1.0  0.79525  0.52456  0.43980  1.0000
  H   H1028     1.0  0.95735  0.89005  0.31721  1.0000
  H   H1029     1.0  0.76209  0.56661  0.36285  1.0000
  C   C593      1.0  0.93540  0.99680  0.27818  1.0000
  H   H1030     1.0  0.89749  0.92401  0.22797  1.0000
  C   C594      1.0  0.92447  0.99488  0.24768  1.0000
  H   H1031     1.0  0.98029  0.85186  0.24104  1.0000
  C   C595      1.0  0.96671  0.84012  0.25439  1.0000
  H   H1032     1.0  0.90349  0.82612  0.25230  1.0000
  H   H1033     1.0  0.74531  0.92023  0.48193  1.0000
  C   C596      1.0  0.78666  0.53821  0.33659  1.0000
  H   H1034     1.0  0.90303  0.87754  0.21296  1.0000
  C   C597      1.0  0.91539  0.89123  0.26441  1.0000
  C   C598      1.0  0.73177  0.97782  0.48085  1.0000
  C   C599      1.0  0.94204  0.88295  0.32699  1.0000
  C   C600      1.0  0.77728  0.98990  0.38159  1.0000
  H   H1035     1.0  0.92753  0.55189  0.28746  1.0000
  H   H1036     1.0  0.94179  0.82535  0.31146  1.0000
  C   C601      1.0  0.93230  0.85079  0.30649  1.0000
  H   H1037     1.0  0.94713  0.87237  0.22212  1.0000
  C   C602      1.0  0.92475  0.78434  0.26709  1.0000
  H   H1038     1.0  0.88714  0.99849  0.44192  1.0000
  C   C603      1.0  0.79579  0.98804  0.36350  1.0000
  C   C604      1.0  0.90940  0.90175  0.22703  1.0000
  H   H1039     1.0  0.96335  0.81287  0.24190  1.0000
  H   H1040     1.0  0.91842  0.76233  0.25015  1.0000
  H   H1041     1.0  0.97074  0.83526  0.28177  1.0000
  H   H1042     1.0  0.94100  0.77827  0.26964  1.0000
  N   N43       1.0  0.92969  0.85806  0.26827  1.0000
  H   H1043     1.0  0.77651  0.98070  0.40833  1.0000
  H   H1044     1.0  0.76308  0.95811  0.47202  1.0000
  H   H1045     1.0  0.80911  0.97756  0.37634  1.0000
  H   H1046     1.0  0.71653  0.96639  0.47557  1.0000
  C   C605      1.0  0.88005  0.99895  0.46728  1.0000
  H   H1047     1.0  0.96456  0.00745  0.29957  1.0000
  C   C606      1.0  0.93175  0.53403  0.26601  1.0000
  C   C607      1.0  0.68635  0.54993  0.26726  1.0000
  S   S177      1.0  0.82036  0.00030  0.30624  1.0000
  C   C608      1.0  0.76111  0.01565  0.33078  1.0000
  H   H1048     1.0  0.90857  0.98853  0.24895  1.0000
  H   H1049     1.0  0.81638  0.55850  0.46980  1.0000
  C   C609      1.0  0.77970  0.01409  0.31275  1.0000
  C   C610      1.0  0.91729  0.52400  0.24200  1.0000
  C   C611      1.0  0.96558  0.01301  0.24395  1.0000
  C   C612      1.0  0.93405  0.00212  0.21551  1.0000
  C   C613      1.0  0.95460  0.01146  0.21347  1.0000
  S   S178      1.0  0.89149  0.53603  0.24806  1.0000
  C   C614      1.0  0.95162  0.52014  0.26280  1.0000
  H   H1050     1.0  0.92540  0.00111  0.19209  1.0000
  Fe  Fe91      1.0  0.69795  0.93371  0.68829  1.0000
  S   S179      1.0  0.69359  0.88354  0.65412  1.0000
  C   C615      1.0  0.69441  0.97267  0.79507  1.0000
  H   H1051     1.0  0.69892  0.76728  0.59513  1.0000
  C   C616      1.0  0.96574  0.83526  0.89348  1.0000
  H   H1052     1.0  0.72742  0.99541  0.65139  1.0000
  C   C617      1.0  0.99208  0.84538  0.96376  1.0000
  H   H1053     1.0  0.85479  0.00048  0.55840  1.0000
  S   S180      1.0  0.98800  0.91887  0.83403  1.0000
  H   H1054     1.0  0.87844  0.94462  0.65172  1.0000
  C   C618      1.0  0.76656  0.97411  0.70385  1.0000
  H   H1055     1.0  0.00567  0.79035  0.96712  1.0000
  Fe  Fe92      1.0  0.99780  0.95918  0.79146  1.0000
  H   H1056     1.0  0.84807  0.94766  0.51866  1.0000
  Fe  Fe93      1.0  0.99132  0.54799  0.80489  1.0000
  H   H1057     1.0  0.96138  0.53334  0.86596  1.0000
  S   S181      1.0  0.00071  0.57284  0.85579  1.0000
  H   H1058     1.0  0.98099  0.73916  0.79825  1.0000
  C   C619      1.0  0.95360  0.99566  0.74630  1.0000
  H   H1059     1.0  0.00577  0.85502  0.89969  1.0000
  C   C620      1.0  0.90764  0.54976  0.65318  1.0000
  C   C621      1.0  0.91312  0.99102  0.72417  1.0000
  S   S182      1.0  0.68746  0.55742  0.62362  1.0000
  C   C622      1.0  0.75362  0.00395  0.52702  1.0000
  S   S183      1.0  0.69575  0.65921  0.65370  1.0000
  S   S184      1.0  0.88726  0.98851  0.71306  1.0000
  H   H1060     1.0  0.95375  0.53023  0.94527  1.0000
  H   H1061     1.0  0.85810  0.56250  0.51188  1.0000
  C   C623      1.0  0.92110  0.96394  0.74731  1.0000
  C   C624      1.0  0.94123  0.96615  0.75827  1.0000
  N   N44       1.0  0.92008  0.53219  0.62451  1.0000
  H   H1062     1.0  0.94702  0.94553  0.77661  1.0000
  C   C625      1.0  0.91309  0.95640  0.55845  1.0000
  H   H1063     1.0  0.97925  0.78918  0.96073  1.0000
  S   S185      1.0  0.99430  0.81623  0.79983  1.0000
  S   S186      1.0  0.01497  0.57943  0.77376  1.0000
  C   C626      1.0  0.88771  0.93022  0.59814  1.0000
  C   C627      1.0  0.99672  0.73859  0.80512  1.0000
  H   H1064     1.0  0.91719  0.59341  0.55171  1.0000
  H   H1065     1.0  0.93913  0.93060  0.59961  1.0000
  H   H1066     1.0  0.98677  0.86615  0.94427  1.0000
  H   H1067     1.0  0.86376  0.90939  0.63194  1.0000
  H   H1068     1.0  0.71048  0.73560  0.65628  1.0000
  H   H1069     1.0  0.70231  0.00534  0.53191  1.0000
  H   H1070     1.0  0.91671  0.54793  0.77054  1.0000
  C   C628      1.0  0.00733  0.77287  0.80716  1.0000
  N   N45       1.0  0.99707  0.79708  0.91378  1.0000
  H   H1071     1.0  0.75136  0.57593  0.59438  1.0000
  H   H1072     1.0  0.95280  0.83224  0.87590  1.0000
  H   H1073     1.0  0.92140  0.89326  0.60437  1.0000
  H   H1074     1.0  0.70704  0.95184  0.79369  1.0000
  C   C629      1.0  0.92627  0.56162  0.59766  1.0000
  H   H1075     1.0  0.98130  0.71902  0.90128  1.0000
  H   H1076     1.0  0.98037  0.78925  0.86690  1.0000
  H   H1077     1.0  0.88820  0.89665  0.64649  1.0000
  H   H1078     1.0  0.71137  0.80693  0.57546  1.0000
  H   H1079     1.0  0.88784  0.90292  0.58408  1.0000
  C   C630      1.0  0.69702  0.79759  0.58790  1.0000
  H   H1080     1.0  0.76503  0.98064  0.52732  1.0000
  H   H1081     1.0  0.74096  0.93329  0.53718  1.0000
  H   H1082     1.0  0.77566  0.54996  0.66987  1.0000
  C   C631      1.0  0.74695  0.97344  0.69074  1.0000
  C   C632      1.0  0.87939  0.91998  0.63439  1.0000
  H   H1083     1.0  0.91630  0.57153  0.66704  1.0000
  C   C633      1.0  0.97759  0.79762  0.89423  1.0000
  Fe  Fe94      1.0  0.69173  0.51869  0.66930  1.0000
  H   H1084     1.0  0.90351  0.52774  0.67294  1.0000
  C   C634      1.0  0.91179  0.56863  0.56722  1.0000
  H   H1085     1.0  0.89143  0.59756  0.62918  1.0000
  H   H1086     1.0  0.69503  0.81462  0.61152  1.0000
  H   H1087     1.0  0.92019  0.89695  0.54446  1.0000
  H   H1088     1.0  0.93148  0.89610  0.66048  1.0000
  H   H1089     1.0  0.99786  0.67738  0.81061  1.0000
  C   C635      1.0  0.88811  0.57023  0.64258  1.0000
  H   H1090     1.0  0.92876  0.58950  0.61007  1.0000
  S   S187      1.0  0.72825  0.94584  0.71220  1.0000
  C   C636      1.0  0.00624  0.70353  0.81212  1.0000
  H   H1091     1.0  0.75437  0.53310  0.62034  1.0000
  H   H1092     1.0  0.89427  0.00409  0.60240  1.0000
  C   C637      1.0  0.92706  0.92479  0.65091  1.0000
  N   N46       1.0  0.75817  0.60143  0.66401  1.0000
  C   C638      1.0  0.75449  0.60439  0.70251  1.0000
  C   C639      1.0  0.77741  0.57901  0.65877  1.0000
  C   C640      1.0  0.74056  0.58067  0.64877  1.0000
  C   C641      1.0  0.75956  0.64113  0.64923  1.0000
  C   C642      1.0  0.73474  0.62440  0.71380  1.0000
  C   C643      1.0  0.79658  0.59581  0.67433  1.0000
  C   C644      1.0  0.74466  0.55828  0.61532  1.0000
  C   C645      1.0  0.76466  0.64508  0.61038  1.0000
  H   H1093     1.0  0.75454  0.57564  0.71489  1.0000
  H   H1094     1.0  0.76670  0.62042  0.71498  1.0000
  H   H1095     1.0  0.78097  0.57432  0.63111  1.0000
  C   C646      1.0  0.99332  0.80358  0.95186  1.0000
  H   H1096     1.0  0.73425  0.55949  0.66756  1.0000
  H   H1097     1.0  0.72786  0.60058  0.64343  1.0000
  H   H1098     1.0  0.74487  0.65622  0.65256  1.0000
  H   H1099     1.0  0.77012  0.65898  0.66391  1.0000
  H   H1100     1.0  0.73269  0.62103  0.74222  1.0000
  H   H1101     1.0  0.73513  0.65535  0.70816  1.0000
  H   H1102     1.0  0.72133  0.61211  0.70181  1.0000
  H   H1103     1.0  0.69515  0.98476  0.74150  1.0000
  H   H1104     1.0  0.79935  0.62532  0.66532  1.0000
  H   H1105     1.0  0.01279  0.82098  0.86932  1.0000
  Fe  Fe95      1.0  0.00713  0.87549  0.80625  1.0000
  C   C647      1.0  0.69698  0.00185  0.76518  1.0000
  H   H1106     1.0  0.91152  0.54423  0.54944  1.0000
  H   H1107     1.0  0.75087  0.64245  0.59474  1.0000
  H   H1108     1.0  0.77624  0.62481  0.60123  1.0000
  H   H1109     1.0  0.77134  0.67349  0.60532  1.0000
  H   H1110     1.0  0.89618  0.91468  0.52863  1.0000
  C   C648      1.0  0.69514  0.73582  0.66607  1.0000
  H   H1111     1.0  0.87824  0.55265  0.62662  1.0000
  C   C649      1.0  0.00944  0.52877  0.99842  1.0000
  C   C650      1.0  0.90682  0.98699  0.61345  1.0000
  C   C651      1.0  0.95274  0.52168  0.88857  1.0000
  N   N47       1.0  0.90809  0.94889  0.59620  1.0000
  H   H1112     1.0  0.91155  0.94144  0.75733  1.0000
  H   H1113     1.0  0.89615  0.57503  0.57547  1.0000
  C   C652      1.0  0.00650  0.75825  0.90917  1.0000
  H   H1114     1.0  0.91366  0.93315  0.66630  1.0000
  H   H1115     1.0  0.73022  0.54714  0.60575  1.0000
  H   H1116     1.0  0.87626  0.94851  0.58520  1.0000
  C   C653      1.0  0.72878  0.95485  0.54013  1.0000
  H   H1117     1.0  0.96685  0.77645  0.90521  1.0000
  H   H1118     1.0  0.00680  0.85479  0.97375  1.0000
  H   H1119     1.0  0.92856  0.96796  0.55518  1.0000
  C   C654      1.0  0.74252  0.99532  0.66142  1.0000
  Fe  Fe96      1.0  0.01648  0.93528  0.86102  1.0000
  S   S188      1.0  0.97837  0.00226  0.76188  1.0000
  H   H1120     1.0  0.97728  0.53955  0.92231  1.0000
  S   S189      1.0  0.95791  0.54982  0.79171  1.0000
  H   H1121     1.0  0.80976  0.57841  0.66592  1.0000
  H   H1122     1.0  0.90298  0.98455  0.64129  1.0000
  C   C655      1.0  0.92417  0.92335  0.61126  1.0000
  C   C656      1.0  0.01140  0.82553  0.89765  1.0000
  H   H1123     1.0  0.00297  0.69796  0.92008  1.0000
  C   C657      1.0  0.78173  0.99605  0.68750  1.0000
  H   H1124     1.0  0.95931  0.84199  0.91930  1.0000
  N   N48       1.0  0.73302  0.98969  0.51806  1.0000
  H   H1125     1.0  0.79626  0.59414  0.70298  1.0000
  H   H1126     1.0  0.97472  0.85924  0.88305  1.0000
  H   H1127     1.0  0.77009  0.95738  0.72663  1.0000
  H   H1128     1.0  0.69469  0.79639  0.67474  1.0000
  H   H1129     1.0  0.69453  0.98540  0.82096  1.0000
  H   H1130     1.0  0.91906  0.92989  0.50883  1.0000
  C   C658      1.0  0.96064  0.54146  0.92098  1.0000
  H   H1131     1.0  0.72277  0.93384  0.59235  1.0000
  H   H1132     1.0  0.93983  0.94351  0.65736  1.0000
  H   H1133     1.0  0.87929  0.57728  0.66631  1.0000
  H   H1134     1.0  0.90294  0.97861  0.54760  1.0000
  C   C659      1.0  0.68434  0.70168  0.66842  1.0000
  H   H1135     1.0  0.95690  0.57220  0.91931  1.0000
  H   H1136     1.0  0.98691  0.72694  0.94651  1.0000
  C   C660      1.0  0.86199  0.00009  0.53323  1.0000
  H   H1137     1.0  0.93978  0.99546  0.61665  1.0000
  H   H1138     1.0  0.01101  0.75390  0.88168  1.0000
  C   C661      1.0  0.91203  0.92209  0.53419  1.0000
  C   C662      1.0  0.72653  0.96129  0.57939  1.0000
  C   C663      1.0  0.92593  0.01154  0.61028  1.0000
  S   S190      1.0  0.68649  0.56478  0.70814  1.0000
  H   H1139     1.0  0.94106  0.55417  0.58547  1.0000
  C   C664      1.0  0.99341  0.72399  0.92012  1.0000
  H   H1140     1.0  0.71475  0.94079  0.53172  1.0000
  H   H1141     1.0  0.74080  0.97100  0.59064  1.0000
  H   H1142     1.0  0.71408  0.98117  0.58595  1.0000
  H   H1143     1.0  0.79681  0.99616  0.69767  1.0000
  C   C665      1.0  0.68619  0.77034  0.67633  1.0000
  H   H1144     1.0  0.98140  0.84727  0.98608  1.0000
  H   H1145     1.0  0.93704  0.53218  0.88537  1.0000
  S   S191      1.0  0.01503  0.91466  0.76176  1.0000
  H   H1146     1.0  0.95458  0.56949  0.64807  1.0000
  C   C666      1.0  0.92430  0.52391  0.75892  1.0000
  S   S192      1.0  0.85306  0.01200  0.63212  1.0000
  C   C667      1.0  0.85814  0.97024  0.51062  1.0000
  H   H1147     1.0  0.01123  0.54759  0.94496  1.0000
  C   C668      1.0  0.01359  0.52420  0.96283  1.0000
  C   C669      1.0  0.95173  0.54216  0.66172  1.0000
  H   H1148     1.0  0.94478  0.54736  0.68755  1.0000
  H   H1149     1.0  0.71304  0.01085  0.76450  1.0000
  H   H1150     1.0  0.75369  0.01417  0.55411  1.0000
  H   H1151     1.0  0.96653  0.52845  0.66670  1.0000
  C   C670      1.0  0.77730  0.01780  0.65807  1.0000
  C   C671      1.0  0.94495  0.51796  0.76484  1.0000
  C   C672      1.0  0.75761  0.01745  0.64525  1.0000
  H   H1152     1.0  0.00370  0.55566  0.00762  1.0000
