data_image0
_chemical_formula_structural       FeS2FeSH2FeCS2H3SHFeS2H2FeS2FeS3C2H3C6HFeH2C6H5C2H2SHFeH2C6H4C2HCH2FeH4CS2HCFeCSCH4CH2CNCH2SH2CHNC6H14CHCH3C2HC4HCHNH6CH2CHFeCSHNH2CHSH4C7H4FeS2FeS2Fe2S3HSFeS2C8H4C6H8SHCHCHCHNC2SCH3CH8CHCH3CH5NC8H21C2H2C2H4CFeHCNCH4C2H4C2H4C2H4CHCHCH8C2H2FeS2FeS2FeSFeS3HS2C6H4C6H7CHCFeHC6H11CHSH2CHCHCHNH4CNHC2H2SCHCH5FeNH8CHC2HCH2SHSH3CFeCH3CH2CHC2HCH2CH3CSHC2H4CHCHSHCH3CHNHCHCHC2H2C2HCH3SH3CH5SFeS2FeS2FeSFeS3FeS2C6H4C6H5C5H3C5H4FeH4CH3C3H6C2H6CH3CHCH2CH2NC4HC2H6CH2NCH2CH4C2HSH5CH3CHC2HCH3CH6SH8SCNH2CNFeS2FeSFeSFeS3HSH2SH2C6H4C6H4SH2FeSFeHSH4C7H4CH3CH7FeCH5NCSH3CH2C2HCN2HNC3HCHCH4CHCH4C2H3SCHCHCH6CH2CH5C2HCH2C2H2NC4H2C2H7C2H5CHSH6CH4NC3HCH6FeHCH2C3HCHSFeS2FeSFeSFeS3FeSH3Fe2SH3S2CFeS2H5CH2C3H4C6H4C6H4C6H10C4H4CH2CH3NCHNH2CHCHCH2CHC4H2NH2C2H2CHCHCNFeH2SHCFeH2SH3SCH7C3HSH2C3HC2H2FeS2FeS2FeSFeS3HS2HSHC6H4C6H4C7H4C3SCH3CHFeSH3CHCH2C4HCH4NC8H20NC8H16CH6CHCH2CH7CH2FeH2SH2NH2CHCH4CH3FeS2FeSFeSFeS4HFeHSHSC6H4C6HFeH2SHSFeSH2NC2H3C6H4CH4FeHC2HC2HC2H8CH3NC6HCH10C2H2C2H4CHCHCSH5CHNCH2NH2CH3CHCH4SH8C2HCH4CH5CSHCHFeS2FeSFeSFeS3HSFeHSHC2HSCFeSHFeS2HCHNC4HCNH3C7H4C6H4C6H5CNC6H16C3H2CH4CSH2SCH5CFeCH12CNCH2NCH2CH2C3H4S2CH3CFeH2FeH6CHCHC3H3SH2CH2CH2CHCH2FeS2FeS2FeSFeS2HFeS2FeSFeHSFeS2CS2C6H3C4H2C6H4C6H4C4H2CH2C2H4SCHNC8H22FeNC5H19CHCH4SCHCHNH4C2SFeCH2CHCH7CHCSHSH6C2HC6H4C2FeS2FeS2FeSFeS2H2SCHC6H4C6H6SHNH6CH3C2HFeHC2H2SC3H4SHCFeH2CH8CH4CSH2CHSH2NCNC3H2CH3FeH5C5H2CH6C2H2SCHCHCH2CH3CH3SHFeS2FeS2FeSFeS3HS2FeS2C6H4C6H4C5H3C6H7NHCH3C2H5FeHCNC4HC3H13CH3C2H2C2H2CHC2H5CH4CHCHCHCHCNH3CH6CH3CHCHC2HCHNH5CH12CH3SHFeH7NCHC
_chemical_formula_sum              "Fe96 S192 H1152 C672 N48"
_cell_length_a       42.0051
_cell_length_b       41.9409
_cell_length_c       46.2548
_cell_angle_alpha    89.9431
_cell_angle_beta     90.2408
_cell_angle_gamma    89.9096

_space_group_name_H-M_alt    "P 1"
_space_group_IT_number       1

loop_
  _space_group_symop_operation_xyz
  'x, y, z'

loop_
  _atom_site_type_symbol
  _atom_site_label
  _atom_site_symmetry_multiplicity
  _atom_site_fract_x
  _atom_site_fract_y
  _atom_site_fract_z
  _atom_site_occupancy
  Fe  Fe1       1.0  0.30230  0.27266  0.07149  1.0000
  S   S1        1.0  0.31609  0.22516  0.05294  1.0000
  S   S2        1.0  0.26101  0.26770  0.10293  1.0000
  Fe  Fe2       1.0  0.34750  0.30846  0.03044  1.0000
  S   S3        1.0  0.07308  0.43251  0.31642  1.0000
  H   H1        1.0  0.10243  0.22913  0.22608  1.0000
  H   H2        1.0  0.06367  0.21057  0.22090  1.0000
  Fe  Fe3       1.0  0.36594  0.24319  0.05492  1.0000
  C   C1        1.0  0.05461  0.29362  0.28163  1.0000
  S   S4        1.0  0.29546  0.29524  0.02761  1.0000
  S   S5        1.0  0.35293  0.28995  0.07603  1.0000
  H   H3        1.0  0.31242  0.17150  0.01177  1.0000
  H   H4        1.0  0.05290  0.29446  0.30549  1.0000
  H   H5        1.0  0.11832  0.05223  0.20229  1.0000
  S   S6        1.0  0.04240  0.06597  0.29318  1.0000
  H   H6        1.0  0.43511  0.40710  0.07791  1.0000
  Fe  Fe4       1.0  0.46297  0.03789  0.09962  1.0000
  S   S7        1.0  0.46968  0.04315  0.14740  1.0000
  S   S8        1.0  0.42120  0.06319  0.07736  1.0000
  H   H7        1.0  0.05117  0.24667  0.32356  1.0000
  H   H8        1.0  0.29064  0.18193  0.19604  1.0000
  Fe  Fe5       1.0  0.21744  0.25859  0.26942  1.0000
  S   S9        1.0  0.22872  0.20903  0.28437  1.0000
  S   S10       1.0  0.25215  0.28401  0.23959  1.0000
  Fe  Fe6       1.0  0.17572  0.20085  0.28296  1.0000
  S   S11       1.0  0.15540  0.15890  0.25751  1.0000
  S   S12       1.0  0.16470  0.24979  0.26523  1.0000
  S   S13       1.0  0.21309  0.27795  0.31468  1.0000
  C   C2        1.0  0.37519  0.49898  0.01257  1.0000
  C   C3        1.0  0.12085  0.34857  0.30796  1.0000
  H   H9        1.0  0.41393  0.15955  0.17331  1.0000
  H   H10       1.0  0.39576  0.36567  0.06339  1.0000
  H   H11       1.0  0.13889  0.33904  0.29373  1.0000
  C   C4        1.0  0.07290  0.09260  0.28260  1.0000
  C   C5        1.0  0.08935  0.10980  0.30401  1.0000
  C   C6        1.0  0.11435  0.13061  0.29666  1.0000
  C   C7        1.0  0.12321  0.13426  0.26777  1.0000
  C   C8        1.0  0.10654  0.11734  0.24629  1.0000
  C   C9        1.0  0.08131  0.09681  0.25362  1.0000
  H   H12       1.0  0.35997  0.28732  0.13935  1.0000
  Fe  Fe7       1.0  0.01788  0.02979  0.26389  1.0000
  H   H13       1.0  0.11318  0.12014  0.22386  1.0000
  H   H14       1.0  0.06850  0.08413  0.23687  1.0000
  C   C10       1.0  0.26027  0.27118  0.14111  1.0000
  C   C11       1.0  0.28205  0.29014  0.15623  1.0000
  C   C12       1.0  0.27950  0.29345  0.18645  1.0000
  C   C13       1.0  0.25527  0.27781  0.20183  1.0000
  C   C14       1.0  0.23393  0.25832  0.18679  1.0000
  C   C15       1.0  0.23631  0.25524  0.15655  1.0000
  H   H15       1.0  0.30015  0.30308  0.14454  1.0000
  H   H16       1.0  0.29596  0.30876  0.19792  1.0000
  H   H17       1.0  0.21513  0.24625  0.19836  1.0000
  H   H18       1.0  0.21921  0.24074  0.14499  1.0000
  H   H19       1.0  0.09252  0.03048  0.24662  1.0000
  C   C16       1.0  0.15367  0.04403  0.25430  1.0000
  C   C17       1.0  0.43842  0.42803  0.03542  1.0000
  H   H20       1.0  0.39561  0.03297  0.16747  1.0000
  H   H21       1.0  0.03069  0.29511  0.27152  1.0000
  S   S14       1.0  0.46635  0.45730  0.04640  1.0000
  H   H22       1.0  0.11962  0.39466  0.28712  1.0000
  Fe  Fe8       1.0  0.22125  0.22767  0.32954  1.0000
  H   H23       1.0  0.10716  0.20850  0.27527  1.0000
  H   H24       1.0  0.18677  0.03014  0.28992  1.0000
  C   C18       1.0  0.41001  0.17230  0.07520  1.0000
  C   C19       1.0  0.38463  0.15248  0.06738  1.0000
  C   C20       1.0  0.38820  0.11906  0.06871  1.0000
  C   C21       1.0  0.41703  0.10523  0.07794  1.0000
  C   C22       1.0  0.44200  0.12507  0.08659  1.0000
  C   C23       1.0  0.43848  0.15843  0.08517  1.0000
  H   H25       1.0  0.36238  0.16289  0.06025  1.0000
  H   H26       1.0  0.36864  0.10382  0.06242  1.0000
  H   H27       1.0  0.46426  0.11472  0.09387  1.0000
  H   H28       1.0  0.45815  0.17356  0.09151  1.0000
  C   C24       1.0  0.36516  0.26514  0.15161  1.0000
  C   C25       1.0  0.10990  0.38009  0.30427  1.0000
  H   H29       1.0  0.34762  0.22337  0.19792  1.0000
  C   C26       1.0  0.10811  0.32947  0.32979  1.0000
  H   H30       1.0  0.12711  0.14338  0.31339  1.0000
  H   H31       1.0  0.39136  0.26190  0.15099  1.0000
  Fe  Fe9       1.0  0.16144  0.26447  0.31199  1.0000
  H   H32       1.0  0.09881  0.18702  0.22495  1.0000
  H   H33       1.0  0.28183  0.02435  0.11545  1.0000
  H   H34       1.0  0.07169  0.17683  0.31878  1.0000
  H   H35       1.0  0.13586  0.06011  0.26442  1.0000
  C   C27       1.0  0.18495  0.04691  0.27158  1.0000
  S   S15       1.0  0.40741  0.21441  0.07301  1.0000
  S   S16       1.0  0.01962  0.02859  0.21539  1.0000
  H   H36       1.0  0.02515  0.23685  0.24587  1.0000
  C   C28       1.0  0.32660  0.02341  0.09046  1.0000
  Fe  Fe10      1.0  0.48885  0.49219  0.01482  1.0000
  C   C29       1.0  0.10971  0.02729  0.20323  1.0000
  S   S17       1.0  0.16922  0.21477  0.32954  1.0000
  C   C30       1.0  0.08674  0.20908  0.23249  1.0000
  H   H37       1.0  0.30554  0.06046  0.11853  1.0000
  H   H38       1.0  0.08293  0.10675  0.32648  1.0000
  H   H39       1.0  0.09852  0.26751  0.27789  1.0000
  H   H40       1.0  0.07408  0.18285  0.27025  1.0000
  C   C31       1.0  0.08640  0.39292  0.32248  1.0000
  H   H41       1.0  0.15845  0.05578  0.23321  1.0000
  H   H42       1.0  0.34247  0.03837  0.14626  1.0000
  C   C32       1.0  0.38588  0.01341  0.15389  1.0000
  N   N1        1.0  0.06122  0.23205  0.27914  1.0000
  C   C33       1.0  0.02777  0.22679  0.26806  1.0000
  H   H43       1.0  0.08954  0.23165  0.31831  1.0000
  H   H44       1.0  0.48979  0.38469  0.03592  1.0000
  S   S18       1.0  0.12066  0.28954  0.33515  1.0000
  H   H45       1.0  0.34154  0.04158  0.07925  1.0000
  H   H46       1.0  0.37307  0.04749  0.12107  1.0000
  C   C34       1.0  0.36118  0.02739  0.13255  1.0000
  H   H47       1.0  0.29781  0.13340  0.02216  1.0000
  N   N2        1.0  0.34734  0.20599  0.15379  1.0000
  C   C35       1.0  0.34754  0.23699  0.13713  1.0000
  C   C36       1.0  0.33057  0.18176  0.13508  1.0000
  C   C37       1.0  0.38164  0.19613  0.15791  1.0000
  C   C38       1.0  0.33107  0.21151  0.18244  1.0000
  C   C39       1.0  0.29547  0.18928  0.12775  1.0000
  C   C40       1.0  0.38781  0.16386  0.17280  1.0000
  H   H48       1.0  0.35826  0.23351  0.11537  1.0000
  H   H49       1.0  0.32293  0.24551  0.13297  1.0000
  H   H50       1.0  0.33083  0.15768  0.14477  1.0000
  H   H51       1.0  0.34342  0.17888  0.11418  1.0000
  H   H52       1.0  0.39408  0.19542  0.13663  1.0000
  H   H53       1.0  0.39470  0.21389  0.17125  1.0000
  H   H54       1.0  0.31082  0.22852  0.17960  1.0000
  H   H55       1.0  0.28390  0.16768  0.11868  1.0000
  H   H56       1.0  0.28149  0.19689  0.14678  1.0000
  H   H57       1.0  0.29368  0.20794  0.11089  1.0000
  H   H58       1.0  0.37739  0.14349  0.16086  1.0000
  H   H59       1.0  0.37993  0.16412  0.19563  1.0000
  H   H60       1.0  0.35712  0.26951  0.17405  1.0000
  H   H61       1.0  0.32645  0.15870  0.19100  1.0000
  C   C41       1.0  0.31703  0.18200  0.19797  1.0000
  H   H62       1.0  0.20587  0.04410  0.25721  1.0000
  C   C42       1.0  0.06430  0.22815  0.31147  1.0000
  H   H63       1.0  0.28377  0.05220  0.08635  1.0000
  H   H64       1.0  0.18596  0.07097  0.28166  1.0000
  H   H65       1.0  0.06744  0.31564  0.27513  1.0000
  C   C43       1.0  0.29796  0.04092  0.10394  1.0000
  C   C44       1.0  0.40476  0.38233  0.04753  1.0000
  H   H66       1.0  0.32199  0.18395  0.22153  1.0000
  C   C45       1.0  0.05385  0.19554  0.32362  1.0000
  C   C46       1.0  0.39361  0.38102  0.01902  1.0000
  C   C47       1.0  0.07341  0.26455  0.27060  1.0000
  C   C48       1.0  0.42696  0.40590  0.05571  1.0000
  H   H67       1.0  0.07366  0.26739  0.24672  1.0000
  C   C49       1.0  0.08281  0.20737  0.26564  1.0000
  H   H68       1.0  0.02302  0.20075  0.26572  1.0000
  N   N3        1.0  0.14046  0.01101  0.24972  1.0000
  H   H69       1.0  0.35299  0.12623  0.01475  1.0000
  H   H70       1.0  0.03026  0.18789  0.31546  1.0000
  H   H71       1.0  0.31669  0.00852  0.07283  1.0000
  H   H72       1.0  0.08517  0.02739  0.19423  1.0000
  H   H73       1.0  0.12096  0.03510  0.30513  1.0000
  H   H74       1.0  0.48208  0.31865  0.02850  1.0000
  C   C50       1.0  0.10871  0.01436  0.23453  1.0000
  H   H75       1.0  0.36341  0.49547  0.03390  1.0000
  H   H76       1.0  0.08761  0.01220  0.29134  1.0000
  C   C51       1.0  0.11242  0.01090  0.29944  1.0000
  H   H77       1.0  0.12386  0.01192  0.18861  1.0000
  Fe  Fe11      1.0  0.03885  0.46102  0.34456  1.0000
  C   C52       1.0  0.07400  0.37391  0.34458  1.0000
  S   S19       1.0  0.26054  0.23057  0.50001  1.0000
  H   H78       1.0  0.24949  0.29113  0.37113  1.0000
  N   N4        1.0  0.38686  0.15925  0.64972  1.0000
  H   H79       1.0  0.13590  0.28479  0.40103  1.0000
  H   H80       1.0  0.29322  0.15282  0.40437  1.0000
  C   C53       1.0  0.34270  0.12529  0.62572  1.0000
  H   H81       1.0  0.46818  0.16065  0.55505  1.0000
  S   S20       1.0  0.03774  0.46032  0.39315  1.0000
  H   H82       1.0  0.37325  0.42978  0.62088  1.0000
  H   H83       1.0  0.37376  0.11032  0.66043  1.0000
  H   H84       1.0  0.21906  0.33810  0.35843  1.0000
  H   H85       1.0  0.14634  0.38853  0.37208  1.0000
  C   C54       1.0  0.25273  0.31301  0.38429  1.0000
  C   C55       1.0  0.25766  0.22723  0.40076  1.0000
  C   C56       1.0  0.23173  0.21664  0.41701  1.0000
  C   C57       1.0  0.23244  0.21895  0.44739  1.0000
  C   C58       1.0  0.25898  0.23190  0.46178  1.0000
  C   C59       1.0  0.28432  0.24367  0.44545  1.0000
  C   C60       1.0  0.28373  0.24109  0.41511  1.0000
  H   H86       1.0  0.21171  0.20553  0.40624  1.0000
  H   H87       1.0  0.21273  0.20975  0.45986  1.0000
  H   H88       1.0  0.30471  0.25406  0.45620  1.0000
  H   H89       1.0  0.30388  0.24934  0.40267  1.0000
  Fe  Fe12      1.0  0.32499  0.25497  0.58971  1.0000
  S   S21       1.0  0.32423  0.21253  0.56001  1.0000
  S   S22       1.0  0.31902  0.24908  0.63831  1.0000
  Fe  Fe13      1.0  0.34919  0.29988  0.54221  1.0000
  S   S23       1.0  0.35064  0.26095  0.50885  1.0000
  S   S24       1.0  0.35696  0.35188  0.53026  1.0000
  Fe  Fe14      1.0  0.30335  0.24615  0.52674  1.0000
  Fe  Fe15      1.0  0.37130  0.23031  0.54435  1.0000
  S   S25       1.0  0.41493  0.19932  0.53798  1.0000
  S   S26       1.0  0.30006  0.28715  0.55803  1.0000
  S   S27       1.0  0.37392  0.27067  0.57615  1.0000
  H   H90       1.0  0.23428  0.20113  0.67347  1.0000
  S   S28       1.0  0.48203  0.43675  0.54360  1.0000
  Fe  Fe16      1.0  0.46767  0.03687  0.60803  1.0000
  S   S29       1.0  0.47166  0.04236  0.65617  1.0000
  S   S30       1.0  0.42363  0.05746  0.58599  1.0000
  C   C61       1.0  0.23179  0.28309  0.66190  1.0000
  C   C62       1.0  0.36817  0.41753  0.60017  1.0000
  C   C63       1.0  0.44766  0.41283  0.53853  1.0000
  C   C64       1.0  0.44688  0.38193  0.55042  1.0000
  C   C65       1.0  0.41967  0.36252  0.54739  1.0000
  C   C66       1.0  0.39271  0.37417  0.53294  1.0000
  C   C67       1.0  0.39345  0.40511  0.52124  1.0000
  C   C68       1.0  0.42086  0.42425  0.52376  1.0000
  H   H91       1.0  0.46753  0.37291  0.56185  1.0000
  H   H92       1.0  0.41953  0.33870  0.55634  1.0000
  H   H93       1.0  0.37272  0.41434  0.51007  1.0000
  H   H94       1.0  0.42112  0.44799  0.51458  1.0000
  C   C69       1.0  0.41700  0.15991  0.55130  1.0000
  C   C70       1.0  0.38957  0.14160  0.55521  1.0000
  C   C71       1.0  0.39209  0.11002  0.56529  1.0000
  C   C72       1.0  0.42187  0.09691  0.57260  1.0000
  C   C73       1.0  0.44925  0.11541  0.56914  1.0000
  C   C74       1.0  0.44684  0.14660  0.55804  1.0000
  H   H95       1.0  0.36649  0.15159  0.55007  1.0000
  H   H96       1.0  0.37084  0.09575  0.56778  1.0000
  H   H97       1.0  0.47231  0.10552  0.57462  1.0000
  H   H98       1.0  0.42176  0.21751  0.60536  1.0000
  H   H99       1.0  0.16609  0.38833  0.40624  1.0000
  H   H100      1.0  0.27367  0.32550  0.37507  1.0000
  H   H101      1.0  0.39420  0.32822  0.65865  1.0000
  H   H102      1.0  0.32289  0.13182  0.64037  1.0000
  S   S31       1.0  0.26036  0.21983  0.36321  1.0000
  H   H103      1.0  0.31944  0.40546  0.60716  1.0000
  C   C75       1.0  0.28482  0.26008  0.65828  1.0000
  H   H104      1.0  0.21130  0.29389  0.65154  1.0000
  C   C76       1.0  0.25806  0.27367  0.64504  1.0000
  H   H105      1.0  0.26948  0.33474  0.61829  1.0000
  C   C77       1.0  0.37776  0.34929  0.61738  1.0000
  H   H106      1.0  0.25763  0.27703  0.62186  1.0000
  N   N5        1.0  0.19328  0.32450  0.39717  1.0000
  C   C78       1.0  0.16584  0.34212  0.38317  1.0000
  C   C79       1.0  0.18751  0.28940  0.39227  1.0000
  S   S32       1.0  0.49649  0.48082  0.46921  1.0000
  C   C80       1.0  0.19414  0.33309  0.42880  1.0000
  H   H107      1.0  0.25900  0.30644  0.40670  1.0000
  H   H108      1.0  0.16388  0.33535  0.35997  1.0000
  H   H109      1.0  0.28677  0.35930  0.59115  1.0000
  C   C81       1.0  0.21733  0.31412  0.44833  1.0000
  H   H110      1.0  0.36010  0.43607  0.58458  1.0000
  H   H111      1.0  0.14273  0.33561  0.39317  1.0000
  H   H112      1.0  0.20836  0.27473  0.39828  1.0000
  H   H113      1.0  0.23837  0.49752  0.38030  1.0000
  H   H114      1.0  0.32601  0.32235  0.60876  1.0000
  H   H115      1.0  0.33844  0.38139  0.58125  1.0000
  H   H116      1.0  0.20080  0.35856  0.43161  1.0000
  H   H117      1.0  0.16995  0.33172  0.43855  1.0000
  C   C82       1.0  0.41333  0.20897  0.62677  1.0000
  H   H118      1.0  0.07482  0.32771  0.36515  1.0000
  C   C83       1.0  0.21567  0.19563  0.65717  1.0000
  H   H119      1.0  0.17352  0.16790  0.65051  1.0000
  H   H120      1.0  0.18384  0.28456  0.36888  1.0000
  H   H121      1.0  0.34153  0.18448  0.64754  1.0000
  C   C84       1.0  0.16739  0.37889  0.38390  1.0000
  H   H122      1.0  0.31957  0.42189  0.65277  1.0000
  H   H123      1.0  0.37760  0.17969  0.60743  1.0000
  H   H124      1.0  0.24063  0.32646  0.45018  1.0000
  H   H125      1.0  0.22142  0.28931  0.44131  1.0000
  H   H126      1.0  0.20707  0.31194  0.47035  1.0000
  N   N6        1.0  0.34007  0.15971  0.45294  1.0000
  C   C85       1.0  0.33875  0.17063  0.42179  1.0000
  C   C86       1.0  0.35500  0.18617  0.47036  1.0000
  C   C87       1.0  0.30618  0.15487  0.46280  1.0000
  C   C88       1.0  0.35879  0.12891  0.45448  1.0000
  C   C89       1.0  0.31920  0.14963  0.40090  1.0000
  C   C90       1.0  0.38732  0.19838  0.45913  1.0000
  C   C91       1.0  0.30088  0.14791  0.49511  1.0000
  C   C92       1.0  0.37594  0.12129  0.48328  1.0000
  H   H127      1.0  0.32879  0.19518  0.42025  1.0000
  H   H128      1.0  0.36307  0.17219  0.41241  1.0000
  H   H129      1.0  0.35870  0.17928  0.49331  1.0000
  H   H130      1.0  0.33861  0.20704  0.47115  1.0000
  H   H131      1.0  0.29163  0.17627  0.45745  1.0000
  H   H132      1.0  0.29475  0.13475  0.45105  1.0000
  H   H133      1.0  0.34321  0.10820  0.44935  1.0000
  H   H134      1.0  0.37778  0.12832  0.43773  1.0000
  H   H135      1.0  0.23107  0.35888  0.39011  1.0000
  H   H136      1.0  0.32383  0.15737  0.37831  1.0000
  H   H137      1.0  0.31764  0.32979  0.64549  1.0000
  H   H138      1.0  0.40381  0.17864  0.45368  1.0000
  H   H139      1.0  0.38404  0.21404  0.43997  1.0000
  H   H140      1.0  0.39892  0.21313  0.47610  1.0000
  H   H141      1.0  0.27490  0.14921  0.49948  1.0000
  H   H142      1.0  0.31202  0.16572  0.50957  1.0000
  H   H143      1.0  0.30834  0.12337  0.50085  1.0000
  H   H144      1.0  0.39620  0.13766  0.48736  1.0000
  H   H145      1.0  0.38615  0.09687  0.48220  1.0000
  H   H146      1.0  0.35995  0.12184  0.50210  1.0000
  H   H147      1.0  0.36763  0.30261  0.63831  1.0000
  C   C93       1.0  0.15896  0.27477  0.40841  1.0000
  C   C94       1.0  0.44396  0.13901  0.65968  1.0000
  H   H148      1.0  0.39256  0.11444  0.62690  1.0000
  H   H149      1.0  0.12869  0.14321  0.66392  1.0000
  C   C95       1.0  0.35102  0.37961  0.65523  1.0000
  C   C96       1.0  0.32347  0.40041  0.66631  1.0000
  H   H150      1.0  0.16135  0.27712  0.43219  1.0000
  H   H151      1.0  0.32570  0.12407  0.40265  1.0000
  H   H152      1.0  0.27897  0.37504  0.62680  1.0000
  H   H153      1.0  0.45581  0.15308  0.64251  1.0000
  C   C97       1.0  0.36084  0.17883  0.66332  1.0000
  Fe  Fe17      1.0  0.49175  0.48206  0.51770  1.0000
  H   H154      1.0  0.15811  0.24883  0.40358  1.0000
  C   C98       1.0  0.37518  0.12646  0.64137  1.0000
  N   N7        1.0  0.34723  0.36621  0.62518  1.0000
  C   C99       1.0  0.26237  0.50597  0.37399  1.0000
  H   H155      1.0  0.43897  0.11463  0.65156  1.0000
  H   H156      1.0  0.37325  0.39390  0.65691  1.0000
  H   H157      1.0  0.35373  0.36007  0.67135  1.0000
  H   H158      1.0  0.39851  0.36568  0.61842  1.0000
  C   C100      1.0  0.32046  0.34195  0.62420  1.0000
  C   C101      1.0  0.22340  0.33506  0.38211  1.0000
  H   H159      1.0  0.22786  0.18353  0.63895  1.0000
  H   H160      1.0  0.39602  0.22698  0.63457  1.0000
  H   H161      1.0  0.37658  0.34071  0.59458  1.0000
  H   H162      1.0  0.30120  0.38651  0.66830  1.0000
  C   C102      1.0  0.28720  0.35392  0.61468  1.0000
  C   C103      1.0  0.39782  0.17595  0.62267  1.0000
  H   H163      1.0  0.34205  0.14076  0.60629  1.0000
  H   H164      1.0  0.43447  0.20818  0.64114  1.0000
  H   H165      1.0  0.40778  0.30830  0.62702  1.0000
  H   H166      1.0  0.39040  0.40756  0.59098  1.0000
  C   C104      1.0  0.34178  0.39214  0.60301  1.0000
  C   C105      1.0  0.38689  0.32054  0.63667  1.0000
  H   H167      1.0  0.41513  0.16091  0.61078  1.0000
  H   H168      1.0  0.13840  0.20883  0.66360  1.0000
  H   H169      1.0  0.33825  0.10047  0.61835  1.0000
  H   H170      1.0  0.18871  0.38831  0.37274  1.0000
  C   C106      1.0  0.08474  0.34228  0.34812  1.0000
  H   H171      1.0  0.20094  0.15024  0.67469  1.0000
  C   C107      1.0  0.41371  0.15566  0.67118  1.0000
  H   H172      1.0  0.20571  0.21815  0.64841  1.0000
  C   C108      1.0  0.18949  0.17340  0.66909  1.0000
  H   H173      1.0  0.05593  0.38352  0.35874  1.0000
  H   H174      1.0  0.28359  0.49781  0.41541  1.0000
  H   H175      1.0  0.27506  0.48521  0.36454  1.0000
  H   H176      1.0  0.05237  0.19708  0.34755  1.0000
  H   H177      1.0  0.36990  0.20275  0.66963  1.0000
  H   H178      1.0  0.16766  0.23452  0.67787  1.0000
  H   H179      1.0  0.46146  0.13644  0.67762  1.0000
  H   H180      1.0  0.30442  0.29917  0.89526  1.0000
  C   C109      1.0  0.12097  0.15080  0.68573  1.0000
  C   C110      1.0  0.19215  0.19689  0.71835  1.0000
  H   H181      1.0  0.41871  0.19770  0.98866  1.0000
  H   H182      1.0  0.47798  0.34549  0.96670  1.0000
  Fe  Fe18      1.0  0.15094  0.29213  0.81439  1.0000
  S   S33       1.0  0.17354  0.25080  0.83825  1.0000
  S   S34       1.0  0.11675  0.32051  0.84279  1.0000
  Fe  Fe19      1.0  0.19164  0.27956  0.76021  1.0000
  S   S35       1.0  0.21795  0.23945  0.78144  1.0000
  S   S36       1.0  0.19825  0.29088  0.71234  1.0000
  Fe  Fe20      1.0  0.16941  0.22381  0.79645  1.0000
  S   S37       1.0  0.15994  0.17105  0.78908  1.0000
  Fe  Fe21      1.0  0.21936  0.27016  0.82118  1.0000
  S   S38       1.0  0.26266  0.28114  0.84901  1.0000
  S   S39       1.0  0.14282  0.26310  0.77397  1.0000
  S   S40       1.0  0.19715  0.31233  0.79857  1.0000
  H   H183      1.0  0.35456  0.44382  0.97075  1.0000
  S   S41       1.0  0.05213  0.45539  0.81618  1.0000
  S   S42       1.0  0.03059  0.47756  0.89646  1.0000
  C   C111      1.0  0.06946  0.41758  0.82373  1.0000
  C   C112      1.0  0.08897  0.40309  0.80285  1.0000
  C   C113      1.0  0.10381  0.37348  0.80834  1.0000
  C   C114      1.0  0.09913  0.35799  0.83477  1.0000
  C   C115      1.0  0.07981  0.37259  0.85572  1.0000
  C   C116      1.0  0.06503  0.40219  0.85026  1.0000
  H   H184      1.0  0.09253  0.41477  0.78225  1.0000
  H   H185      1.0  0.11857  0.36249  0.79200  1.0000
  H   H186      1.0  0.07587  0.36072  0.87617  1.0000
  H   H187      1.0  0.04994  0.41292  0.86647  1.0000
  C   C117      1.0  0.06215  0.12278  0.77997  1.0000
  C   C118      1.0  0.06413  0.15487  0.78859  1.0000
  C   C119      1.0  0.09384  0.17025  0.79096  1.0000
  C   C120      1.0  0.12187  0.15343  0.78517  1.0000
  C   C121      1.0  0.11984  0.12150  0.77613  1.0000
  C   C122      1.0  0.09012  0.10628  0.77333  1.0000
  H   H188      1.0  0.04261  0.16780  0.79379  1.0000
  H   H189      1.0  0.09511  0.19484  0.79791  1.0000
  H   H190      1.0  0.14140  0.10830  0.77163  1.0000
  H   H191      1.0  0.08891  0.08155  0.76675  1.0000
  H   H192      1.0  0.16062  0.35047  0.88298  1.0000
  H   H193      1.0  0.37725  0.15989  0.91280  1.0000
  H   H194      1.0  0.20303  0.15077  0.73939  1.0000
  C   C123      1.0  0.25837  0.26443  0.70517  1.0000
  H   H195      1.0  0.38574  0.47548  0.00764  1.0000
  C   C124      1.0  0.48318  0.31689  0.00460  1.0000
  Fe  Fe22      1.0  0.02314  0.48381  0.84882  1.0000
  H   H196      1.0  0.25876  0.26090  0.72834  1.0000
  C   C125      1.0  0.26812  0.26502  0.88403  1.0000
  C   C126      1.0  0.25070  0.23869  0.89363  1.0000
  C   C127      1.0  0.25642  0.22596  0.92136  1.0000
  C   C128      1.0  0.27912  0.23978  0.93988  1.0000
  C   C129      1.0  0.29614  0.26645  0.93049  1.0000
  C   C130      1.0  0.29084  0.27881  0.90256  1.0000
  H   H197      1.0  0.23330  0.22776  0.87948  1.0000
  H   H198      1.0  0.24322  0.20527  0.92845  1.0000
  H   H199      1.0  0.31372  0.27726  0.94455  1.0000
  H   H200      1.0  0.10069  0.36000  0.94182  1.0000
  H   H201      1.0  0.11874  0.46551  0.81769  1.0000
  H   H202      1.0  0.20611  0.21824  0.71202  1.0000
  H   H203      1.0  0.14041  0.25921  0.93424  1.0000
  H   H204      1.0  0.40638  0.50286  0.93469  1.0000
  H   H205      1.0  0.30531  0.24477  0.69882  1.0000
  H   H206      1.0  0.12039  0.32012  0.90783  1.0000
  H   H207      1.0  0.12606  0.21572  0.72657  1.0000
  C   C131      1.0  0.18034  0.34541  0.89855  1.0000
  H   H208      1.0  0.23019  0.18196  0.74746  1.0000
  S   S43       1.0  0.01038  0.05205  0.70998  1.0000
  H   H209      1.0  0.17796  0.20507  0.73716  1.0000
  H   H210      1.0  0.37374  0.47505  0.93316  1.0000
  C   C132      1.0  0.12744  0.22857  0.70573  1.0000
  H   H211      1.0  0.40086  0.47636  0.96354  1.0000
  C   C133      1.0  0.40998  0.11886  0.99132  1.0000
  H   H212      1.0  0.34415  0.44114  0.00864  1.0000
  C   C134      1.0  0.12291  0.46504  0.87725  1.0000
  H   H213      1.0  0.23067  0.33059  0.89178  1.0000
  N   N8        1.0  0.17055  0.18619  0.69419  1.0000
  H   H214      1.0  0.40580  0.14156  0.69026  1.0000
  H   H215      1.0  0.13962  0.16563  0.72697  1.0000
  H   H216      1.0  0.13053  0.37753  0.91978  1.0000
  H   H217      1.0  0.32056  0.17247  0.69233  1.0000
  C   C135      1.0  0.14198  0.47169  0.82785  1.0000
  N   N9        1.0  0.35967  0.14815  0.97274  1.0000
  H   H218      1.0  0.10317  0.22894  0.69612  1.0000
  C   C136      1.0  0.38738  0.12653  0.96577  1.0000
  C   C137      1.0  0.33970  0.15313  0.94592  1.0000
  H   H219      1.0  0.49157  0.42683  0.94059  1.0000
  H   H220      1.0  0.13920  0.36655  0.95705  1.0000
  S   S44       1.0  0.47853  0.48987  0.96740  1.0000
  C   C138      1.0  0.35526  0.17140  0.92080  1.0000
  H   H221      1.0  0.18523  0.36839  0.90973  1.0000
  C   C139      1.0  0.14934  0.15988  0.70529  1.0000
  H   H222      1.0  0.42082  0.17919  0.68023  1.0000
  H   H223      1.0  0.40226  0.13589  0.94806  1.0000
  H   H224      1.0  0.37859  0.10332  0.95713  1.0000
  H   H225      1.0  0.33124  0.12980  0.93731  1.0000
  H   H226      1.0  0.31792  0.16710  0.95087  1.0000
  Fe  Fe23      1.0  0.31277  0.24900  0.00948  1.0000
  N   N10       1.0  0.17042  0.32012  0.92003  1.0000
  H   H227      1.0  0.35872  0.17352  0.71057  1.0000
  H   H228      1.0  0.10373  0.45791  0.92021  1.0000
  H   H229      1.0  0.16321  0.13757  0.70887  1.0000
  H   H230      1.0  0.13380  0.25371  0.71065  1.0000
  H   H231      1.0  0.12760  0.30913  0.94438  1.0000
  H   H232      1.0  0.21604  0.36002  0.86722  1.0000
  H   H233      1.0  0.33826  0.17200  0.90231  1.0000
  H   H234      1.0  0.23248  0.16322  0.71306  1.0000
  C   C140      1.0  0.20944  0.33821  0.87942  1.0000
  H   H235      1.0  0.35966  0.19667  0.92660  1.0000
  C   C141      1.0  0.48961  0.40273  0.95037  1.0000
  C   C142      1.0  0.40542  0.40288  0.99872  1.0000
  H   H236      1.0  0.23258  0.30454  0.96805  1.0000
  C   C143      1.0  0.33945  0.13048  0.99445  1.0000
  H   H237      1.0  0.43202  0.10757  0.98292  1.0000
  H   H238      1.0  0.15401  0.48754  0.81199  1.0000
  S   S45       1.0  0.04290  0.00881  0.76284  1.0000
  H   H239      1.0  0.18866  0.34773  0.95597  1.0000
  S   S46       1.0  0.02442  0.10398  0.77872  1.0000
  H   H240      1.0  0.46380  0.39758  0.95259  1.0000
  H   H241      1.0  0.39715  0.40179  0.97655  1.0000
  H   H242      1.0  0.33283  0.10643  0.98612  1.0000
  C   C144      1.0  0.16543  0.25908  0.92677  1.0000
  Fe  Fe24      1.0  0.01639  0.05536  0.75822  1.0000
  C   C145      1.0  0.12659  0.35950  0.93697  1.0000
  H   H243      1.0  0.32950  0.40901  0.68838  1.0000
  H   H244      1.0  0.17816  0.30886  0.96554  1.0000
  H   H245      1.0  0.14826  0.42071  0.83835  1.0000
  C   C146      1.0  0.39922  0.19627  0.97238  1.0000
  H   H246      1.0  0.49205  0.41919  0.99380  1.0000
  H   H247      1.0  0.18478  0.44391  0.84059  1.0000
  C   C147      1.0  0.16195  0.44076  0.82886  1.0000
  H   H248      1.0  0.15649  0.28583  0.88771  1.0000
  C   C148      1.0  0.17286  0.28743  0.90664  1.0000
  C   C149      1.0  0.11611  0.47705  0.90804  1.0000
  H   H249      1.0  0.23979  0.33471  0.94108  1.0000
  C   C150      1.0  0.23183  0.27861  0.69205  1.0000
  H   H250      1.0  0.16770  0.43342  0.80639  1.0000
  H   H251      1.0  0.43663  0.44266  0.99094  1.0000
  C   C151      1.0  0.36972  0.17964  0.98566  1.0000
  H   H252      1.0  0.10013  0.45551  0.86841  1.0000
  H   H253      1.0  0.10830  0.13029  0.69567  1.0000
  H   H254      1.0  0.31151  0.48808  0.96662  1.0000
  C   C152      1.0  0.21564  0.17144  0.72983  1.0000
  S   S47       1.0  0.36406  0.35372  0.00769  1.0000
  H   H255      1.0  0.39305  0.22126  0.96666  1.0000
  C   C153      1.0  0.18928  0.32284  0.94775  1.0000
  C   C154      1.0  0.22485  0.31376  0.94659  1.0000
  H   H256      1.0  0.20355  0.31985  0.86299  1.0000
  H   H257      1.0  0.34965  0.19697  0.98462  1.0000
  H   H258      1.0  0.40873  0.18555  0.95247  1.0000
  H   H259      1.0  0.16882  0.23659  0.91444  1.0000
  C   C155      1.0  0.13569  0.32554  0.92701  1.0000
  H   H260      1.0  0.50420  0.30272  0.99795  1.0000
  C   C156      1.0  0.34588  0.16488  0.69104  1.0000
  H   H261      1.0  0.13883  0.44415  0.88038  1.0000
  S   S48       1.0  0.28638  0.22232  0.97408  1.0000
  H   H262      1.0  0.19680  0.28257  0.89771  1.0000
  C   C157      1.0  0.33594  0.44893  0.98687  1.0000
  H   H263      1.0  0.23012  0.29416  0.93149  1.0000
  H   H264      1.0  0.18198  0.25801  0.94550  1.0000
  H   H265      1.0  0.30782  0.48614  0.00486  1.0000
  C   C158      1.0  0.28475  0.25531  0.68836  1.0000
  H   H266      1.0  0.10004  0.49795  0.90840  1.0000
  N   N11       1.0  0.13705  0.48868  0.85632  1.0000
  H   H267      1.0  0.34560  0.13853  0.69152  1.0000
  C   C159      1.0  0.32538  0.48420  0.98690  1.0000
  H   H268      1.0  0.39923  0.10138  0.00643  1.0000
  C   C160      1.0  0.48230  0.34995  0.98999  1.0000
  H   H269      1.0  0.31521  0.43365  0.98136  1.0000
  C   C161      1.0  0.50638  0.40278  0.98014  1.0000
  C   C162      1.0  0.30831  0.14695  0.00391  1.0000
  H   H270      1.0  0.29011  0.14717  0.98646  1.0000
  H   H271      1.0  0.46034  0.36224  0.99762  1.0000
  C   C163      1.0  0.15153  0.21455  0.68390  1.0000
  C   C164      1.0  0.38762  0.49091  0.94769  1.0000
  H   H272      1.0  0.46169  0.30332  0.99784  1.0000
  C   C165      1.0  0.42782  0.42609  0.00681  1.0000
  H   H273      1.0  0.18270  0.48110  0.87714  1.0000
  H   H274      1.0  0.50040  0.38600  0.93483  1.0000
  H   H275      1.0  0.10339  0.17044  0.68394  1.0000
  S   S49       1.0  0.36432  0.26296  0.00973  1.0000
  H   H276      1.0  0.13843  0.48221  0.92002  1.0000
  H   H277      1.0  0.41728  0.14037  0.00355  1.0000
  H   H278      1.0  0.37487  0.17689  0.00917  1.0000
  C   C166      1.0  0.16886  0.50081  0.86694  1.0000
  H   H279      1.0  0.09005  0.50471  0.84372  1.0000
  H   H280      1.0  0.33633  0.76958  0.09618  1.0000
  H   H281      1.0  0.16362  0.77238  0.24991  1.0000
  H   H282      1.0  0.15691  0.98881  0.28981  1.0000
  H   H283      1.0  0.36338  0.99465  0.04870  1.0000
  S   S50       1.0  0.06196  0.95098  0.19168  1.0000
  Fe  Fe25      1.0  0.27220  0.79926  0.21521  1.0000
  S   S51       1.0  0.22094  0.79875  0.20174  1.0000
  S   S52       1.0  0.28837  0.76040  0.24654  1.0000
  Fe  Fe26      1.0  0.28819  0.85105  0.17028  1.0000
  S   S53       1.0  0.23725  0.85420  0.15428  1.0000
  S   S54       1.0  0.32586  0.87702  0.14378  1.0000
  Fe  Fe27      1.0  0.22439  0.85223  0.20164  1.0000
  S   S55       1.0  0.18953  0.88020  0.22978  1.0000
  Fe  Fe28      1.0  0.23828  0.80040  0.15582  1.0000
  S   S56       1.0  0.22068  0.76093  0.12581  1.0000
  S   S57       1.0  0.27539  0.85277  0.21758  1.0000
  S   S58       1.0  0.28951  0.79747  0.16927  1.0000
  Fe  Fe29      1.0  0.47208  0.98964  0.14909  1.0000
  S   S59       1.0  0.44506  0.96057  0.18262  1.0000
  S   S60       1.0  0.46211  0.98426  0.10193  1.0000
  C   C167      1.0  0.35971  0.89822  0.15604  1.0000
  C   C168      1.0  0.36373  0.90754  0.18487  1.0000
  C   C169      1.0  0.39010  0.92644  0.19292  1.0000
  C   C170      1.0  0.41244  0.93631  0.17221  1.0000
  C   C171      1.0  0.40883  0.92615  0.14365  1.0000
  C   C172      1.0  0.38258  0.90736  0.13560  1.0000
  H   H284      1.0  0.34631  0.90057  0.20085  1.0000
  H   H285      1.0  0.39294  0.93379  0.21520  1.0000
  H   H286      1.0  0.42619  0.93287  0.12766  1.0000
  H   H287      1.0  0.37978  0.90010  0.11329  1.0000
  C   C173      1.0  0.09613  0.92927  0.20263  1.0000
  C   C174      1.0  0.11766  0.91870  0.18150  1.0000
  C   C175      1.0  0.14597  0.90278  0.18937  1.0000
  C   C176      1.0  0.15307  0.89752  0.21853  1.0000
  C   C177      1.0  0.13133  0.90771  0.23967  1.0000
  C   C178      1.0  0.10286  0.92328  0.23177  1.0000
  H   H288      1.0  0.11255  0.92310  0.15889  1.0000
  H   H289      1.0  0.16251  0.89509  0.17291  1.0000
  H   H290      1.0  0.13664  0.90371  0.26228  1.0000
  H   H291      1.0  0.08625  0.93090  0.24818  1.0000
  H   H292      1.0  0.48223  0.86760  0.21655  1.0000
  C   C179      1.0  0.21458  0.72884  0.04316  1.0000
  C   C180      1.0  0.21634  0.73068  0.07352  1.0000
  C   C181      1.0  0.21818  0.76034  0.08761  1.0000
  C   C182      1.0  0.21772  0.78826  0.07104  1.0000
  C   C183      1.0  0.21507  0.78642  0.04067  1.0000
  H   H293      1.0  0.14722  0.72194  0.01752  1.0000
  H   H294      1.0  0.21642  0.70901  0.08623  1.0000
  H   H295      1.0  0.21884  0.81122  0.08165  1.0000
  C   C184      1.0  0.32733  0.76346  0.02084  1.0000
  C   C185      1.0  0.13500  0.82337  0.27941  1.0000
  C   C186      1.0  0.28457  0.78878  0.30064  1.0000
  C   C187      1.0  0.28460  0.76047  0.28467  1.0000
  C   C188      1.0  0.28203  0.73121  0.29936  1.0000
  H   H296      1.0  0.49116  0.86238  0.09958  1.0000
  H   H297      1.0  0.28708  0.81139  0.28963  1.0000
  H   H298      1.0  0.28234  0.70920  0.28718  1.0000
  H   H299      1.0  0.11158  0.99692  0.31983  1.0000
  Fe  Fe30      1.0  0.02667  0.97565  0.22144  1.0000
  H   H300      1.0  0.21907  0.74971  0.25041  1.0000
  H   H301      1.0  0.29793  0.78706  0.10034  1.0000
  H   H302      1.0  0.34602  0.95892  0.06409  1.0000
  H   H303      1.0  0.12711  0.80885  0.26072  1.0000
  C   C189      1.0  0.27874  0.73021  0.32966  1.0000
  H   H304      1.0  0.36403  0.74096  0.06322  1.0000
  H   H305      1.0  0.27343  0.68916  0.06225  1.0000
  H   H306      1.0  0.46058  0.89315  0.17344  1.0000
  C   C190      1.0  0.21383  0.75674  0.02661  1.0000
  C   C191      1.0  0.47560  0.85232  0.19790  1.0000
  C   C192      1.0  0.18089  0.74568  0.33383  1.0000
  H   H307      1.0  0.20529  0.98859  0.25836  1.0000
  H   H308      1.0  0.02814  0.61978  0.30584  1.0000
  H   H309      1.0  0.03657  0.66657  0.33097  1.0000
  H   H310      1.0  0.09621  0.99100  0.23369  1.0000
  H   H311      1.0  0.34410  0.96528  0.14166  1.0000
  H   H312      1.0  0.14931  0.84372  0.27149  1.0000
  C   C193      1.0  0.32801  0.97989  0.12781  1.0000
  C   C194      1.0  0.29799  0.71350  0.02619  1.0000
  H   H313      1.0  0.34625  0.77905  0.03002  1.0000
  H   H314      1.0  0.21313  0.70587  0.03264  1.0000
  H   H315      1.0  0.32576  0.53551  0.02324  1.0000
  H   H316      1.0  0.27528  0.72438  0.01874  1.0000
  H   H317      1.0  0.15902  0.81946  0.32070  1.0000
  H   H318      1.0  0.38411  0.96864  0.10785  1.0000
  C   C195      1.0  0.28870  0.68345  0.04347  1.0000
  H   H319      1.0  0.12413  0.96987  0.27354  1.0000
  H   H320      1.0  0.39630  0.54467  0.02701  1.0000
  H   H321      1.0  0.27589  0.75993  0.05895  1.0000
  C   C196      1.0  0.37390  0.98845  0.09498  1.0000
  H   H322      1.0  0.18070  0.95313  0.25859  1.0000
  C   C197      1.0  0.29922  0.75104  0.06672  1.0000
  H   H323      1.0  0.06662  0.60139  0.31349  1.0000
  H   H324      1.0  0.29680  0.96570  0.09092  1.0000
  C   C198      1.0  0.31517  0.77814  0.08403  1.0000
  H   H325      1.0  0.32169  0.79881  0.07038  1.0000
  H   H326      1.0  0.27649  0.70756  0.34067  1.0000
  N   N12       1.0  0.18241  0.78633  0.29174  1.0000
  C   C199      1.0  0.36831  0.70363  0.03196  1.0000
  C   C200      1.0  0.20482  0.80908  0.27694  1.0000
  C   C201      1.0  0.17252  0.76115  0.27022  1.0000
  C   C202      1.0  0.15309  0.80342  0.30228  1.0000
  H   H327      1.0  0.45113  0.84357  0.20236  1.0000
  C   C203      1.0  0.21518  0.83852  0.29459  1.0000
  C   C204      1.0  0.19876  0.73752  0.26081  1.0000
  H   H328      1.0  0.27451  0.66760  0.02914  1.0000
  H   H329      1.0  0.38770  0.96107  0.05722  1.0000
  H   H330      1.0  0.20547  0.79015  0.33368  1.0000
  H   H331      1.0  0.19434  0.81790  0.25634  1.0000
  H   H332      1.0  0.22709  0.79673  0.27050  1.0000
  H   H333      1.0  0.15219  0.74688  0.27851  1.0000
  C   C205      1.0  0.16210  0.99147  0.23053  1.0000
  H   H334      1.0  0.13554  0.78610  0.31099  1.0000
  H   H335      1.0  0.49136  0.83116  0.19688  1.0000
  N   N13       1.0  0.31816  0.73763  0.04196  1.0000
  C   C206      1.0  0.18968  0.97315  0.24519  1.0000
  H   H336      1.0  0.17397  0.72540  0.31985  1.0000
  H   H337      1.0  0.22878  0.83195  0.31428  1.0000
  C   C207      1.0  0.13455  0.99381  0.27787  1.0000
  H   H338      1.0  0.19486  0.85410  0.30032  1.0000
  H   H339      1.0  0.20771  0.72261  0.27890  1.0000
  H   H340      1.0  0.28893  0.94627  0.12377  1.0000
  H   H341      1.0  0.18875  0.72097  0.24440  1.0000
  C   C208      1.0  0.34802  0.72250  0.05388  1.0000
  C   C209      1.0  0.47509  0.87146  0.16936  1.0000
  H   H342      1.0  0.39022  0.69489  0.04294  1.0000
  S   S61       1.0  0.02763  0.97726  0.27007  1.0000
  H   H343      1.0  0.11329  0.83368  0.28939  1.0000
  H   H344      1.0  0.34236  0.70621  0.07218  1.0000
  H   H345      1.0  0.46106  0.85684  0.15383  1.0000
  H   H346      1.0  0.45580  0.88291  0.11205  1.0000
  H   H347      1.0  0.30968  0.66945  0.05063  1.0000
  C   C210      1.0  0.36676  0.97506  0.06460  1.0000
  H   H348      1.0  0.23141  0.85312  0.28104  1.0000
  H   H349      1.0  0.14824  0.97286  0.21879  1.0000
  H   H350      1.0  0.29347  0.73221  0.08282  1.0000
  C   C211      1.0  0.19930  0.77173  0.31733  1.0000
  H   H351      1.0  0.32372  0.93493  0.10376  1.0000
  C   C212      1.0  0.28187  0.78775  0.33099  1.0000
  C   C213      1.0  0.04069  0.60053  0.31776  1.0000
  H   H352      1.0  0.28957  0.79975  0.02784  1.0000
  C   C214      1.0  0.30864  0.95550  0.11017  1.0000
  H   H353      1.0  0.37597  0.71852  0.01347  1.0000
  H   H354      1.0  0.21407  0.80813  0.02804  1.0000
  H   H355      1.0  0.15962  0.75550  0.34481  1.0000
  C   C215      1.0  0.40358  0.52172  0.01720  1.0000
  H   H356      1.0  0.03201  0.57763  0.30859  1.0000
  H   H357      1.0  0.28215  0.80973  0.34320  1.0000
  H   H358      1.0  0.08428  0.64131  0.34109  1.0000
  H   H359      1.0  0.22240  0.76137  0.31066  1.0000
  H   H360      1.0  0.20470  0.96208  0.22818  1.0000
  H   H361      1.0  0.11390  0.74706  0.02446  1.0000
  S   S62       1.0  0.48738  0.54611  0.01754  1.0000
  H   H362      1.0  0.48739  0.92318  0.13751  1.0000
  H   H363      1.0  0.35574  0.68227  0.02367  1.0000
  H   H364      1.0  0.31189  0.99124  0.14385  1.0000
  H   H365      1.0  0.13562  0.66215  0.01420  1.0000
  H   H366      1.0  0.17277  0.00666  0.21336  1.0000
  H   H367      1.0  0.40644  0.00253  0.14269  1.0000
  H   H368      1.0  0.42055  0.51050  0.03265  1.0000
  H   H369      1.0  0.37516  0.99587  0.16890  1.0000
  S   S63       1.0  0.04381  0.51452  0.34199  1.0000
  C   C216      1.0  0.48123  0.88569  0.10622  1.0000
  N   N14       1.0  0.34690  0.00424  0.11110  1.0000
  H   H370      1.0  0.39390  0.00538  0.09182  1.0000
  H   H371      1.0  0.48184  0.90158  0.08699  1.0000
  C   C217      1.0  0.50054  0.90127  0.13088  1.0000
  N   N15       1.0  0.50705  0.88040  0.15685  1.0000
  Fe  Fe31      1.0  0.22155  0.65516  0.41614  1.0000
  S   S64       1.0  0.27285  0.66357  0.40352  1.0000
  S   S65       1.0  0.19394  0.62034  0.38774  1.0000
  Fe  Fe32      1.0  0.22579  0.70218  0.46701  1.0000
  S   S66       1.0  0.27657  0.71404  0.45764  1.0000
  Fe  Fe33      1.0  0.26126  0.71537  0.41079  1.0000
  S   S67       1.0  0.27442  0.75866  0.38369  1.0000
  Fe  Fe34      1.0  0.28347  0.66133  0.45128  1.0000
  S   S68       1.0  0.31965  0.63477  0.47925  1.0000
  S   S69       1.0  0.20951  0.70717  0.42071  1.0000
  S   S70       1.0  0.23313  0.64922  0.46321  1.0000
  H   H372      1.0  0.46227  0.84029  0.58998  1.0000
  S   S71       1.0  0.43725  0.55003  0.43890  1.0000
  H   H373      1.0  0.32472  0.95605  0.61295  1.0000
  H   H374      1.0  0.23989  0.87838  0.59098  1.0000
  S   S72       1.0  0.06604  0.54751  0.42022  1.0000
  H   H375      1.0  0.03965  0.83761  0.66464  1.0000
  H   H376      1.0  0.31474  0.56303  0.42812  1.0000
  C   C218      1.0  0.35140  0.61058  0.46711  1.0000
  C   C219      1.0  0.36094  0.61006  0.43818  1.0000
  C   C220      1.0  0.38696  0.59097  0.42974  1.0000
  C   C221      1.0  0.40388  0.57263  0.45016  1.0000
  C   C222      1.0  0.39414  0.57308  0.47903  1.0000
  C   C223      1.0  0.36803  0.59193  0.48743  1.0000
  H   H377      1.0  0.34853  0.62457  0.42239  1.0000
  H   H378      1.0  0.39436  0.59077  0.40736  1.0000
  H   H379      1.0  0.40669  0.55883  0.49488  1.0000
  H   H380      1.0  0.36080  0.59214  0.50985  1.0000
  C   C224      1.0  0.15933  0.59914  0.39797  1.0000
  C   C225      1.0  0.14697  0.57591  0.37914  1.0000
  C   C226      1.0  0.11888  0.55924  0.38598  1.0000
  C   C227      1.0  0.10276  0.56588  0.41168  1.0000
  C   C228      1.0  0.11541  0.58878  0.43072  1.0000
  C   C229      1.0  0.14360  0.60531  0.42395  1.0000
  H   H381      1.0  0.29961  0.69902  0.62128  1.0000
  H   H382      1.0  0.10943  0.54165  0.37116  1.0000
  H   H383      1.0  0.10312  0.59400  0.45068  1.0000
  H   H384      1.0  0.15287  0.62313  0.43863  1.0000
  S   S73       1.0  0.19934  0.72047  0.50651  1.0000
  H   H385      1.0  0.25808  0.93590  0.58973  1.0000
  H   H386      1.0  0.31533  0.91031  0.51250  1.0000
  Fe  Fe35      1.0  0.25440  0.82821  0.64343  1.0000
  S   S74       1.0  0.26605  0.81351  0.59700  1.0000
  Fe  Fe36      1.0  0.48225  0.98979  0.65647  1.0000
  H   H387      1.0  0.18195  0.73942  0.56407  1.0000
  S   S75       1.0  0.47511  0.98365  0.60885  1.0000
  H   H388      1.0  0.05017  0.92305  0.65718  1.0000
  H   H389      1.0  0.41201  0.70863  0.46711  1.0000
  H   H390      1.0  0.30807  0.69790  0.51277  1.0000
  H   H391      1.0  0.03037  0.68224  0.36544  1.0000
  C   C230      1.0  0.22126  0.56244  0.44907  1.0000
  C   C231      1.0  0.21718  0.74750  0.53110  1.0000
  C   C232      1.0  0.24504  0.76396  0.52412  1.0000
  C   C233      1.0  0.25928  0.78443  0.54449  1.0000
  C   C234      1.0  0.24596  0.78857  0.57208  1.0000
  C   C235      1.0  0.21796  0.77233  0.57904  1.0000
  C   C236      1.0  0.20357  0.75198  0.55854  1.0000
  H   H392      1.0  0.25558  0.76098  0.50302  1.0000
  H   H393      1.0  0.28091  0.79692  0.53890  1.0000
  H   H394      1.0  0.20747  0.77536  0.60019  1.0000
  H   H395      1.0  0.23574  0.56647  0.46881  1.0000
  C   C237      1.0  0.29795  0.53448  0.46292  1.0000
  H   H396      1.0  0.25727  0.62018  0.62255  1.0000
  H   H397      1.0  0.31403  0.54620  0.47881  1.0000
  H   H398      1.0  0.24731  0.70038  0.59110  1.0000
  C   C238      1.0  0.29073  0.58398  0.37572  1.0000
  H   H399      1.0  0.46174  0.60505  0.47645  1.0000
  H   H400      1.0  0.34794  0.86774  0.59807  1.0000
  H   H401      1.0  0.23853  0.51487  0.44076  1.0000
  H   H402      1.0  0.08179  0.68671  0.37711  1.0000
  H   H403      1.0  0.15926  0.91264  0.66131  1.0000
  H   H404      1.0  0.41001  0.89707  0.62754  1.0000
  H   H405      1.0  0.46383  0.91064  0.63718  1.0000
  Fe  Fe37      1.0  0.47358  0.52975  0.47083  1.0000
  C   C239      1.0  0.23876  0.89335  0.57132  1.0000
  H   H406      1.0  0.35410  0.90784  0.61200  1.0000
  H   H407      1.0  0.08953  0.61384  0.36975  1.0000
  H   H408      1.0  0.22517  0.63135  0.55792  1.0000
  H   H409      1.0  0.47359  0.87981  0.56229  1.0000
  H   H410      1.0  0.44191  0.60443  0.52056  1.0000
  N   N16       1.0  0.26782  0.54698  0.41535  1.0000
  C   C240      1.0  0.43630  0.62887  0.52810  1.0000
  S   S76       1.0  0.46583  0.52920  0.51878  1.0000
  H   H411      1.0  0.31448  0.94789  0.54718  1.0000
  H   H412      1.0  0.34529  0.92897  0.56693  1.0000
  H   H413      1.0  0.43857  0.62845  0.55204  1.0000
  C   C241      1.0  0.47985  0.68545  0.47544  1.0000
  H   H414      1.0  0.41120  0.63485  0.52290  1.0000
  H   H415      1.0  0.46960  0.82172  0.62349  1.0000
  C   C242      1.0  0.45966  0.88474  0.63367  1.0000
  C   C243      1.0  0.07697  0.63621  0.36371  1.0000
  H   H416      1.0  0.49957  0.62143  0.48351  1.0000
  C   C244      1.0  0.25660  0.64387  0.61178  1.0000
  N   N17       1.0  0.46114  0.65615  0.48340  1.0000
  N   N18       1.0  0.04133  0.63184  0.36585  1.0000
  H   H417      1.0  0.41882  0.85697  0.61762  1.0000
  N   N19       1.0  0.29840  0.90877  0.57398  1.0000
  C   C245      1.0  0.32000  0.93677  0.56846  1.0000
  C   C246      1.0  0.30568  0.88295  0.55233  1.0000
  C   C247      1.0  0.30357  0.89554  0.60393  1.0000
  H   H418      1.0  0.31421  0.72645  0.54163  1.0000
  C   C248      1.0  0.45971  0.65374  0.51591  1.0000
  H   H419      1.0  0.05159  0.61555  0.40944  1.0000
  C   C249      1.0  0.33820  0.88680  0.61202  1.0000
  H   H420      1.0  0.33566  0.98283  0.58485  1.0000
  H   H421      1.0  0.41473  0.63653  0.47285  1.0000
  H   H422      1.0  0.15899  0.57098  0.35898  1.0000
  H   H423      1.0  0.46902  0.70704  0.48540  1.0000
  C   C250      1.0  0.31828  0.96402  0.59084  1.0000
  H   H424      1.0  0.28954  0.87353  0.60713  1.0000
  C   C251      1.0  0.26429  0.91983  0.57143  1.0000
  H   H425      1.0  0.23206  0.64751  0.60381  1.0000
  H   H426      1.0  0.29443  0.91226  0.62056  1.0000
  H   H427      1.0  0.28356  0.58118  0.44765  1.0000
  H   H428      1.0  0.21695  0.58550  0.43813  1.0000
  C   C252      1.0  0.09162  0.66291  0.38249  1.0000
  C   C253      1.0  0.02570  0.66061  0.35223  1.0000
  H   H429      1.0  0.33851  0.87727  0.63444  1.0000
  H   H430      1.0  0.45415  0.67711  0.52603  1.0000
  H   H431      1.0  0.29444  0.97539  0.59124  1.0000
  S   S77       1.0  0.24046  0.87881  0.65412  1.0000
  C   C254      1.0  0.29910  0.89140  0.52037  1.0000
  H   H432      1.0  0.04623  0.58093  0.36073  1.0000
  C   C255      1.0  0.42840  0.65890  0.47025  1.0000
  H   H433      1.0  0.08895  0.65808  0.40595  1.0000
  C   C256      1.0  0.40772  0.68713  0.48059  1.0000
  H   H434      1.0  0.38217  0.68042  0.47885  1.0000
  H   H435      1.0  0.33121  0.87605  0.55344  1.0000
  H   H436      1.0  0.42975  0.88984  0.59418  1.0000
  H   H437      1.0  0.47870  0.68997  0.45173  1.0000
  H   H438      1.0  0.26136  0.66181  0.62884  1.0000
  H   H439      1.0  0.34655  0.70338  0.52790  1.0000
  C   C257      1.0  0.02843  0.91061  0.66485  1.0000
  H   H440      1.0  0.21477  0.90452  0.57088  1.0000
  H   H441      1.0  0.29242  0.86070  0.55747  1.0000
  C   C258      1.0  0.47673  0.62631  0.47199  1.0000
  H   H442      1.0  0.40836  0.98671  0.65931  1.0000
  H   H443      1.0  0.29941  0.56448  0.36167  1.0000
  H   H444      1.0  0.21825  0.53319  0.41146  1.0000
  H   H445      1.0  0.48346  0.64755  0.52490  1.0000
  H   H446      1.0  0.28305  0.60365  0.36112  1.0000
  C   C259      1.0  0.29120  0.55807  0.43801  1.0000
  C   C260      1.0  0.27873  0.75852  0.34562  1.0000
  H   H447      1.0  0.11768  0.66381  0.37837  1.0000
  C   C261      1.0  0.42806  0.88175  0.61682  1.0000
  H   H448      1.0  0.31631  0.72539  0.59472  1.0000
  H   H449      1.0  0.46108  0.62594  0.42624  1.0000
  C   C262      1.0  0.03329  0.60121  0.35039  1.0000
  C   C263      1.0  0.14296  0.92086  0.67775  1.0000
  H   H450      1.0  0.45450  0.87457  0.65544  1.0000
  H   H451      1.0  0.30361  0.86992  0.50693  1.0000
  N   N20       1.0  0.28176  0.67255  0.56702  1.0000
  C   C264      1.0  0.26056  0.66533  0.54140  1.0000
  C   C265      1.0  0.22616  0.65544  0.54808  1.0000
  C   C266      1.0  0.31526  0.67570  0.55555  1.0000
  C   C267      1.0  0.27110  0.70311  0.58108  1.0000
  H   H452      1.0  0.27407  0.89852  0.51635  1.0000
  H   H453      1.0  0.24034  0.87771  0.55207  1.0000
  C   C268      1.0  0.32083  0.70258  0.53331  1.0000
  C   C269      1.0  0.48670  0.90005  0.57182  1.0000
  H   H454      1.0  0.25861  0.68647  0.52690  1.0000
  H   H455      1.0  0.27096  0.64595  0.52788  1.0000
  H   H456      1.0  0.30537  0.64352  0.59988  1.0000
  H   H457      1.0  0.26066  0.93441  0.55157  1.0000
  H   H458      1.0  0.33272  0.67921  0.57342  1.0000
  H   H459      1.0  0.32283  0.65298  0.54502  1.0000
  H   H460      1.0  0.26757  0.72197  0.56467  1.0000
  C   C270      1.0  0.39915  0.96460  0.66794  1.0000
  C   C271      1.0  0.26207  0.57399  0.39445  1.0000
  H   H461      1.0  0.19763  0.55356  0.45619  1.0000
  H   H462      1.0  0.28115  0.62175  0.57577  1.0000
  H   H463      1.0  0.49939  0.64514  0.43218  1.0000
  H   H464      1.0  0.12154  0.95698  0.65053  1.0000
  H   H465      1.0  0.02521  0.88947  0.65096  1.0000
  C   C272      1.0  0.36626  0.95837  0.66691  1.0000
  H   H466      1.0  0.03222  0.65317  0.40781  1.0000
  S   S78       1.0  0.29850  0.82902  0.67121  1.0000
  H   H467      1.0  0.31062  0.59342  0.38897  1.0000
  H   H468      1.0  0.41148  0.69339  0.50353  1.0000
  H   H469      1.0  0.25471  0.59579  0.40627  1.0000
  H   H470      1.0  0.21259  0.65388  0.52746  1.0000
  H   H471      1.0  0.35036  0.97597  0.65767  1.0000
  H   H472      1.0  0.42990  0.66165  0.44638  1.0000
  C   C273      1.0  0.03288  0.62919  0.39751  1.0000
  H   H473      1.0  0.50413  0.84188  0.65829  1.0000
  H   H474      1.0  0.24181  0.56865  0.37961  1.0000
  H   H475      1.0  0.00835  0.92755  0.66162  1.0000
  H   H476      1.0  0.47028  0.92042  0.57543  1.0000
  N   N21       1.0  0.48891  0.86934  0.62077  1.0000
  C   C274      1.0  0.23639  0.53771  0.42861  1.0000
  C   C275      1.0  0.29378  0.71673  0.60430  1.0000
  C   C276      1.0  0.28231  0.64470  0.58789  1.0000
  H   H477      1.0  0.49548  0.60296  0.43369  1.0000
  C   C277      1.0  0.48061  0.83777  0.60711  1.0000
  H   H478      1.0  0.21369  0.67336  0.56154  1.0000
  H   H479      1.0  0.28219  0.73752  0.61487  1.0000
  H   H480      1.0  0.31057  0.51288  0.45521  1.0000
  H   H481      1.0  0.19669  0.73585  0.35104  1.0000
  H   H482      1.0  0.00782  0.59476  0.35241  1.0000
  H   H483      1.0  0.49957  0.79708  0.58357  1.0000
  Fe  Fe38      1.0  0.03912  0.51392  0.39015  1.0000
  H   H484      1.0  0.27618  0.52756  0.47477  1.0000
  C   C278      1.0  0.28157  0.51831  0.40022  1.0000
  H   H485      1.0  0.30640  0.52298  0.39300  1.0000
  H   H486      1.0  0.26009  0.52401  0.35658  1.0000
  C   C279      1.0  0.48337  0.62570  0.43917  1.0000
  C   C280      1.0  0.12151  0.94594  0.67167  1.0000
  C   C281      1.0  0.01675  0.83293  0.67580  1.0000
  H   H487      1.0  0.50418  0.90710  0.55500  1.0000
  C   C282      1.0  0.50493  0.89156  0.59974  1.0000
  H   H488      1.0  0.01277  0.80676  0.67659  1.0000
  S   S79       1.0  0.31193  0.92455  0.67778  1.0000
  Fe  Fe39      1.0  0.22232  0.66557  0.91455  1.0000
  S   S80       1.0  0.27403  0.66574  0.90098  1.0000
  S   S81       1.0  0.18587  0.63777  0.88808  1.0000
  Fe  Fe40      1.0  0.23238  0.71869  0.95931  1.0000
  S   S82       1.0  0.28406  0.72285  0.94859  1.0000
  Fe  Fe41      1.0  0.26926  0.71934  0.90184  1.0000
  S   S83       1.0  0.28799  0.75835  0.87209  1.0000
  Fe  Fe42      1.0  0.28440  0.66924  0.94882  1.0000
  S   S84       1.0  0.32006  0.64441  0.97865  1.0000
  S   S85       1.0  0.21738  0.71892  0.91266  1.0000
  S   S86       1.0  0.23289  0.66519  0.96233  1.0000
  Fe  Fe43      1.0  0.48016  0.54342  0.96925  1.0000
  S   S87       1.0  0.44505  0.57006  0.94049  1.0000
  H   H489      1.0  0.14878  0.63263  0.98882  1.0000
  H   H490      1.0  0.36517  0.88589  0.69984  1.0000
  H   H491      1.0  0.15148  0.69211  0.91062  1.0000
  Fe  Fe44      1.0  0.26683  0.81245  0.70755  1.0000
  Fe  Fe45      1.0  0.03399  0.00380  0.71511  1.0000
  S   S88       1.0  0.27463  0.76785  0.73490  1.0000
  H   H492      1.0  0.17807  0.84473  0.84592  1.0000
  H   H493      1.0  0.21647  0.77632  0.80643  1.0000
  H   H494      1.0  0.12137  0.52992  0.80584  1.0000
  S   S89       1.0  0.16585  0.87154  0.71232  1.0000
  S   S90       1.0  0.25567  0.86232  0.72223  1.0000
  C   C283      1.0  0.41979  0.94295  0.68134  1.0000
  Fe  Fe46      1.0  0.03126  0.53125  0.89778  1.0000
  S   S91       1.0  0.02630  0.53774  0.84965  1.0000
  S   S92       1.0  0.06688  0.55529  0.92811  1.0000
  H   H495      1.0  0.11873  0.81650  0.81517  1.0000
  H   H496      1.0  0.13919  0.79632  0.84448  1.0000
  H   H497      1.0  0.16032  0.83641  0.76957  1.0000
  H   H498      1.0  0.04912  0.68764  0.96652  1.0000
  H   H499      1.0  0.04928  0.65598  0.94073  1.0000
  C   C284      1.0  0.09971  0.95646  0.69261  1.0000
  H   H500      1.0  0.15081  0.79677  0.78030  1.0000
  H   H501      1.0  0.03579  0.89209  0.78185  1.0000
  C   C285      1.0  0.14237  0.90573  0.70471  1.0000
  C   C286      1.0  0.12086  0.91656  0.72575  1.0000
  C   C287      1.0  0.09995  0.94209  0.71989  1.0000
  H   H502      1.0  0.12142  0.83450  0.85000  1.0000
  H   H503      1.0  0.49805  0.89286  0.68177  1.0000
  H   H504      1.0  0.12037  0.90513  0.74671  1.0000
  H   H505      1.0  0.08365  0.95033  0.73631  1.0000
  C   C288      1.0  0.28367  0.76045  0.83398  1.0000
  C   C289      1.0  0.29171  0.78895  0.81972  1.0000
  C   C290      1.0  0.28872  0.79174  0.78946  1.0000
  C   C291      1.0  0.27781  0.76592  0.77311  1.0000
  C   C292      1.0  0.26985  0.73739  0.78735  1.0000
  C   C293      1.0  0.27243  0.73473  0.81767  1.0000
  H   H506      1.0  0.30059  0.80891  0.83215  1.0000
  H   H507      1.0  0.29540  0.81365  0.77874  1.0000
  H   H508      1.0  0.26167  0.71719  0.77485  1.0000
  H   H509      1.0  0.26627  0.71264  0.82835  1.0000
  C   C294      1.0  0.35595  0.62619  0.96741  1.0000
  C   C295      1.0  0.36216  0.62000  0.93831  1.0000
  C   C296      1.0  0.39003  0.60350  0.93043  1.0000
  C   C297      1.0  0.41189  0.59305  0.95150  1.0000
  C   C298      1.0  0.40594  0.59971  0.98061  1.0000
  C   C299      1.0  0.37809  0.61628  0.98849  1.0000
  H   H510      1.0  0.34532  0.62752  0.92189  1.0000
  H   H511      1.0  0.39446  0.59845  0.90786  1.0000
  H   H512      1.0  0.16865  0.70053  0.97496  1.0000
  H   H513      1.0  0.15759  0.85996  0.81540  1.0000
  C   C300      1.0  0.15246  0.61602  0.90024  1.0000
  C   C301      1.0  0.12781  0.60940  0.88052  1.0000
  C   C302      1.0  0.10122  0.59127  0.88888  1.0000
  C   C303      1.0  0.09922  0.57926  0.91699  1.0000
  C   C304      1.0  0.12377  0.58608  0.93682  1.0000
  C   C305      1.0  0.15040  0.60423  0.92845  1.0000
  H   H514      1.0  0.12930  0.61834  0.85861  1.0000
  H   H515      1.0  0.08228  0.58654  0.87357  1.0000
  H   H516      1.0  0.12243  0.57673  0.95860  1.0000
  H   H517      1.0  0.16963  0.60852  0.94356  1.0000
  H   H518      1.0  0.17662  0.78787  0.73718  1.0000
  H   H519      1.0  0.14042  0.73676  0.94621  1.0000
  H   H520      1.0  0.37981  0.53914  0.96216  1.0000
  H   H521      1.0  0.05704  0.89238  0.69976  1.0000
  H   H522      1.0  0.17402  0.55185  0.87725  1.0000
  H   H523      1.0  0.10680  0.65417  0.93818  1.0000
  C   C306      1.0  0.12905  0.70591  0.91075  1.0000
  C   C307      1.0  0.03933  0.88411  0.75917  1.0000
  C   C308      1.0  0.40742  0.91436  0.69254  1.0000
  C   C309      1.0  0.01752  0.84611  0.70689  1.0000
  H   H524      1.0  0.05823  0.89936  0.75003  1.0000
  H   H525      1.0  0.10575  0.56014  0.82870  1.0000
  H   H526      1.0  0.28084  0.77183  0.99915  1.0000
  H   H527      1.0  0.33792  0.75290  0.00100  1.0000
  C   C310      1.0  0.36606  0.51659  0.96127  1.0000
  H   H528      1.0  0.31725  0.56179  0.96108  1.0000
  H   H529      1.0  0.09921  0.73380  0.93874  1.0000
  C   C311      1.0  0.15067  0.68145  0.97136  1.0000
  H   H530      1.0  0.41689  0.52611  0.99693  1.0000
  H   H531      1.0  0.20031  0.87180  0.76777  1.0000
  H   H532      1.0  0.03319  0.92586  0.70837  1.0000
  N   N22       1.0  0.11817  0.69505  0.96500  1.0000
  C   C312      1.0  0.06232  0.67766  0.94788  1.0000
  H   H533      1.0  0.22993  0.80272  0.85374  1.0000
  N   N23       1.0  0.35109  0.50917  0.99008  1.0000
  H   H534      1.0  0.42320  0.89756  0.70310  1.0000
  H   H535      1.0  0.30993  0.70545  0.00608  1.0000
  C   C313      1.0  0.20843  0.78783  0.85067  1.0000
  H   H536      1.0  0.10718  0.52816  0.87078  1.0000
  C   C314      1.0  0.21292  0.87226  0.78882  1.0000
  H   H537      1.0  0.42269  0.59194  0.99699  1.0000
  C   C315      1.0  0.12129  0.71927  0.94101  1.0000
  H   H538      1.0  0.21530  0.76317  0.85696  1.0000
  H   H539      1.0  0.29844  0.57446  0.99338  1.0000
  C   C316      1.0  0.12285  0.53992  0.82801  1.0000
  H   H540      1.0  0.14633  0.53201  0.90092  1.0000
  C   C317      1.0  0.21754  0.83866  0.80182  1.0000
  C   C318      1.0  0.16555  0.83732  0.82575  1.0000
  C   C319      1.0  0.17094  0.81371  0.77762  1.0000
  C   C320      1.0  0.13466  0.81973  0.83413  1.0000
  H   H541      1.0  0.13236  0.72611  0.89551  1.0000
  H   H542      1.0  0.18972  0.79547  0.86597  1.0000
  N   N24       1.0  0.18769  0.81930  0.80608  1.0000
  H   H543      1.0  0.23035  0.84216  0.82263  1.0000
  H   H544      1.0  0.23463  0.82583  0.78773  1.0000
  C   C321      1.0  0.19685  0.78745  0.81892  1.0000
  C   C322      1.0  0.19197  0.80042  0.75312  1.0000
  H   H545      1.0  0.23670  0.88291  0.78481  1.0000
  H   H546      1.0  0.20306  0.82016  0.74089  1.0000
  C   C323      1.0  0.03258  0.90235  0.69715  1.0000
  H   H547      1.0  0.21030  0.78317  0.76028  1.0000
  C   C324      1.0  0.35375  0.93002  0.67840  1.0000
  H   H548      1.0  0.20048  0.88853  0.80391  1.0000
  C   C325      1.0  0.09654  0.66802  0.95640  1.0000
  N   N25       1.0  0.00815  0.88052  0.71073  1.0000
  Fe  Fe47      1.0  0.21369  0.85888  0.69194  1.0000
  H   H549      1.0  0.17686  0.77013  0.81743  1.0000
  H   H550      1.0  0.06170  0.69476  0.92961  1.0000
  S   S93       1.0  0.20915  0.75545  0.98857  1.0000
  H   H551      1.0  0.18342  0.50910  0.84829  1.0000
  C   C326      1.0  0.37455  0.90768  0.69072  1.0000
  Fe  Fe48      1.0  0.28352  0.87865  0.68333  1.0000
  H   H552      1.0  0.04749  0.85900  0.76014  1.0000
  H   H553      1.0  0.16001  0.66860  0.95217  1.0000
  S   S94       1.0  0.46093  0.95138  0.68495  1.0000
  H   H554      1.0  0.10958  0.69099  0.90186  1.0000
  H   H555      1.0  0.04237  0.84217  0.71456  1.0000
  H   H556      1.0  0.14693  0.54975  0.83194  1.0000
  S   S95       1.0  0.07135  0.98619  0.68334  1.0000
  C   C327      1.0  0.16845  0.52910  0.88846  1.0000
  H   H557      1.0  0.09434  0.65043  0.97433  1.0000
  H   H558      1.0  0.34744  0.52176  0.94474  1.0000
  H   H559      1.0  0.18786  0.52585  0.90458  1.0000
  H   H560      1.0  0.09537  0.69422  0.00723  1.0000
  H   H561      1.0  0.08308  0.72588  0.98494  1.0000
  H   H562      1.0  0.13661  0.75337  0.99241  1.0000
  H   H563      1.0  0.30959  0.80236  0.99405  1.0000
  C   C328      1.0  0.15269  0.65735  0.99663  1.0000
  C   C329      1.0  0.11321  0.51498  0.85088  1.0000
  C   C330      1.0  0.10446  0.71163  0.99109  1.0000
  H   H564      1.0  0.17661  0.65887  0.00689  1.0000
  S   S96       1.0  0.22375  0.80806  0.67872  1.0000
  H   H565      1.0  0.35321  0.55878  0.00335  1.0000
  H   H566      1.0  0.37347  0.62104  0.01106  1.0000
  C   C331      1.0  0.33556  0.53929  0.00113  1.0000
  C   C332      1.0  0.30844  0.55320  0.98228  1.0000
  C   C333      1.0  0.00745  0.88758  0.74274  1.0000
  H   H567      1.0  0.28855  0.53621  0.97914  1.0000
  C   C334      1.0  0.12712  0.73470  0.00698  1.0000
  C   C335      1.0  0.30000  0.78530  0.01019  1.0000
  H   H568      1.0  0.75321  0.20245  0.28444  1.0000
  H   H569      1.0  0.89939  0.30268  0.30078  1.0000
  Fe  Fe49      1.0  0.73635  0.20560  0.21494  1.0000
  S   S97       1.0  0.77571  0.21348  0.18284  1.0000
  S   S98       1.0  0.72219  0.24682  0.24435  1.0000
  Fe  Fe50      1.0  0.72321  0.13799  0.19317  1.0000
  S   S99       1.0  0.76264  0.14049  0.16052  1.0000
  S   S100      1.0  0.69667  0.09068  0.19394  1.0000
  Fe  Fe51      1.0  0.79133  0.16395  0.19548  1.0000
  S   S101      1.0  0.84378  0.15844  0.20660  1.0000
  Fe  Fe52      1.0  0.74395  0.18958  0.15025  1.0000
  S   S102      1.0  0.73341  0.19959  0.10257  1.0000
  S   S103      1.0  0.75370  0.15743  0.22943  1.0000
  S   S104      1.0  0.70282  0.18569  0.18114  1.0000
  H   H570      1.0  0.81038  0.03019  0.18834  1.0000
  S   S105      1.0  0.96466  0.02353  0.26538  1.0000
  S   S106      1.0  0.92759  0.03418  0.18687  1.0000
  H   H571      1.0  0.98738  0.22058  0.29767  1.0000
  S   S107      1.0  0.55051  0.08270  0.15744  1.0000
  H   H572      1.0  0.66714  0.19139  0.05362  1.0000
  C   C336      1.0  0.65562  0.08790  0.18527  1.0000
  C   C337      1.0  0.64356  0.05961  0.17317  1.0000
  C   C338      1.0  0.61130  0.05732  0.16479  1.0000
  C   C339      1.0  0.59080  0.08325  0.16885  1.0000
  C   C340      1.0  0.60278  0.11126  0.18146  1.0000
  C   C341      1.0  0.63500  0.11363  0.18959  1.0000
  H   H573      1.0  0.65933  0.03953  0.16986  1.0000
  H   H574      1.0  0.60237  0.03563  0.15510  1.0000
  H   H575      1.0  0.58704  0.13134  0.18484  1.0000
  H   H576      1.0  0.64391  0.13536  0.19925  1.0000
  C   C342      1.0  0.86588  0.12302  0.20178  1.0000
  C   C343      1.0  0.85680  0.09999  0.18156  1.0000
  C   C344      1.0  0.87640  0.07331  0.17670  1.0000
  C   C345      1.0  0.90456  0.06885  0.19274  1.0000
  C   C346      1.0  0.91334  0.09160  0.21331  1.0000
  C   C347      1.0  0.89428  0.11882  0.21749  1.0000
  H   H577      1.0  0.83504  0.10307  0.16926  1.0000
  H   H578      1.0  0.86955  0.05584  0.16065  1.0000
  H   H579      1.0  0.93501  0.08843  0.22573  1.0000
  H   H580      1.0  0.90153  0.13665  0.23305  1.0000
  C   C348      1.0  0.77613  0.27220  0.03883  1.0000
  C   C349      1.0  0.86845  0.02673  0.25759  1.0000
  C   C350      1.0  0.74072  0.22792  0.04953  1.0000
  C   C351      1.0  0.74971  0.22851  0.07883  1.0000
  C   C352      1.0  0.77148  0.25152  0.08819  1.0000
  C   C353      1.0  0.78508  0.27285  0.06817  1.0000
  C   C354      1.0  0.63785  0.50034  0.04049  1.0000
  H   H581      1.0  0.72384  0.21032  0.04203  1.0000
  H   H582      1.0  0.77757  0.25309  0.11082  1.0000
  H   H583      1.0  0.80225  0.29031  0.07548  1.0000
  H   H584      1.0  0.79542  0.29550  0.29509  1.0000
  C   C355      1.0  0.72808  0.27843  0.29602  1.0000
  C   C356      1.0  0.73407  0.24991  0.28102  1.0000
  C   C357      1.0  0.74851  0.22453  0.29572  1.0000
  S   S108      1.0  0.98542  0.46266  0.33902  1.0000
  C   C358      1.0  0.73614  0.28145  0.32547  1.0000
  H   H585      1.0  0.71710  0.29824  0.28475  1.0000
  H   H586      1.0  0.73174  0.30362  0.33661  1.0000
  H   H587      1.0  0.84957  0.04525  0.25888  1.0000
  C   C359      1.0  0.82008  0.28625  0.29362  1.0000
  H   H588      1.0  0.81763  0.26407  0.33528  1.0000
  Fe  Fe53      1.0  0.96710  0.01816  0.21734  1.0000
  S   S109      1.0  0.79493  0.29841  0.01411  1.0000
  H   H589      1.0  0.90442  0.29386  0.33858  1.0000
  H   H590      1.0  0.85636  0.26576  0.32073  1.0000
  H   H591      1.0  0.56273  0.39447  0.03199  1.0000
  C   C360      1.0  0.53801  0.40166  0.03717  1.0000
  H   H592      1.0  0.86480  0.01241  0.20100  1.0000
  C   C361      1.0  0.75359  0.24984  0.02967  1.0000
  H   H593      1.0  0.64515  0.21735  0.33092  1.0000
  H   H594      1.0  0.77889  0.36451  0.32974  1.0000
  C   C362      1.0  0.83443  0.28027  0.32379  1.0000
  C   C363      1.0  0.00016  0.24024  0.28657  1.0000
  C   C364      1.0  0.86670  0.32969  0.32854  1.0000
  C   C365      1.0  0.89889  0.31301  0.32289  1.0000
  H   H595      1.0  0.51928  0.35445  0.03906  1.0000
  C   C366      1.0  0.81739  0.02828  0.21148  1.0000
  H   H596      1.0  0.86019  0.50099  0.30629  1.0000
  H   H597      1.0  0.68686  0.21331  0.33645  1.0000
  H   H598      1.0  0.53666  0.40406  0.06106  1.0000
  H   H599      1.0  0.88748  0.03697  0.24371  1.0000
  N   N26       1.0  0.85928  0.19382  0.11936  1.0000
  C   C367      1.0  0.82454  0.18470  0.11951  1.0000
  C   C368      1.0  0.86431  0.21725  0.14373  1.0000
  C   C369      1.0  0.87841  0.16372  0.12459  1.0000
  C   C370      1.0  0.86673  0.20799  0.09020  1.0000
  C   C371      1.0  0.81433  0.15913  0.09730  1.0000
  C   C372      1.0  0.84697  0.24955  0.14070  1.0000
  C   C373      1.0  0.91180  0.16737  0.13816  1.0000
  C   C374      1.0  0.90013  0.22248  0.08626  1.0000
  H   H600      1.0  0.81769  0.17581  0.14130  1.0000
  H   H601      1.0  0.80908  0.20561  0.11521  1.0000
  H   H602      1.0  0.88976  0.22308  0.14700  1.0000
  H   H603      1.0  0.85678  0.20648  0.16463  1.0000
  H   H604      1.0  0.86553  0.14741  0.13954  1.0000
  H   H605      1.0  0.88137  0.15002  0.10416  1.0000
  H   H606      1.0  0.86464  0.18955  0.07303  1.0000
  H   H607      1.0  0.84861  0.22607  0.08352  1.0000
  H   H608      1.0  0.67284  0.24651  0.31633  1.0000
  H   H609      1.0  0.78875  0.15358  0.10057  1.0000
  H   H610      1.0  0.81633  0.16792  0.07477  1.0000
  H   H611      1.0  0.85449  0.26533  0.15874  1.0000
  H   H612      1.0  0.98228  0.25159  0.27205  1.0000
  H   H613      1.0  0.65785  0.48553  0.04860  1.0000
  H   H614      1.0  0.92407  0.14387  0.13773  1.0000
  H   H615      1.0  0.91008  0.17423  0.16132  1.0000
  H   H616      1.0  0.92693  0.18455  0.12644  1.0000
  H   H617      1.0  0.91754  0.20394  0.07963  1.0000
  H   H618      1.0  0.90916  0.23515  0.10552  1.0000
  H   H619      1.0  0.89895  0.24104  0.06910  1.0000
  N   N27       1.0  0.65472  0.14057  0.09744  1.0000
  C   C375      1.0  0.67884  0.12971  0.11964  1.0000
  C   C376      1.0  0.64351  0.17343  0.10613  1.0000
  C   C377      1.0  0.67135  0.14170  0.06842  1.0000
  C   C378      1.0  0.62788  0.11672  0.09717  1.0000
  C   C379      1.0  0.69445  0.09691  0.11409  1.0000
  C   C380      1.0  0.62568  0.17589  0.13515  1.0000
  C   C381      1.0  0.66010  0.16711  0.04642  1.0000
  C   C382      1.0  0.59872  0.12526  0.07851  1.0000
  H   H620      1.0  0.69833  0.14743  0.12183  1.0000
  H   H621      1.0  0.66813  0.12814  0.14135  1.0000
  H   H622      1.0  0.62703  0.18374  0.08982  1.0000
  H   H623      1.0  0.66411  0.19014  0.10719  1.0000
  H   H624      1.0  0.69730  0.14668  0.07120  1.0000
  H   H625      1.0  0.67019  0.11810  0.05745  1.0000
  H   H626      1.0  0.63623  0.09309  0.08934  1.0000
  H   H627      1.0  0.61923  0.11232  0.11953  1.0000
  H   H628      1.0  0.70569  0.09525  0.09252  1.0000
  H   H629      1.0  0.58175  0.28287  0.32273  1.0000
  H   H630      1.0  0.67722  0.07716  0.11703  1.0000
  H   H631      1.0  0.60409  0.16075  0.13570  1.0000
  H   H632      1.0  0.64120  0.17036  0.15386  1.0000
  H   H633      1.0  0.61762  0.20090  0.13816  1.0000
  H   H634      1.0  0.85890  0.33917  0.30726  1.0000
  H   H635      1.0  0.81830  0.26312  0.28200  1.0000
  C   C383      1.0  0.66725  0.23107  0.33502  1.0000
  H   H636      1.0  0.58738  0.14789  0.08531  1.0000
  H   H637      1.0  0.58049  0.10630  0.08122  1.0000
  H   H638      1.0  0.60478  0.12606  0.05527  1.0000
  H   H639      1.0  0.63417  0.16660  0.04238  1.0000
  H   H640      1.0  0.61599  0.25938  0.31267  1.0000
  H   H641      1.0  0.83497  0.30222  0.28024  1.0000
  C   C384      1.0  0.75626  0.22746  0.32527  1.0000
  H   H642      1.0  0.89455  0.04654  0.29410  1.0000
  C   C385      1.0  0.80316  0.35523  0.32519  1.0000
  H   H643      1.0  0.80356  0.34766  0.30232  1.0000
  H   H644      1.0  0.65260  0.29396  0.32159  1.0000
  C   C386      1.0  0.59711  0.26238  0.32897  1.0000
  H   H645      1.0  0.82486  0.05256  0.21806  1.0000
  H   H646      1.0  0.53297  0.42561  0.02822  1.0000
  H   H647      1.0  0.61610  0.49234  0.05201  1.0000
  H   H648      1.0  0.85291  0.26204  0.12030  1.0000
  H   H649      1.0  0.82087  0.24696  0.14265  1.0000
  H   H650      1.0  0.71359  0.09306  0.13038  1.0000
  H   H651      1.0  0.82755  0.13642  0.09998  1.0000
  C   C387      1.0  0.88216  0.02395  0.28856  1.0000
  H   H652      1.0  0.63882  0.34823  0.32575  1.0000
  H   H653      1.0  0.67216  0.16291  0.02543  1.0000
  Fe  Fe54      1.0  0.52230  0.04165  0.13784  1.0000
  H   H654      1.0  0.79579  0.02108  0.22350  1.0000
  H   H655      1.0  0.86300  0.02069  0.30472  1.0000
  S   S110      1.0  0.51538  0.03896  0.08947  1.0000
  H   H656      1.0  0.69837  0.50151  0.01846  1.0000
  H   H657      1.0  0.58164  0.24099  0.32726  1.0000
  N   N28       1.0  0.84120  0.30934  0.34200  1.0000
  H   H658      1.0  0.81979  0.37551  0.32827  1.0000
  H   H659      1.0  0.91847  0.33065  0.32510  1.0000
  C   C388      1.0  0.51321  0.37678  0.02725  1.0000
  H   H660      1.0  0.76698  0.20750  0.33654  1.0000
  C   C389      1.0  0.74992  0.25582  0.34033  1.0000
  H   H661      1.0  0.87093  0.35176  0.34141  1.0000
  H   H662      1.0  0.80950  0.50632  0.33055  1.0000
  H   H663      1.0  0.90239  0.49697  0.30315  1.0000
  H   H664      1.0  0.82941  0.46832  0.33557  1.0000
  C   C390      1.0  0.65258  0.30242  0.34423  1.0000
  H   H665      1.0  0.67341  0.44553  0.01364  1.0000
  H   H666      1.0  0.00691  0.25843  0.30267  1.0000
  H   H667      1.0  0.60686  0.32901  0.34438  1.0000
  Fe  Fe55      1.0  0.77576  0.37006  0.41376  1.0000
  S   S111      1.0  0.73511  0.34915  0.38797  1.0000
  S   S112      1.0  0.80709  0.40386  0.38770  1.0000
  Fe  Fe56      1.0  0.76049  0.32888  0.46692  1.0000
  S   S113      1.0  0.72001  0.30426  0.44448  1.0000
  Fe  Fe57      1.0  0.75179  0.30228  0.40539  1.0000
  S   S114      1.0  0.75940  0.25812  0.37767  1.0000
  Fe  Fe58      1.0  0.70655  0.35346  0.42885  1.0000
  S   S115      1.0  0.65331  0.36379  0.42912  1.0000
  S   S116      1.0  0.79382  0.32265  0.42928  1.0000
  S   S117      1.0  0.74550  0.37853  0.45330  1.0000
  S   S118      1.0  0.59201  0.49905  0.45709  1.0000
  H   H668      1.0  0.59177  0.28287  0.37105  1.0000
  Fe  Fe59      1.0  0.98444  0.46509  0.38757  1.0000
  H   H669      1.0  0.88251  0.22186  0.58161  1.0000
  S   S119      1.0  0.95118  0.43732  0.41703  1.0000
  H   H670      1.0  0.83809  0.15039  0.60944  1.0000
  S   S120      1.0  0.51939  0.04655  0.59993  1.0000
  C   C391      1.0  0.63669  0.40192  0.43554  1.0000
  C   C392      1.0  0.65573  0.42895  0.43908  1.0000
  C   C393      1.0  0.64157  0.45876  0.44469  1.0000
  C   C394      1.0  0.60837  0.46167  0.44751  1.0000
  C   C395      1.0  0.58932  0.43465  0.44386  1.0000
  C   C396      1.0  0.60343  0.40499  0.43753  1.0000
  H   H671      1.0  0.68134  0.42691  0.43745  1.0000
  H   H672      1.0  0.65646  0.47956  0.44750  1.0000
  H   H673      1.0  0.56373  0.43668  0.44575  1.0000
  H   H674      1.0  0.58850  0.38425  0.43459  1.0000
  C   C397      1.0  0.84790  0.40974  0.39566  1.0000
  C   C398      1.0  0.86858  0.41924  0.37344  1.0000
  C   C399      1.0  0.90055  0.42697  0.37952  1.0000
  C   C400      1.0  0.91201  0.42540  0.40790  1.0000
  C   C401      1.0  0.89167  0.41460  0.42987  1.0000
  C   C402      1.0  0.85976  0.40673  0.42379  1.0000
  H   H675      1.0  0.63819  0.08379  0.63300  1.0000
  Fe  Fe60      1.0  0.52427  0.04902  0.64831  1.0000
  H   H676      1.0  0.90046  0.41301  0.45185  1.0000
  H   H677      1.0  0.84412  0.39932  0.44107  1.0000
  S   S121      1.0  0.77619  0.32068  0.51364  1.0000
  H   H678      1.0  0.86019  0.24159  0.54222  1.0000
  S   S122      1.0  0.75891  0.15143  0.65320  1.0000
  Fe  Fe61      1.0  0.74091  0.20118  0.64475  1.0000
  S   S123      1.0  0.72745  0.21056  0.59768  1.0000
  H   H679      1.0  0.65965  0.23081  0.38015  1.0000
  H   H680      1.0  0.78267  0.31145  0.57485  1.0000
  N   N29       1.0  0.64249  0.27691  0.36532  1.0000
  C   C403      1.0  0.65289  0.07125  0.61671  1.0000
  C   C404      1.0  0.61380  0.08293  0.57919  1.0000
  H   H681      1.0  0.61667  0.46785  0.56056  1.0000
  H   H682      1.0  0.64963  0.15241  0.67654  1.0000
  H   H683      1.0  0.66894  0.30265  0.39827  1.0000
  C   C405      1.0  0.76107  0.29074  0.53692  1.0000
  C   C406      1.0  0.74281  0.26536  0.52647  1.0000
  C   C407      1.0  0.73252  0.24122  0.54546  1.0000
  C   C408      1.0  0.74028  0.24218  0.57505  1.0000
  C   C409      1.0  0.75826  0.26773  0.58559  1.0000
  C   C410      1.0  0.76861  0.29186  0.56658  1.0000
  H   H684      1.0  0.73691  0.26417  0.50372  1.0000
  H   H685      1.0  0.71854  0.22161  0.53713  1.0000
  H   H686      1.0  0.76412  0.26897  0.60835  1.0000
  H   H687      1.0  0.84700  0.47997  0.38243  1.0000
  C   C411      1.0  0.64519  0.29126  0.39518  1.0000
  H   H688      1.0  0.63309  0.35414  0.56559  1.0000
  H   H689      1.0  0.81031  0.33946  0.36824  1.0000
  H   H690      1.0  0.78949  0.14891  0.55984  1.0000
  H   H691      1.0  0.91751  0.19019  0.60952  1.0000
  Fe  Fe62      1.0  0.54302  0.50604  0.47691  1.0000
  H   H692      1.0  0.83096  0.28664  0.38302  1.0000
  C   C412      1.0  0.82402  0.21216  0.60754  1.0000
  C   C413      1.0  0.82577  0.20360  0.55426  1.0000
  H   H693      1.0  0.78003  0.16587  0.59464  1.0000
  C   C414      1.0  0.59134  0.07344  0.55428  1.0000
  C   C415      1.0  0.83641  0.50131  0.37191  1.0000
  H   H694      1.0  0.82402  0.25671  0.63158  1.0000
  C   C416      1.0  0.86812  0.32113  0.39138  1.0000
  C   C417      1.0  0.85175  0.29678  0.37118  1.0000
  H   H695      1.0  0.83346  0.18661  0.53712  1.0000
  H   H696      1.0  0.67775  0.30936  0.34844  1.0000
  H   H697      1.0  0.85429  0.34344  0.39359  1.0000
  H   H698      1.0  0.87056  0.31063  0.41334  1.0000
  H   H699      1.0  0.89245  0.32707  0.38386  1.0000
  H   H700      1.0  0.62436  0.48861  0.52764  1.0000
  H   H701      1.0  0.59943  0.09653  0.59530  1.0000
  H   H702      1.0  0.66659  0.05279  0.62879  1.0000
  C   C418      1.0  0.89251  0.18162  0.60898  1.0000
  H   H703      1.0  0.88012  0.49066  0.41819  1.0000
  H   H704      1.0  0.63262  0.01717  0.64863  1.0000
  H   H705      1.0  0.57803  0.09495  0.54702  1.0000
  N   N30       1.0  0.60735  0.40692  0.53372  1.0000
  C   C419      1.0  0.64107  0.39422  0.53511  1.0000
  C   C420      1.0  0.60938  0.43977  0.52052  1.0000
  C   C421      1.0  0.58858  0.38526  0.51398  1.0000
  C   C422      1.0  0.59370  0.40700  0.56383  1.0000
  C   C423      1.0  0.64509  0.35919  0.54481  1.0000
  C   C424      1.0  0.62690  0.46515  0.53867  1.0000
  H   H706      1.0  0.69001  0.25758  0.36929  1.0000
  C   C425      1.0  0.56372  0.42777  0.56901  1.0000
  H   H707      1.0  0.65289  0.39628  0.51358  1.0000
  H   H708      1.0  0.65585  0.40856  0.55027  1.0000
  H   H709      1.0  0.58586  0.44994  0.51502  1.0000
  H   H710      1.0  0.62184  0.43844  0.49945  1.0000
  H   H711      1.0  0.60095  0.38282  0.49285  1.0000
  H   H712      1.0  0.58721  0.36079  0.52314  1.0000
  H   H713      1.0  0.58759  0.38228  0.57061  1.0000
  H   H714      1.0  0.61199  0.41507  0.57973  1.0000
  H   H715      1.0  0.63683  0.34233  0.52789  1.0000
  H   H716      1.0  0.67087  0.35417  0.54804  1.0000
  C   C426      1.0  0.83424  0.23725  0.54347  1.0000
  C   C427      1.0  0.66553  0.24933  0.36384  1.0000
  H   H717      1.0  0.65279  0.46026  0.54021  1.0000
  H   H718      1.0  0.62739  0.31067  0.39806  1.0000
  C   C428      1.0  0.63282  0.33348  0.34493  1.0000
  C   C429      1.0  0.81664  0.48806  0.34653  1.0000
  H   H719      1.0  0.54421  0.41282  0.57787  1.0000
  H   H720      1.0  0.55396  0.43974  0.54969  1.0000
  H   H721      1.0  0.82469  0.24021  0.52116  1.0000
  H   H722      1.0  0.84436  0.26018  0.59817  1.0000
  C   C430      1.0  0.83998  0.24387  0.61643  1.0000
  H   H723      1.0  0.66308  0.05479  0.55696  1.0000
  C   C431      1.0  0.67782  0.09554  0.60602  1.0000
  H   H724      1.0  0.60489  0.06477  0.53530  1.0000
  C   C432      1.0  0.60829  0.03528  0.60966  1.0000
  S   S124      1.0  0.77779  0.22434  0.67296  1.0000
  H   H725      1.0  0.86264  0.23971  0.62822  1.0000
  H   H726      1.0  0.69430  0.10117  0.62420  1.0000
  H   H727      1.0  0.91631  0.43438  0.36236  1.0000
  H   H728      1.0  0.66668  0.11856  0.59975  1.0000
  H   H729      1.0  0.61816  0.25416  0.41878  1.0000
  C   C433      1.0  0.87495  0.19656  0.58285  1.0000
  H   H730      1.0  0.79871  0.21753  0.60241  1.0000
  N   N31       1.0  0.63174  0.05627  0.59398  1.0000
  C   C434      1.0  0.55370  0.39446  0.50751  1.0000
  H   H731      1.0  0.66111  0.25253  0.42415  1.0000
  H   H732      1.0  0.57327  0.05569  0.56072  1.0000
  N   N32       1.0  0.83919  0.19351  0.58324  1.0000
  H   H733      1.0  0.82291  0.19771  0.62772  1.0000
  H   H734      1.0  0.79213  0.12507  0.59182  1.0000
  C   C435      1.0  0.65229  0.03812  0.57290  1.0000
  H   H735      1.0  0.53850  0.39220  0.52692  1.0000
  H   H736      1.0  0.59323  0.04983  0.62447  1.0000
  H   H737      1.0  0.89342  0.15522  0.60725  1.0000
  C   C436      1.0  0.83142  0.15859  0.58727  1.0000
  H   H738      1.0  0.84553  0.14355  0.57211  1.0000
  C   C437      1.0  0.79615  0.14942  0.58308  1.0000
  H   H739      1.0  0.79924  0.20287  0.55436  1.0000
  H   H740      1.0  0.69250  0.08617  0.58808  1.0000
  H   H741      1.0  0.64666  0.00977  0.53370  1.0000
  H   H742      1.0  0.82231  0.25584  0.55640  1.0000
  S   S125      1.0  0.54979  0.09349  0.66449  1.0000
  H   H743      1.0  0.63812  0.28280  0.44102  1.0000
  H   H744      1.0  0.56873  0.44644  0.58542  1.0000
  H   H745      1.0  0.54392  0.37742  0.49140  1.0000
  H   H746      1.0  0.88133  0.18806  0.62981  1.0000
  H   H747      1.0  0.63044  0.10041  0.56942  1.0000
  H   H748      1.0  0.88481  0.18521  0.56301  1.0000
  H   H749      1.0  0.59095  0.02419  0.59476  1.0000
  H   H750      1.0  0.67264  0.02683  0.58462  1.0000
  C   C438      1.0  0.60577  0.12607  0.67159  1.0000
  C   C439      1.0  0.64022  0.26841  0.42094  1.0000
  H   H751      1.0  0.86830  0.27615  0.36914  1.0000
  C   C440      1.0  0.63616  0.01081  0.55568  1.0000
  H   H752      1.0  0.60472  0.24258  0.37171  1.0000
  H   H753      1.0  0.55088  0.41839  0.49773  1.0000
  H   H754      1.0  0.91529  0.49912  0.39707  1.0000
  H   H755      1.0  0.63880  0.34807  0.36424  1.0000
  C   C441      1.0  0.60865  0.26586  0.36069  1.0000
  H   H756      1.0  0.59275  0.14627  0.66298  1.0000
  H   H757      1.0  0.91232  0.14703  0.67612  1.0000
  H   H758      1.0  0.89171  0.48511  0.35264  1.0000
  H   H759      1.0  0.79384  0.47858  0.35508  1.0000
  H   H760      1.0  0.61018  0.01306  0.55257  1.0000
  C   C442      1.0  0.59038  0.09651  0.67450  1.0000
  S   S126      1.0  0.53967  0.50510  0.52534  1.0000
  H   H761      1.0  0.85976  0.42108  0.35152  1.0000
  C   C443      1.0  0.81075  0.32801  0.34667  1.0000
  H   H762      1.0  0.78990  0.31181  0.34728  1.0000
  Fe  Fe63      1.0  0.78164  0.36011  0.92053  1.0000
  S   S127      1.0  0.73377  0.34829  0.90082  1.0000
  S   S128      1.0  0.81217  0.39398  0.89386  1.0000
  Fe  Fe64      1.0  0.77206  0.31350  0.97138  1.0000
  S   S129      1.0  0.72464  0.29745  0.95449  1.0000
  Fe  Fe65      1.0  0.74733  0.29738  0.91020  1.0000
  S   S130      1.0  0.74486  0.25504  0.87903  1.0000
  Fe  Fe66      1.0  0.71521  0.34973  0.94658  1.0000
  S   S131      1.0  0.67239  0.37161  0.96938  1.0000
  S   S132      1.0  0.79589  0.30916  0.92802  1.0000
  S   S133      1.0  0.76204  0.36585  0.96526  1.0000
  H   H763      1.0  0.61018  0.19333  0.77819  1.0000
  S   S134      1.0  0.55734  0.46014  0.92953  1.0000
  Fe  Fe67      1.0  0.74338  0.21788  0.70977  1.0000
  H   H764      1.0  0.63604  0.20981  0.71894  1.0000
  S   S135      1.0  0.73301  0.25815  0.74145  1.0000
  H   H765      1.0  0.82784  0.46961  0.94987  1.0000
  C   C444      1.0  0.81610  0.31223  0.85057  1.0000
  C   C445      1.0  0.95435  0.15255  0.81292  1.0000
  H   H766      1.0  0.96696  0.12745  0.73234  1.0000
  S   S136      1.0  0.76203  0.16962  0.72226  1.0000
  C   C446      1.0  0.66066  0.22028  0.80781  1.0000
  Fe  Fe68      1.0  0.96445  0.02698  0.71983  1.0000
  S   S137      1.0  0.96891  0.03288  0.76777  1.0000
  H   H767      1.0  0.90860  0.09384  0.81372  1.0000
  Fe  Fe69      1.0  0.97718  0.48120  0.89956  1.0000
  S   S138      1.0  0.96965  0.48376  0.85172  1.0000
  S   S139      1.0  0.94727  0.45049  0.92958  1.0000
  H   H768      1.0  0.81501  0.26872  0.87606  1.0000
  C   C447      1.0  0.65092  0.21568  0.73811  1.0000
  H   H769      1.0  0.85982  0.35392  0.86328  1.0000
  N   N33       1.0  0.51094  0.37095  0.99506  1.0000
  C   C448      1.0  0.66903  0.18571  0.74899  1.0000
  C   C449      1.0  0.54411  0.34560  0.95362  1.0000
  C   C450      1.0  0.84345  0.49075  0.94693  1.0000
  C   C451      1.0  0.66946  0.18508  0.80279  1.0000
  H   H770      1.0  0.86772  0.48285  0.95328  1.0000
  C   C452      1.0  0.92045  0.10878  0.76921  1.0000
  N   N34       1.0  0.65900  0.50724  0.98833  1.0000
  H   H771      1.0  0.84022  0.18250  0.75726  1.0000
  H   H772      1.0  0.61247  0.15987  0.73042  1.0000
  H   H773      1.0  0.91051  0.06233  0.78795  1.0000
  C   C453      1.0  0.86311  0.07257  0.69674  1.0000
  C   C454      1.0  0.74172  0.25655  0.84078  1.0000
  C   C455      1.0  0.74984  0.22937  0.82455  1.0000
  C   C456      1.0  0.74752  0.22946  0.79412  1.0000
  C   C457      1.0  0.73661  0.25668  0.77963  1.0000
  C   C458      1.0  0.72817  0.28372  0.79587  1.0000
  C   C459      1.0  0.73084  0.28374  0.82626  1.0000
  H   H774      1.0  0.75816  0.20819  0.83563  1.0000
  H   H775      1.0  0.75412  0.20851  0.78192  1.0000
  H   H776      1.0  0.71951  0.30481  0.78486  1.0000
  H   H777      1.0  0.72413  0.30467  0.83849  1.0000
  C   C460      1.0  0.64071  0.39583  0.95710  1.0000
  C   C461      1.0  0.63549  0.40266  0.92786  1.0000
  C   C462      1.0  0.60963  0.42216  0.91956  1.0000
  C   C463      1.0  0.58929  0.43539  0.94044  1.0000
  C   C464      1.0  0.59477  0.42868  0.96961  1.0000
  C   C465      1.0  0.62013  0.40877  0.97785  1.0000
  H   H778      1.0  0.65118  0.39271  0.91169  1.0000
  H   H779      1.0  0.60551  0.42721  0.89690  1.0000
  H   H780      1.0  0.57951  0.43876  0.98591  1.0000
  H   H781      1.0  0.91621  0.18341  0.80119  1.0000
  C   C466      1.0  0.85068  0.40710  0.90389  1.0000
  C   C467      1.0  0.86972  0.42202  0.88296  1.0000
  C   C468      1.0  0.89970  0.43466  0.89034  1.0000
  C   C469      1.0  0.91084  0.43271  0.91883  1.0000
  C   C470      1.0  0.89210  0.41710  0.93960  1.0000
  C   C471      1.0  0.86217  0.40426  0.93218  1.0000
  H   H782      1.0  0.86102  0.42432  0.86103  1.0000
  H   H783      1.0  0.91403  0.44624  0.87409  1.0000
  H   H784      1.0  0.90061  0.41529  0.96166  1.0000
  H   H785      1.0  0.84778  0.39273  0.94847  1.0000
  H   H786      1.0  0.69592  0.18473  0.80282  1.0000
  C   C472      1.0  0.87818  0.14826  0.76524  1.0000
  N   N35       1.0  0.83451  0.33067  0.82817  1.0000
  C   C473      1.0  0.86502  0.34159  0.84247  1.0000
  C   C474      1.0  0.81610  0.36002  0.81887  1.0000
  C   C475      1.0  0.84319  0.31057  0.80234  1.0000
  C   C476      1.0  0.88615  0.36425  0.82453  1.0000
  C   C477      1.0  0.77969  0.35677  0.81569  1.0000
  C   C478      1.0  0.81584  0.29311  0.78666  1.0000
  H   H787      1.0  0.88045  0.32097  0.84829  1.0000
  H   H788      1.0  0.79217  0.30524  0.84282  1.0000
  H   H789      1.0  0.81961  0.37979  0.83462  1.0000
  H   H790      1.0  0.82519  0.36933  0.79792  1.0000
  H   H791      1.0  0.85471  0.32551  0.78549  1.0000
  H   H792      1.0  0.86193  0.29271  0.80778  1.0000
  H   H793      1.0  0.89562  0.35250  0.80491  1.0000
  H   H794      1.0  0.87369  0.38663  0.81853  1.0000
  H   H795      1.0  0.90703  0.37132  0.83792  1.0000
  H   H796      1.0  0.77260  0.33670  0.80166  1.0000
  H   H797      1.0  0.76995  0.37889  0.80581  1.0000
  H   H798      1.0  0.76817  0.35433  0.83717  1.0000
  H   H799      1.0  0.80424  0.30872  0.77030  1.0000
  H   H800      1.0  0.79769  0.28343  0.80139  1.0000
  H   H801      1.0  0.82548  0.27178  0.77546  1.0000
  H   H802      1.0  0.66847  0.23345  0.73026  1.0000
  C   C479      1.0  0.91407  0.09711  0.68729  1.0000
  C   C480      1.0  0.84224  0.50077  0.91493  1.0000
  C   C481      1.0  0.86640  0.18289  0.76093  1.0000
  H   H803      1.0  0.66894  0.16864  0.73054  1.0000
  H   H804      1.0  0.86362  0.13831  0.78313  1.0000
  C   C482      1.0  0.60372  0.15186  0.75176  1.0000
  H   H805      1.0  0.55184  0.36610  0.94009  1.0000
  H   H806      1.0  0.84927  0.05167  0.70215  1.0000
  H   H807      1.0  0.61246  0.15741  0.79744  1.0000
  H   H808      1.0  0.54787  0.33450  0.99932  1.0000
  C   C483      1.0  0.69092  0.45554  0.99828  1.0000
  S   S140      1.0  0.84736  0.16694  0.68148  1.0000
  H   H809      1.0  0.82205  0.10373  0.69454  1.0000
  H   H810      1.0  0.62406  0.40356  0.00051  1.0000
  S   S141      1.0  0.91481  0.03274  0.70074  1.0000
  C   C484      1.0  0.66729  0.13516  0.77587  1.0000
  H   H811      1.0  0.63635  0.22821  0.75431  1.0000
  H   H812      1.0  0.87682  0.19417  0.74143  1.0000
  H   H813      1.0  0.81125  0.32772  0.86958  1.0000
  H   H814      1.0  0.69443  0.19259  0.75210  1.0000
  H   H815      1.0  0.71696  0.14420  0.76275  1.0000
  C   C485      1.0  0.83196  0.28131  0.86165  1.0000
  Fe  Fe70      1.0  0.53156  0.49157  0.96189  1.0000
  C   C486      1.0  0.86804  0.50757  0.85476  1.0000
  H   H816      1.0  0.65238  0.05433  0.70323  1.0000
  H   H817      1.0  0.87670  0.08751  0.78749  1.0000
  H   H818      1.0  0.91893  0.16056  0.72712  1.0000
  H   H819      1.0  0.67134  0.23596  0.79116  1.0000
  H   H820      1.0  0.63467  0.22429  0.80934  1.0000
  H   H821      1.0  0.67112  0.22804  0.82878  1.0000
  H   H822      1.0  0.85346  0.28627  0.87487  1.0000
  H   H823      1.0  0.83759  0.26458  0.84387  1.0000
  H   H824      1.0  0.60634  0.12558  0.75337  1.0000
  H   H825      1.0  0.71235  0.13385  0.80061  1.0000
  H   H826      1.0  0.65977  0.12288  0.75563  1.0000
  H   H827      1.0  0.87081  0.19796  0.78017  1.0000
  C   C487      1.0  0.70350  0.12952  0.77832  1.0000
  N   N36       1.0  0.91338  0.14401  0.77119  1.0000
  C   C488      1.0  0.90280  0.08740  0.79106  1.0000
  H   H828      1.0  0.57778  0.15700  0.75247  1.0000
  H   H829      1.0  0.66201  0.17148  0.82235  1.0000
  N   N37       1.0  0.65640  0.16955  0.77581  1.0000
  C   C489      1.0  0.84762  0.10198  0.69227  1.0000
  H   H830      1.0  0.65597  0.12163  0.79386  1.0000
  H   H831      1.0  0.70876  0.10417  0.77317  1.0000
  C   C490      1.0  0.62051  0.16910  0.77708  1.0000
  H   H832      1.0  0.52955  0.41503  0.97723  1.0000
  H   H833      1.0  0.95346  0.15189  0.83692  1.0000
  C   C491      1.0  0.92035  0.15723  0.80085  1.0000
  C   C492      1.0  0.65500  0.10383  0.69082  1.0000
  C   C493      1.0  0.89640  0.07010  0.69470  1.0000
  H   H834      1.0  0.74663  0.24898  0.00714  1.0000
  H   H835      1.0  0.90326  0.14811  0.81722  1.0000
  H   H836      1.0  0.93223  0.18808  0.75348  1.0000
  H   H837      1.0  0.98138  0.15283  0.76127  1.0000
  S   S142      1.0  0.69537  0.10748  0.70147  1.0000
  S   S143      1.0  0.54193  0.49074  0.00923  1.0000
  C   C494      1.0  0.93145  0.16217  0.74827  1.0000
  H   H838      1.0  0.59565  0.04786  0.68854  1.0000
  H   H839      1.0  0.96553  0.12969  0.80689  1.0000
  H   H840      1.0  0.90363  0.50169  0.90765  1.0000
  C   C495      1.0  0.96592  0.15169  0.74198  1.0000
  Fe  Fe71      1.0  0.72515  0.15114  0.69072  1.0000
  H   H841      1.0  0.91453  0.09983  0.74721  1.0000
  H   H842      1.0  0.64652  0.47137  0.95663  1.0000
  Fe  Fe72      1.0  0.79381  0.17434  0.68347  1.0000
  H   H843      1.0  0.97636  0.16811  0.72575  1.0000
  H   H844      1.0  0.81670  0.50332  0.90869  1.0000
  H   H845      1.0  0.89307  0.50080  0.85940  1.0000
  H   H846      1.0  0.87100  0.13478  0.74551  1.0000
  H   H847      1.0  0.85111  0.47966  0.90309  1.0000
  H   H848      1.0  0.56212  0.32630  0.95161  1.0000
  C   C496      1.0  0.89850  0.12632  0.68210  1.0000
  H   H849      1.0  0.94615  0.10344  0.77183  1.0000
  C   C497      1.0  0.69029  0.49236  0.99708  1.0000
  H   H850      1.0  0.97018  0.17245  0.80634  1.0000
  C   C498      1.0  0.86534  0.12902  0.68512  1.0000
  C   C499      1.0  0.54156  0.35541  0.98560  1.0000
  C   C500      1.0  0.63947  0.07438  0.69421  1.0000
  H   H851      1.0  0.71479  0.44751  0.00577  1.0000
  H   H852      1.0  0.93966  0.09533  0.68520  1.0000
  H   H853      1.0  0.56194  0.37181  0.98916  1.0000
  S   S144      1.0  0.70462  0.19916  0.68040  1.0000
  H   H854      1.0  0.68725  0.44479  0.97662  1.0000
  H   H855      1.0  0.85239  0.48636  0.85597  1.0000
  C   C501      1.0  0.65138  0.49739  0.95773  1.0000
  H   H856      1.0  0.62695  0.47069  0.00390  1.0000
  H   H857      1.0  0.52196  0.33529  0.94475  1.0000
  C   C502      1.0  0.63242  0.49620  0.00769  1.0000
  H   H858      1.0  0.70936  0.49914  0.98167  1.0000
  H   H859      1.0  0.67217  0.50101  0.94327  1.0000
  C   C503      1.0  0.63803  0.12963  0.67932  1.0000
  H   H860      1.0  0.61859  0.50386  0.92168  1.0000
  C   C504      1.0  0.60738  0.07061  0.68581  1.0000
  H   H861      1.0  0.83609  0.98197  0.20294  1.0000
  H   H862      1.0  0.53550  0.83956  0.16943  1.0000
  Fe  Fe73      1.0  0.64321  0.73884  0.07296  1.0000
  S   S145      1.0  0.64511  0.77910  0.04089  1.0000
  S   S146      1.0  0.59848  0.70861  0.07654  1.0000
  Fe  Fe74      1.0  0.70963  0.75361  0.09745  1.0000
  S   S147      1.0  0.71705  0.79419  0.06622  1.0000
  S   S148      1.0  0.74829  0.73544  0.12830  1.0000
  Fe  Fe75      1.0  0.66628  0.80781  0.07728  1.0000
  S   S149      1.0  0.65454  0.85776  0.09363  1.0000
  Fe  Fe76      1.0  0.69528  0.76226  0.03218  1.0000
  S   S150      1.0  0.66048  0.76875  0.11023  1.0000
  S   S151      1.0  0.69175  0.72040  0.06268  1.0000
  H   H863      1.0  0.56713  0.92685  0.18925  1.0000
  Fe  Fe77      1.0  0.86591  0.76999  0.30426  1.0000
  S   S152      1.0  0.84779  0.72503  0.28303  1.0000
  S   S153      1.0  0.90551  0.79681  0.28121  1.0000
  Fe  Fe78      1.0  0.79957  0.74418  0.29518  1.0000
  S   S154      1.0  0.75613  0.74974  0.26560  1.0000
  Fe  Fe79      1.0  0.84920  0.70319  0.32773  1.0000
  H   H864      1.0  0.60420  0.69553  0.16221  1.0000
  S   S155      1.0  0.81786  0.79007  0.31472  1.0000
  Fe  Fe80      1.0  0.97430  0.97075  0.26707  1.0000
  S   S156      1.0  0.93984  0.94348  0.29592  1.0000
  S   S157      1.0  0.97418  0.96505  0.21896  1.0000
  C   C505      1.0  0.81158  0.95456  0.25218  1.0000
  S   S158      1.0  0.52550  0.98839  0.14453  1.0000
  S   S159      1.0  0.53426  0.94659  0.06719  1.0000
  C   C506      1.0  0.91316  0.83820  0.28356  1.0000
  C   C507      1.0  0.94061  0.85056  0.27046  1.0000
  C   C508      1.0  0.94841  0.88307  0.27306  1.0000
  C   C509      1.0  0.92901  0.90340  0.28921  1.0000
  C   C510      1.0  0.90096  0.89127  0.30152  1.0000
  C   C511      1.0  0.89282  0.85887  0.29837  1.0000
  H   H865      1.0  0.95632  0.83478  0.25869  1.0000
  H   H866      1.0  0.97003  0.89214  0.26342  1.0000
  H   H867      1.0  0.63369  0.72196  0.20068  1.0000
  C   C512      1.0  0.68394  0.68527  0.14773  1.0000
  C   C513      1.0  0.63700  0.72973  0.17798  1.0000
  C   C514      1.0  0.92598  0.60169  0.30044  1.0000
  C   C515      1.0  0.90473  0.62616  0.30837  1.0000
  H   H868      1.0  0.93040  0.59709  0.27778  1.0000
  H   H869      1.0  0.89255  0.63993  0.29189  1.0000
  C   C516      1.0  0.74991  0.73983  0.16644  1.0000
  C   C517      1.0  0.77348  0.72325  0.18208  1.0000
  C   C518      1.0  0.77581  0.72609  0.21239  1.0000
  C   C519      1.0  0.75441  0.74547  0.22744  1.0000
  C   C520      1.0  0.73051  0.76165  0.21183  1.0000
  C   C521      1.0  0.72843  0.75912  0.18147  1.0000
  H   H870      1.0  0.78999  0.70801  0.17066  1.0000
  H   H871      1.0  0.79392  0.71300  0.22415  1.0000
  H   H872      1.0  0.71375  0.77660  0.22327  1.0000
  H   H873      1.0  0.71037  0.77226  0.16969  1.0000
  C   C522      1.0  0.62070  0.88180  0.08595  1.0000
  C   C523      1.0  0.59805  0.87328  0.06509  1.0000
  C   C524      1.0  0.57181  0.89346  0.05949  1.0000
  C   C525      1.0  0.56773  0.92208  0.07491  1.0000
  C   C526      1.0  0.59022  0.93043  0.09593  1.0000
  C   C527      1.0  0.61662  0.91046  0.10130  1.0000
  H   H874      1.0  0.60098  0.85140  0.05303  1.0000
  H   H875      1.0  0.55461  0.88688  0.04309  1.0000
  H   H876      1.0  0.58757  0.95253  0.10773  1.0000
  H   H877      1.0  0.63410  0.91733  0.11736  1.0000
  C   C528      1.0  0.55180  0.85278  0.12687  1.0000
  C   C529      1.0  0.61808  0.62116  0.04259  1.0000
  C   C530      1.0  0.62175  0.65203  0.05402  1.0000
  C   C531      1.0  0.59494  0.67025  0.06097  1.0000
  H   H878      1.0  0.87114  0.84970  0.30767  1.0000
  H   H879      1.0  0.63896  0.60710  0.03762  1.0000
  C   C532      1.0  0.56082  0.62672  0.04417  1.0000
  H   H880      1.0  0.64531  0.66162  0.05761  1.0000
  H   H881      1.0  0.69438  0.70164  0.16384  1.0000
  C   C533      1.0  0.94067  0.58244  0.32152  1.0000
  C   C534      1.0  0.89789  0.63145  0.33752  1.0000
  H   H882      1.0  0.88559  0.53584  0.30482  1.0000
  H   H883      1.0  0.90360  0.93078  0.22289  1.0000
  H   H884      1.0  0.54404  0.84293  0.10570  1.0000
  H   H885      1.0  0.86209  0.93537  0.21527  1.0000
  S   S160      1.0  0.58462  0.56902  0.02411  1.0000
  C   C535      1.0  0.82940  0.98413  0.26332  1.0000
  H   H886      1.0  0.56129  0.87691  0.12353  1.0000
  N   N38       1.0  0.84124  0.80482  0.20294  1.0000
  C   C536      1.0  0.86974  0.81357  0.18491  1.0000
  C   C537      1.0  0.81285  0.80060  0.18323  1.0000
  C   C538      1.0  0.84691  0.77405  0.21907  1.0000
  C   C539      1.0  0.83557  0.83096  0.22472  1.0000
  C   C540      1.0  0.90161  0.81648  0.20148  1.0000
  C   C541      1.0  0.80178  0.83053  0.16657  1.0000
  C   C542      1.0  0.85832  0.74549  0.20077  1.0000
  C   C543      1.0  0.80368  0.82921  0.24129  1.0000
  H   H887      1.0  0.87306  0.79632  0.16688  1.0000
  H   H888      1.0  0.86605  0.83704  0.17419  1.0000
  H   H889      1.0  0.79199  0.79146  0.19534  1.0000
  H   H890      1.0  0.81766  0.78221  0.16649  1.0000
  H   H891      1.0  0.86452  0.77734  0.23676  1.0000
  H   H892      1.0  0.82497  0.76616  0.23027  1.0000
  H   H893      1.0  0.85491  0.83120  0.24130  1.0000
  H   H894      1.0  0.83651  0.85466  0.21391  1.0000
  H   H895      1.0  0.90119  0.83640  0.21723  1.0000
  H   H896      1.0  0.90847  0.79418  0.21279  1.0000
  H   H897      1.0  0.92089  0.82184  0.18586  1.0000
  H   H898      1.0  0.77984  0.82446  0.15420  1.0000
  H   H899      1.0  0.79554  0.85056  0.18105  1.0000
  H   H900      1.0  0.81965  0.83835  0.15050  1.0000
  H   H901      1.0  0.88233  0.74945  0.19160  1.0000
  H   H902      1.0  0.84141  0.73936  0.18325  1.0000
  H   H903      1.0  0.86018  0.72418  0.21497  1.0000
  H   H904      1.0  0.80748  0.83783  0.26374  1.0000
  H   H905      1.0  0.79350  0.80501  0.24308  1.0000
  H   H906      1.0  0.78581  0.84563  0.23164  1.0000
  H   H907      1.0  0.68310  0.69960  0.12743  1.0000
  H   H908      1.0  0.54362  0.67130  0.06150  1.0000
  Fe  Fe81      1.0  0.99034  0.51620  0.34120  1.0000
  N   N39       1.0  0.65094  0.67450  0.15595  1.0000
  C   C544      1.0  0.63944  0.65264  0.13215  1.0000
  C   C545      1.0  0.65022  0.65664  0.18432  1.0000
  C   C546      1.0  0.60447  0.64155  0.13398  1.0000
  C   C547      1.0  0.70851  0.65836  0.14311  1.0000
  C   C548      1.0  0.67249  0.66886  0.20872  1.0000
  H   H909      1.0  0.64244  0.66430  0.11069  1.0000
  H   H910      1.0  0.65396  0.63045  0.13132  1.0000
  H   H911      1.0  0.62555  0.65601  0.19304  1.0000
  H   H912      1.0  0.65704  0.63125  0.18079  1.0000
  H   H913      1.0  0.59860  0.63135  0.15541  1.0000
  H   H914      1.0  0.58769  0.66115  0.12849  1.0000
  H   H915      1.0  0.60034  0.62264  0.11756  1.0000
  H   H916      1.0  0.70485  0.64654  0.12190  1.0000
  H   H917      1.0  0.73282  0.66876  0.14269  1.0000
  H   H918      1.0  0.70811  0.64036  0.16063  1.0000
  H   H919      1.0  0.66053  0.66542  0.22988  1.0000
  H   H920      1.0  0.67904  0.69432  0.20762  1.0000
  H   H921      1.0  0.69453  0.65422  0.20991  1.0000
  H   H922      1.0  0.62710  0.71380  0.13466  1.0000
  H   H923      1.0  0.90676  0.98485  0.24300  1.0000
  H   H924      1.0  0.88407  0.95818  0.26415  1.0000
  H   H925      1.0  0.57522  0.89108  0.16997  1.0000
  H   H926      1.0  0.79970  0.95894  0.23110  1.0000
  H   H927      1.0  0.89112  0.96096  0.19808  1.0000
  C   C549      1.0  0.56450  0.65743  0.05606  1.0000
  H   H928      1.0  0.62015  0.74982  0.17437  1.0000
  C   C550      1.0  0.62883  0.70288  0.15657  1.0000
  H   H929      1.0  0.52262  0.91049  0.12110  1.0000
  H   H930      1.0  0.66111  0.73963  0.17474  1.0000
  H   H931      1.0  0.55877  0.92583  0.15168  1.0000
  H   H932      1.0  0.79252  0.94838  0.26779  1.0000
  S   S161      1.0  0.96489  0.55018  0.31042  1.0000
  C   C551      1.0  0.55821  0.91125  0.17159  1.0000
  H   H933      1.0  0.88566  0.90695  0.31378  1.0000
  C   C552      1.0  0.58764  0.60835  0.03763  1.0000
  H   H934      1.0  0.86839  0.57089  0.34427  1.0000
  N   N40       1.0  0.85602  0.99618  0.24451  1.0000
  H   H935      1.0  0.57233  0.83780  0.13377  1.0000
  H   H936      1.0  0.82754  0.93359  0.25083  1.0000
  H   H937      1.0  0.53727  0.61704  0.04058  1.0000
  H   H938      1.0  0.83853  0.97759  0.28516  1.0000
  C   C553      1.0  0.88455  0.94860  0.21847  1.0000
  C   C554      1.0  0.52489  0.85019  0.14953  1.0000
  S   S162      1.0  0.79895  0.71836  0.33818  1.0000
  Fe  Fe82      1.0  0.51533  0.98559  0.09680  1.0000
  C   C555      1.0  0.88331  0.97244  0.24387  1.0000
  H   H939      1.0  0.89987  0.00449  0.29088  1.0000
  H   H940      1.0  0.51024  0.92115  0.18543  1.0000
  C   C556      1.0  0.52454  0.89970  0.17940  1.0000
  H   H941      1.0  0.50803  0.83198  0.14092  1.0000
  C   C557      1.0  0.88314  0.51120  0.31337  1.0000
  H   H942      1.0  0.81150  0.00327  0.26709  1.0000
  H   H943      1.0  0.64161  0.52560  0.04660  1.0000
  H   H944      1.0  0.52787  0.88577  0.19962  1.0000
  H   H945      1.0  0.83728  0.54879  0.32916  1.0000
  H   H946      1.0  0.58739  0.74020  0.02115  1.0000
  H   H947      1.0  0.98024  0.63605  0.34155  1.0000
  H   H948      1.0  0.98258  0.67544  0.32961  1.0000
  C   C558      1.0  0.84461  0.00364  0.21425  1.0000
  H   H949      1.0  0.66914  0.54998  0.01302  1.0000
  C   C559      1.0  0.73016  0.70116  0.42747  1.0000
  S   S163      1.0  0.69342  0.79103  0.48356  1.0000
  H   H950      1.0  0.74440  0.69046  0.51868  1.0000
  S   S164      1.0  0.81602  0.77904  0.40337  1.0000
  H   H951      1.0  0.53587  0.85556  0.63640  1.0000
  H   H952      1.0  0.72477  0.65417  0.50962  1.0000
  H   H953      1.0  0.58421  0.58369  0.52704  1.0000
  H   H954      1.0  0.98064  0.62178  0.39312  1.0000
  H   H955      1.0  0.83554  0.58626  0.38618  1.0000
  H   H956      1.0  0.72516  0.65385  0.44513  1.0000
  C   C560      1.0  0.87702  0.53566  0.39306  1.0000
  C   C561      1.0  0.67155  0.65213  0.47421  1.0000
  H   H957      1.0  0.52647  0.70795  0.47773  1.0000
  C   C562      1.0  0.78128  0.77928  0.42511  1.0000
  C   C563      1.0  0.78459  0.77777  0.45538  1.0000
  C   C564      1.0  0.75787  0.78040  0.47360  1.0000
  C   C565      1.0  0.72762  0.78544  0.46171  1.0000
  C   C566      1.0  0.72428  0.78673  0.43144  1.0000
  C   C567      1.0  0.75089  0.78332  0.41320  1.0000
  H   H958      1.0  0.80800  0.77474  0.46483  1.0000
  H   H959      1.0  0.76080  0.77942  0.49683  1.0000
  H   H960      1.0  0.70098  0.79072  0.42204  1.0000
  H   H961      1.0  0.74801  0.78486  0.38999  1.0000
  C   C568      1.0  0.86756  0.83636  0.44644  1.0000
  C   C569      1.0  0.51824  0.89012  0.66658  1.0000
  Fe  Fe83      1.0  0.66045  0.72674  0.56678  1.0000
  S   S165      1.0  0.63755  0.76779  0.54354  1.0000
  S   S166      1.0  0.65046  0.67492  0.55500  1.0000
  Fe  Fe84      1.0  0.71144  0.77003  0.59476  1.0000
  S   S167      1.0  0.69318  0.81344  0.57087  1.0000
  S   S168      1.0  0.75394  0.77811  0.62497  1.0000
  Fe  Fe85      1.0  0.64505  0.79607  0.58444  1.0000
  S   S169      1.0  0.61223  0.82877  0.61038  1.0000
  Fe  Fe86      1.0  0.68786  0.78147  0.53194  1.0000
  S   S170      1.0  0.66345  0.75320  0.60919  1.0000
  S   S171      1.0  0.71062  0.74002  0.55447  1.0000
  H   H962      1.0  0.68889  0.70176  0.50686  1.0000
  H   H963      1.0  0.70377  0.88008  0.63248  1.0000
  S   S172      1.0  0.56035  0.96616  0.57585  1.0000
  C   C570      1.0  0.75929  0.76374  0.66084  1.0000
  H   H964      1.0  0.67502  0.72883  0.44645  1.0000
  C   C571      1.0  0.60207  0.86839  0.60068  1.0000
  C   C572      1.0  0.60254  0.87885  0.57197  1.0000
  C   C573      1.0  0.59062  0.90930  0.56477  1.0000
  C   C574      1.0  0.57815  0.92951  0.58615  1.0000
  C   C575      1.0  0.57912  0.91964  0.61504  1.0000
  C   C576      1.0  0.59093  0.88919  0.62222  1.0000
  H   H965      1.0  0.61112  0.86310  0.55518  1.0000
  H   H966      1.0  0.59023  0.91683  0.54238  1.0000
  H   H967      1.0  0.57011  0.93519  0.63175  1.0000
  H   H968      1.0  0.59076  0.88142  0.64452  1.0000
  C   C577      1.0  0.55586  0.62022  0.54705  1.0000
  C   C578      1.0  0.55626  0.65101  0.55911  1.0000
  C   C579      1.0  0.58481  0.66859  0.56092  1.0000
  C   C580      1.0  0.61333  0.65523  0.55112  1.0000
  C   C581      1.0  0.61278  0.62469  0.53859  1.0000
  C   C582      1.0  0.58417  0.60737  0.53630  1.0000
  H   H969      1.0  0.53451  0.66106  0.56762  1.0000
  H   H970      1.0  0.58497  0.69198  0.57074  1.0000
  H   H971      1.0  0.63471  0.61404  0.53112  1.0000
  H   H972      1.0  0.84697  0.81977  0.44629  1.0000
  H   H973      1.0  0.52884  0.88263  0.59341  1.0000
  H   H974      1.0  0.65356  0.63418  0.43225  1.0000
  S   S173      1.0  0.52079  0.55466  0.47349  1.0000
  H   H975      1.0  0.52885  0.66570  0.47413  1.0000
  N   N41       1.0  0.68718  0.68240  0.46370  1.0000
  H   H976      1.0  0.66124  0.65516  0.49612  1.0000
  H   H977      1.0  0.67702  0.81118  0.64408  1.0000
  H   H978      1.0  0.74468  0.86855  0.63293  1.0000
  H   H979      1.0  0.91844  0.79630  0.37630  1.0000
  H   H980      1.0  0.92016  0.88102  0.44337  1.0000
  H   H981      1.0  0.64419  0.73934  0.48545  1.0000
  C   C583      1.0  0.63736  0.71649  0.47508  1.0000
  H   H982      1.0  0.82071  0.85073  0.41135  1.0000
  H   H983      1.0  0.85872  0.54468  0.40835  1.0000
  H   H984      1.0  0.63311  0.69891  0.49246  1.0000
  C   C584      1.0  0.73309  0.67719  0.50060  1.0000
  C   C585      1.0  0.64515  0.63845  0.45458  1.0000
  H   H985      1.0  0.99659  0.61553  0.42852  1.0000
  Fe  Fe87      1.0  0.82099  0.76251  0.35661  1.0000
  H   H986      1.0  0.71580  0.72027  0.41720  1.0000
  C   C586      1.0  0.51527  0.68520  0.48459  1.0000
  C   C587      1.0  0.91735  0.81635  0.36070  1.0000
  H   H987      1.0  0.86753  0.89598  0.41746  1.0000
  H   H988      1.0  0.74590  0.71152  0.44430  1.0000
  S   S174      1.0  0.53554  0.99680  0.65367  1.0000
  C   C588      1.0  0.66303  0.70630  0.45304  1.0000
  C   C589      1.0  0.72024  0.86041  0.63825  1.0000
  C   C590      1.0  0.78374  0.77679  0.67799  1.0000
  H   H989      1.0  0.68951  0.63282  0.47712  1.0000
  H   H990      1.0  0.91481  0.92169  0.43289  1.0000
  H   H991      1.0  0.51825  0.68354  0.50838  1.0000
  H   H992      1.0  0.62382  0.65408  0.45420  1.0000
  S   S175      1.0  0.51984  0.59821  0.54669  1.0000
  H   H993      1.0  0.61420  0.71988  0.46383  1.0000
  C   C591      1.0  0.66078  0.86245  0.67411  1.0000
  Fe  Fe88      1.0  0.51435  0.55209  0.52130  1.0000
  H   H994      1.0  0.71451  0.72113  0.48260  1.0000
  H   H995      1.0  0.74603  0.69158  0.41038  1.0000
  C   C592      1.0  0.70908  0.67392  0.43909  1.0000
  H   H996      1.0  0.52704  0.81253  0.60935  1.0000
  H   H997      1.0  0.65108  0.69809  0.43285  1.0000
  H   H998      1.0  0.75191  0.67306  0.48431  1.0000
  H   H999      1.0  0.00337  0.58626  0.40149  1.0000
  H   H1000     1.0  0.64179  0.99488  0.61622  1.0000
  H   H1001     1.0  0.88917  0.90507  0.38627  1.0000
  H   H1002     1.0  0.62898  0.79756  0.66485  1.0000
  H   H1003     1.0  0.81479  0.59339  0.35334  1.0000
  C   C593      1.0  0.89580  0.50982  0.40991  1.0000
  H   H1004     1.0  0.88143  0.83136  0.46644  1.0000
  H   H1005     1.0  0.93940  0.81526  0.34752  1.0000
  H   H1006     1.0  0.69516  0.66498  0.42027  1.0000
  H   H1007     1.0  0.80615  0.85319  0.37550  1.0000
  C   C594      1.0  0.91788  0.89709  0.42443  1.0000
  S   S176      1.0  0.87114  0.74660  0.34762  1.0000
  H   H1008     1.0  0.86001  0.86216  0.35607  1.0000
  H   H1009     1.0  0.63733  0.61511  0.46350  1.0000
  C   C595      1.0  0.70522  0.69717  0.48846  1.0000
  H   H1010     1.0  0.79926  0.79472  0.66888  1.0000
  S   S177      1.0  0.86647  0.65680  0.34841  1.0000
  H   H1011     1.0  0.71556  0.83947  0.62440  1.0000
  H   H1012     1.0  0.90833  0.61694  0.38127  1.0000
  N   N42       1.0  0.88723  0.85449  0.39526  1.0000
  C   C596      1.0  0.91566  0.84904  0.37590  1.0000
  N   N43       1.0  0.86200  0.52522  0.36488  1.0000
  C   C597      1.0  0.85762  0.84967  0.37718  1.0000
  C   C598      1.0  0.88884  0.83059  0.41969  1.0000
  C   C599      1.0  0.68017  0.80823  0.66781  1.0000
  H   H1013     1.0  0.94036  0.89710  0.41192  1.0000
  H   H1014     1.0  0.94625  0.57419  0.36715  1.0000
  C   C600      1.0  0.91359  0.61303  0.35866  1.0000
  H   H1015     1.0  0.91683  0.86760  0.35865  1.0000
  H   H1016     1.0  0.93833  0.85117  0.38824  1.0000
  H   H1017     1.0  0.64424  0.91137  0.67735  1.0000
  Fe  Fe89      1.0  0.52749  0.99375  0.60581  1.0000
  H   H1018     1.0  0.52267  0.91329  0.65589  1.0000
  H   H1019     1.0  0.85431  0.82400  0.37194  1.0000
  H   H1020     1.0  0.88269  0.80631  0.41165  1.0000
  H   H1021     1.0  0.91373  0.82782  0.42775  1.0000
  H   H1022     1.0  0.81978  0.51029  0.38872  1.0000
  C   C601      1.0  0.82577  0.86120  0.38996  1.0000
  C   C602      1.0  0.88780  0.51040  0.34648  1.0000
  C   C603      1.0  0.82431  0.57409  0.36745  1.0000
  C   C604      1.0  0.88894  0.88866  0.40528  1.0000
  C   C605      1.0  0.73947  0.74050  0.67289  1.0000
  H   H1023     1.0  0.89364  0.55587  0.38935  1.0000
  H   H1024     1.0  0.72067  0.73010  0.65993  1.0000
  C   C606      1.0  0.71904  0.85157  0.67058  1.0000
  H   H1025     1.0  0.82426  0.88757  0.39086  1.0000
  H   H1026     1.0  0.80383  0.55949  0.37456  1.0000
  H   H1027     1.0  0.65665  0.86313  0.65031  1.0000
  H   H1028     1.0  0.64151  0.98726  0.56561  1.0000
  H   H1029     1.0  0.85824  0.86076  0.44889  1.0000
  H   H1030     1.0  0.70059  0.79159  0.66952  1.0000
  C   C607      1.0  0.50866  0.81953  0.59326  1.0000
  C   C608      1.0  0.84873  0.55449  0.35012  1.0000
  H   H1031     1.0  0.60407  0.99060  0.63334  1.0000
  H   H1032     1.0  0.99686  0.84234  0.66260  1.0000
  S   S178      1.0  0.98568  0.51869  0.38928  1.0000
  C   C609      1.0  0.62296  0.00806  0.62786  1.0000
  H   H1033     1.0  0.51024  0.91483  0.61016  1.0000
  C   C610      1.0  0.00139  0.61234  0.40510  1.0000
  H   H1034     1.0  0.73782  0.83313  0.67385  1.0000
  C   C611      1.0  0.98930  0.65965  0.34796  1.0000
  H   H1035     1.0  0.90720  0.52094  0.42912  1.0000
  H   H1036     1.0  0.68656  0.90839  0.67554  1.0000
  C   C612      1.0  0.51220  0.86257  0.64506  1.0000
  H   H1037     1.0  0.51987  0.83332  0.57555  1.0000
  H   H1038     1.0  0.97427  0.88691  0.67515  1.0000
  H   H1039     1.0  0.97664  0.66805  0.36757  1.0000
  C   C613      1.0  0.93490  0.58864  0.35072  1.0000
  H   H1040     1.0  0.91110  0.52246  0.35025  1.0000
  H   H1041     1.0  0.65359  0.76476  0.67691  1.0000
  H   H1042     1.0  0.89732  0.81281  0.34542  1.0000
  S   S179      1.0  0.53253  0.54497  0.95894  1.0000
  H   H1043     1.0  0.76513  0.74451  0.89334  1.0000
  Fe  Fe90      1.0  0.81837  0.78312  0.84707  1.0000
  S   S180      1.0  0.82047  0.73273  0.82992  1.0000
  S   S181      1.0  0.80050  0.80477  0.88947  1.0000
  Fe  Fe91      1.0  0.85367  0.81042  0.79429  1.0000
  S   S182      1.0  0.85873  0.76253  0.77331  1.0000
  S   S183      1.0  0.86699  0.85552  0.77005  1.0000
  Fe  Fe92      1.0  0.80803  0.75473  0.78644  1.0000
  S   S184      1.0  0.77201  0.73209  0.75574  1.0000
  Fe  Fe93      1.0  0.87107  0.74415  0.81780  1.0000
  S   S185      1.0  0.91625  0.71495  0.82471  1.0000
  S   S186      1.0  0.80185  0.80390  0.80462  1.0000
  S   S187      1.0  0.87008  0.79314  0.83765  1.0000
  H   H1044     1.0  0.89115  0.67705  0.70504  1.0000
  S   S188      1.0  0.98444  0.94552  0.79879  1.0000
  S   S189      1.0  0.98726  0.97836  0.71994  1.0000
  Fe  Fe94      1.0  0.97319  0.53707  0.85753  1.0000
  S   S190      1.0  0.93036  0.56471  0.83989  1.0000
  S   S191      1.0  0.97857  0.53428  0.90578  1.0000
  C   C614      1.0  0.90032  0.87951  0.77811  1.0000
  C   C615      1.0  0.90399  0.90845  0.76324  1.0000
  C   C616      1.0  0.92976  0.92871  0.76934  1.0000
  C   C617      1.0  0.95198  0.92032  0.79061  1.0000
  C   C618      1.0  0.94845  0.89128  0.80544  1.0000
  C   C619      1.0  0.92278  0.87081  0.79912  1.0000
  H   H1045     1.0  0.88672  0.91533  0.74694  1.0000
  H   H1046     1.0  0.93218  0.95104  0.75781  1.0000
  H   H1047     1.0  0.96572  0.88455  0.82177  1.0000
  H   H1048     1.0  0.92033  0.84839  0.81048  1.0000
  C   C620      1.0  0.91948  0.67344  0.83124  1.0000
  C   C621      1.0  0.94990  0.65967  0.83371  1.0000
  C   C622      1.0  0.95362  0.62652  0.83744  1.0000
  C   C623      1.0  0.92688  0.60677  0.83817  1.0000
  C   C624      1.0  0.89640  0.62057  0.83599  1.0000
  C   C625      1.0  0.89270  0.65382  0.83310  1.0000
  H   H1049     1.0  0.97076  0.67471  0.83246  1.0000
  H   H1050     1.0  0.97720  0.61620  0.83897  1.0000
  H   H1051     1.0  0.87557  0.60551  0.83650  1.0000
  H   H1052     1.0  0.86924  0.66433  0.83213  1.0000
  C   C626      1.0  0.86127  0.59136  0.91329  1.0000
  C   C627      1.0  0.74382  0.73085  0.70188  1.0000
  C   C628      1.0  0.76793  0.74435  0.71915  1.0000
  C   C629      1.0  0.78802  0.76724  0.70698  1.0000
  C   C630      1.0  0.94854  0.86482  0.70920  1.0000
  H   H1053     1.0  0.86588  0.86287  0.91838  1.0000
  H   H1054     1.0  0.72824  0.71302  0.71104  1.0000
  H   H1055     1.0  0.80670  0.77782  0.71997  1.0000
  C   C631      1.0  0.77554  0.78776  0.91642  1.0000
  C   C632      1.0  0.76982  0.80498  0.94201  1.0000
  C   C633      1.0  0.74985  0.79270  0.96383  1.0000
  C   C634      1.0  0.73517  0.76306  0.96021  1.0000
  C   C635      1.0  0.74088  0.74584  0.93461  1.0000
  C   C636      1.0  0.76100  0.75802  0.91288  1.0000
  H   H1056     1.0  0.78088  0.82802  0.94500  1.0000
  H   H1057     1.0  0.74565  0.80627  0.98333  1.0000
  H   H1058     1.0  0.72973  0.72287  0.93157  1.0000
  H   H1059     1.0  0.88764  0.59083  0.91385  1.0000
  H   H1060     1.0  0.84708  0.55695  0.94506  1.0000
  H   H1061     1.0  0.85334  0.60972  0.92901  1.0000
  H   H1062     1.0  0.70059  0.78565  0.71994  1.0000
  N   N44       1.0  0.86256  0.66106  0.74140  1.0000
  H   H1063     1.0  0.92552  0.87297  0.69980  1.0000
  C   C637      1.0  0.90519  0.94323  0.85691  1.0000
  H   H1064     1.0  0.79934  0.67386  0.78815  1.0000
  H   H1065     1.0  0.60692  0.67918  0.00215  1.0000
  H   H1066     1.0  0.79833  0.90576  0.83992  1.0000
  C   C638      1.0  0.81880  0.65756  0.78132  1.0000
  C   C639      1.0  0.88578  0.63668  0.75318  1.0000
  H   H1067     1.0  0.85836  0.86397  0.83135  1.0000
  H   H1068     1.0  0.83457  0.50946  0.96171  1.0000
  H   H1069     1.0  0.91937  0.55692  0.94515  1.0000
  H   H1070     1.0  0.80687  0.63944  0.76787  1.0000
  H   H1071     1.0  0.96791  0.91227  0.70479  1.0000
  Fe  Fe95      1.0  0.99449  0.98601  0.76740  1.0000
  H   H1072     1.0  0.85326  0.59958  0.89162  1.0000
  C   C640      1.0  0.87841  0.85330  0.89919  1.0000
  N   N45       1.0  0.60722  0.71205  0.96624  1.0000
  C   C641      1.0  0.57552  0.72420  0.97701  1.0000
  C   C642      1.0  0.60058  0.68954  0.94152  1.0000
  C   C643      1.0  0.62641  0.74048  0.95599  1.0000
  C   C644      1.0  0.62374  0.69550  0.99109  1.0000
  H   H1073     1.0  0.60009  0.50933  0.95581  1.0000
  C   C645      1.0  0.57966  0.66030  0.94865  1.0000
  C   C646      1.0  0.65001  0.73517  0.93091  1.0000
  C   C647      1.0  0.65346  0.67565  0.98376  1.0000
  H   H1074     1.0  0.56123  0.73429  0.95878  1.0000
  H   H1075     1.0  0.68443  0.58533  0.97352  1.0000
  H   H1076     1.0  0.62298  0.67998  0.93224  1.0000
  H   H1077     1.0  0.58866  0.70260  0.92345  1.0000
  H   H1078     1.0  0.61045  0.75990  0.94803  1.0000
  H   H1079     1.0  0.64003  0.75134  0.97422  1.0000
  H   H1080     1.0  0.82986  0.85918  0.85917  1.0000
  H   H1081     1.0  0.70008  0.85916  0.72368  1.0000
  H   H1082     1.0  0.66576  0.89840  0.70863  1.0000
  H   H1083     1.0  0.64798  0.65537  0.96926  1.0000
  H   H1084     1.0  0.86742  0.51581  0.83193  1.0000
  H   H1085     1.0  0.57934  0.64402  0.92971  1.0000
  H   H1086     1.0  0.58890  0.64632  0.96725  1.0000
  C   C648      1.0  0.57707  0.74986  0.00089  1.0000
  H   H1087     1.0  0.66485  0.75693  0.92837  1.0000
  H   H1088     1.0  0.63724  0.73151  0.91012  1.0000
  H   H1089     1.0  0.66661  0.71516  0.93461  1.0000
  C   C649      1.0  0.85507  0.93333  0.91187  1.0000
  C   C650      1.0  0.66172  0.54298  0.99082  1.0000
  H   H1090     1.0  0.67265  0.69044  0.97467  1.0000
  H   H1091     1.0  0.89843  0.64622  0.77255  1.0000
  C   C651      1.0  0.97520  0.88751  0.69907  1.0000
  C   C652      1.0  0.91027  0.70035  0.74253  1.0000
  H   H1092     1.0  0.71191  0.81040  0.74952  1.0000
  H   H1093     1.0  0.86623  0.70712  0.71987  1.0000
  C   C653      1.0  0.62230  0.51389  0.94367  1.0000
  H   H1094     1.0  0.62562  0.53993  0.94107  1.0000
  C   C654      1.0  0.84250  0.87749  0.84616  1.0000
  C   C655      1.0  0.84080  0.64597  0.71929  1.0000
  H   H1095     1.0  0.90284  0.86868  0.86060  1.0000
  H   H1096     1.0  0.86119  0.68572  0.78249  1.0000
  H   H1097     1.0  0.63815  0.55462  0.98751  1.0000
  H   H1098     1.0  0.85250  0.60520  0.77709  1.0000
  H   H1099     1.0  0.66602  0.83496  0.72435  1.0000
  C   C656      1.0  0.89569  0.52629  0.91302  1.0000
  H   H1100     1.0  0.89165  0.59001  0.77282  1.0000
  H   H1101     1.0  0.88856  0.53270  0.96112  1.0000
  H   H1102     1.0  0.86935  0.55640  0.86694  1.0000
  H   H1103     1.0  0.91013  0.96352  0.84211  1.0000
  C   C657      1.0  0.71068  0.80929  0.72554  1.0000
  H   H1104     1.0  0.71047  0.55178  0.97493  1.0000
  C   C658      1.0  0.68987  0.83701  0.71419  1.0000
  H   H1105     1.0  0.90289  0.95310  0.87892  1.0000
  C   C659      1.0  0.84452  0.67714  0.76548  1.0000
  H   H1106     1.0  0.55453  0.66715  0.95262  1.0000
  C   C660      1.0  0.81679  0.89348  0.82701  1.0000
  H   H1107     1.0  0.82866  0.64604  0.80100  1.0000
  C   C661      1.0  0.87247  0.60378  0.76176  1.0000
  N   N46       1.0  0.86065  0.53020  0.90658  1.0000
  H   H1108     1.0  0.99045  0.87186  0.75427  1.0000
  H   H1109     1.0  0.95246  0.84006  0.70163  1.0000
  H   H1110     1.0  0.87905  0.92529  0.91854  1.0000
  C   C662      1.0  0.83985  0.91275  0.88794  1.0000
  H   H1111     1.0  0.82718  0.91006  0.81092  1.0000
  H   H1112     1.0  0.86541  0.58971  0.74247  1.0000
  H   H1113     1.0  0.99897  0.91240  0.74644  1.0000
  H   H1114     1.0  0.92977  0.68269  0.74517  1.0000
  H   H1115     1.0  0.82788  0.62515  0.72810  1.0000
  H   H1116     1.0  0.85604  0.95877  0.90523  1.0000
  C   C663      1.0  0.81521  0.66822  0.70618  1.0000
  H   H1117     1.0  0.88128  0.91646  0.82464  1.0000
  H   H1118     1.0  0.73546  0.81081  0.71758  1.0000
  H   H1119     1.0  0.56102  0.70452  0.98629  1.0000
  C   C664      1.0  0.85631  0.53491  0.87439  1.0000
  H   H1120     1.0  0.66323  0.66531  0.00406  1.0000
  C   C665      1.0  0.90701  0.53354  0.94427  1.0000
  H   H1121     1.0  0.90003  0.84075  0.90721  1.0000
  C   C666      1.0  0.87495  0.92586  0.84636  1.0000
  C   C667      1.0  0.88853  0.87992  0.87811  1.0000
  H   H1122     1.0  0.80441  0.87470  0.81436  1.0000
  C   C668      1.0  0.84624  0.55890  0.92123  1.0000
  H   H1123     1.0  0.85500  0.63597  0.70110  1.0000
  N   N47       1.0  0.86181  0.89950  0.86522  1.0000
  H   H1124     1.0  0.90583  0.89472  0.89022  1.0000
  H   H1125     1.0  0.80044  0.65451  0.69057  1.0000
  H   H1126     1.0  0.82562  0.89354  0.89844  1.0000
  H   H1127     1.0  0.94535  0.86490  0.73291  1.0000
  H   H1128     1.0  0.90472  0.63162  0.73697  1.0000
  C   C669      1.0  0.68562  0.55911  0.97022  1.0000
  H   H1129     1.0  0.64394  0.79562  0.70122  1.0000
  H   H1130     1.0  0.82133  0.92814  0.87782  1.0000
  H   H1131     1.0  0.83287  0.69943  0.75776  1.0000
  H   H1132     1.0  0.92017  0.72073  0.73015  1.0000
  H   H1133     1.0  0.82033  0.56057  0.91607  1.0000
  H   H1134     1.0  0.86344  0.83500  0.88864  1.0000
  H   H1135     1.0  0.92642  0.92746  0.85579  1.0000
  H   H1136     1.0  0.92526  0.51560  0.95065  1.0000
  H   H1137     1.0  0.90975  0.54224  0.89866  1.0000
  H   H1138     1.0  0.85651  0.94445  0.84225  1.0000
  H   H1139     1.0  0.84045  0.93144  0.93177  1.0000
  H   H1140     1.0  0.79878  0.67745  0.72291  1.0000
  C   C670      1.0  0.88156  0.68640  0.72583  1.0000
  H   H1141     1.0  0.63130  0.71295  0.00789  1.0000
  H   H1142     1.0  0.90350  0.70959  0.76399  1.0000
  H   H1143     1.0  0.83079  0.53929  0.86896  1.0000
  S   S192      1.0  0.70885  0.74667  0.98638  1.0000
  H   H1144     1.0  0.68000  0.55471  0.94715  1.0000
  Fe  Fe96      1.0  0.53993  0.54435  0.00706  1.0000
  H   H1145     1.0  0.59042  0.77140  0.99419  1.0000
  H   H1146     1.0  0.82561  0.68843  0.69401  1.0000
  H   H1147     1.0  0.00323  0.83006  0.72098  1.0000
  H   H1148     1.0  0.53954  0.88446  0.67995  1.0000
  H   H1149     1.0  0.61003  0.50916  0.00256  1.0000
  H   H1150     1.0  0.55249  0.75771  0.00614  1.0000
  H   H1151     1.0  0.72746  0.87268  0.68298  1.0000
  N   N48       1.0  0.68742  0.83984  0.68172  1.0000
  C   C671      1.0  0.66503  0.89703  0.68470  1.0000
  H   H1152     1.0  0.63783  0.85379  0.68316  1.0000
  C   C672      1.0  0.64987  0.79095  0.67839  1.0000
