data_image0
_chemical_formula_structural       FeS2CFeSHFeSFeCSCHFeSHS2CH2C6H8SCHS2HC2H2CHFeHCH2NC4H12CHC3H2CSH3C2H2CH4CSCH2C2H3CH2CHNCH2SHFe2H2C3FeCHCSC2H2CH3SC2S2H5SCHSHCHFeHC3HSHNH2FeS2FeS2FeSFeS3HC2HCHFeS2HSH4FeS2C7H4C6H6CH3CH3CHC5H3NHCHCHCHFeCSHC2H2C2HCNC4H8CHSCHCH4C3H5FeH4CH2CHCHNH3C2H4CSH4CHC3H12CH2CFeHC2HSCH2CHCHCNCFeS2FeS2FeSFeS3FeS2FeSH2FeHS2H6CH6CH2C7H4C2H3FeC2H2NC7H20C2HSH3CHCH2CH2CH4C2HCH2NC8H12C3HNCHCH6NC2H2CH3CH2C4H2CHFeSH3C3HSCHCFeSH3C2H3FeHSH3CH3CH2CFeHNSHCSHC2HCNSHCHC2HCH2CHSCHC2H2CH2C2H2CH9CHC2H2CH4NHCFeS2FeS2H3C2H3NC6H5CH4CH2SHC2HC3HCH2C3H4CH2CHCHCHCH3CH11CH6C2S2H2CFeC4HSHCH3SH2FeSHCSH4SH3CSH6C4H2SC2H2CSCHFeH2C2H3C4HCHCSHC2H5NC3HFeHFeSHFeHSCH5C2SCH2CH2CH5CFeHSHCHCFeSC3H3CH3CH2C3H3CHC2H6CH2CSH4CH2CNCHCH3CHCHCH2C2HNHCH7C2H2SNH2CH3C4HSH3CSH4CHFeS2CH5FeS2C6H9CH3CHC3HSH3SFeNHNC8H8C2H9CHC2H2CH3NFeH2C2HCHCH5CH5CHSH4CHC2HCH2CH2CHCHFeHS2HFeSCHSHCH4C2HCHFeHSFeCHC2H3CHFeH2FeH4CH3CHSHCHCHCH3CHNCSFeHC2HNCH2CH4CHCHSCHC3HSH2CSFeS2FeCSFeHFeHS2FeS2FeS2FeSFeS3CHCHCHSCH4SHCH2C3H5C6H4C2H3CH4C2H6NCHCH3CH5CHCNC2HCH2CHCH5CH2C4H6CHCH2C2H2NH3CH2C2H2CHNH2FeS2FeS2FeSFeS3FeS2FeS2H2C2HC6H4C6H5C3H2CH5SH2C3HSHSHCH2CH3CH8CHC3HNC4HC4H3CH6CH3CH4CH3CH4C2HC2H6CH6NC4HC5H7FeNHNH6CH6CH3C2H3SCHNCH2FeSHS2HSHC3FeHCHCH3CHCHCH2FeCSHCHCH2SH4SH2NSH2CSH2C2NC6H7CH7CH8CFeC2NH4CH3C4SC2HC2H3CH5C2FeH4CHCSC2HCH2C
_chemical_formula_sum              "Fe72 S144 C504 H864 N36"
_cell_length_a       38.6777
_cell_length_b       38.6452
_cell_length_c       58.1762
_cell_angle_alpha    89.0886
_cell_angle_beta     89.8855
_cell_angle_gamma    120.131

_space_group_name_H-M_alt    "P 1"
_space_group_IT_number       1

loop_
  _space_group_symop_operation_xyz
  'x, y, z'

loop_
  _atom_site_type_symbol
  _atom_site_label
  _atom_site_symmetry_multiplicity
  _atom_site_fract_x
  _atom_site_fract_y
  _atom_site_fract_z
  _atom_site_occupancy
  Fe  Fe1       1.0  0.05569  0.34005  0.00856  1.0000
  S   S1        1.0  0.01522  0.28095  0.08758  1.0000
  S   S2        1.0  0.06773  0.37438  0.04126  1.0000
  C   C1        1.0  0.22072  0.34776  0.99384  1.0000
  Fe  Fe2       1.0  0.34256  0.05621  0.02557  1.0000
  S   S3        1.0  0.38111  0.05503  0.05454  1.0000
  H   H1        1.0  0.07989  0.22048  0.11005  1.0000
  Fe  Fe3       1.0  0.04861  0.18865  0.23205  1.0000
  S   S4        1.0  0.08230  0.16415  0.21295  1.0000
  Fe  Fe4       1.0  0.03692  0.23211  0.27263  1.0000
  C   C2        1.0  0.31975  0.01310  0.25672  1.0000
  S   S5        1.0  0.07124  0.25367  0.23888  1.0000
  C   C3        1.0  0.03280  0.48851  0.00917  1.0000
  H   H2        1.0  0.37397  0.04970  0.27735  1.0000
  Fe  Fe5       1.0  0.17879  0.03940  0.25367  1.0000
  S   S6        1.0  0.16342  0.08289  0.26997  1.0000
  H   H3        1.0  0.42789  0.03160  0.21283  1.0000
  S   S7        1.0  0.24077  0.04771  0.25310  1.0000
  S   S8        1.0  0.00579  0.28308  0.02387  1.0000
  C   C4        1.0  0.00858  0.25009  0.13131  1.0000
  H   H4        1.0  0.06787  0.20974  0.17544  1.0000
  H   H5        1.0  0.20372  0.04390  0.07397  1.0000
  C   C5        1.0  0.13988  0.10423  0.25388  1.0000
  C   C6        1.0  0.13581  0.10019  0.23003  1.0000
  C   C7        1.0  0.11800  0.11863  0.21765  1.0000
  C   C8        1.0  0.10374  0.14080  0.22906  1.0000
  C   C9        1.0  0.10702  0.14415  0.25295  1.0000
  C   C10       1.0  0.12520  0.12605  0.26528  1.0000
  H   H6        1.0  0.14718  0.08365  0.22106  1.0000
  H   H7        1.0  0.11555  0.11591  0.19917  1.0000
  H   H8        1.0  0.09631  0.16132  0.26190  1.0000
  H   H9        1.0  0.12829  0.12931  0.28373  1.0000
  H   H10       1.0  0.46970  0.43913  0.03760  1.0000
  H   H11       1.0  0.45594  0.32708  0.03541  1.0000
  H   H12       1.0  0.31083  0.08355  0.14454  1.0000
  H   H13       1.0  0.32445  0.05357  0.11063  1.0000
  S   S9        1.0  0.05962  0.25104  0.30916  1.0000
  C   C11       1.0  0.47145  0.39660  0.01359  1.0000
  H   H14       1.0  0.48521  0.31375  0.01705  1.0000
  S   S10       1.0  0.26739  0.35074  0.99932  1.0000
  S   S11       1.0  0.36182  0.02455  0.00073  1.0000
  H   H15       1.0  0.18257  0.49853  0.02979  1.0000
  C   C12       1.0  0.19687  0.34614  0.01263  1.0000
  C   C13       1.0  0.15969  0.34392  0.00927  1.0000
  H   H16       1.0  0.20726  0.34650  0.02993  1.0000
  H   H17       1.0  0.14175  0.34260  0.02391  1.0000
  C   C14       1.0  0.34897  0.06512  0.22686  1.0000
  H   H18       1.0  0.44673  0.36652  0.00888  1.0000
  Fe  Fe6       1.0  0.02200  0.39050  0.02850  1.0000
  H   H19       1.0  0.40061  0.08836  0.20316  1.0000
  C   C15       1.0  0.37800  0.02145  0.23497  1.0000
  H   H20       1.0  0.01296  0.33993  0.16232  1.0000
  H   H21       1.0  0.09579  0.16672  0.16253  1.0000
  N   N1        1.0  0.11893  0.25002  0.15416  1.0000
  C   C16       1.0  0.14701  0.24840  0.17154  1.0000
  C   C17       1.0  0.11460  0.28631  0.15747  1.0000
  C   C18       1.0  0.18905  0.28586  0.17245  1.0000
  C   C19       1.0  0.10336  0.29209  0.18198  1.0000
  H   H22       1.0  0.13375  0.24238  0.18918  1.0000
  H   H23       1.0  0.14238  0.31427  0.15218  1.0000
  H   H24       1.0  0.09102  0.28531  0.14614  1.0000
  H   H25       1.0  0.16393  0.28113  0.12760  1.0000
  H   H26       1.0  0.20611  0.28132  0.18636  1.0000
  H   H27       1.0  0.20616  0.29062  0.15626  1.0000
  H   H28       1.0  0.18819  0.31331  0.17658  1.0000
  H   H29       1.0  0.40571  0.16354  0.01228  1.0000
  H   H30       1.0  0.09981  0.31891  0.18200  1.0000
  H   H31       1.0  0.12672  0.29731  0.19468  1.0000
  H   H32       1.0  0.00416  0.22481  0.16545  1.0000
  H   H33       1.0  0.49303  0.31772  0.04725  1.0000
  C   C20       1.0  0.20094  0.45337  0.00617  1.0000
  H   H34       1.0  0.05564  0.21509  0.14687  1.0000
  C   C21       1.0  0.34243  0.04236  0.27623  1.0000
  C   C22       1.0  0.38040  0.23510  0.00006  1.0000
  C   C23       1.0  0.27673  0.02757  0.16318  1.0000
  H   H35       1.0  0.03022  0.04271  0.27371  1.0000
  H   H36       1.0  0.45705  0.47652  0.00568  1.0000
  C   C24       1.0  0.30723  0.03472  0.12507  1.0000
  S   S12       1.0  0.16623  0.01878  0.21734  1.0000
  H   H37       1.0  0.13082  0.46272  0.03266  1.0000
  H   H38       1.0  0.07435  0.26650  0.18778  1.0000
  H   H39       1.0  0.14341  0.22860  0.12808  1.0000
  C   C25       1.0  0.13549  0.25236  0.13034  1.0000
  C   C26       1.0  0.16034  0.44471  0.99634  1.0000
  H   H40       1.0  0.01590  0.33994  0.11956  1.0000
  H   H41       1.0  0.47274  0.39904  0.05201  1.0000
  C   C27       1.0  0.46052  0.40696  0.03702  1.0000
  H   H42       1.0  0.37057  0.11105  0.20008  1.0000
  H   H43       1.0  0.43660  0.23631  0.00303  1.0000
  H   H44       1.0  0.15191  0.22293  0.16818  1.0000
  H   H45       1.0  0.04519  0.06134  0.24524  1.0000
  C   C28       1.0  0.38703  0.17662  0.00939  1.0000
  S   S13       1.0  0.26861  0.05067  0.18717  1.0000
  C   C29       1.0  0.29939  0.05161  0.14432  1.0000
  H   H46       1.0  0.28935  0.15137  0.00805  1.0000
  H   H47       1.0  0.32093  0.06665  0.22728  1.0000
  C   C30       1.0  0.07849  0.21294  0.15732  1.0000
  C   C31       1.0  0.34543  0.15241  0.01072  1.0000
  H   H48       1.0  0.01370  0.00844  0.19651  1.0000
  H   H49       1.0  0.08256  0.17114  0.13322  1.0000
  H   H50       1.0  0.10091  0.27403  0.11040  1.0000
  C   C32       1.0  0.07603  0.17289  0.15157  1.0000
  H   H51       1.0  0.38627  0.02430  0.19640  1.0000
  H   H52       1.0  0.12390  0.25263  0.09373  1.0000
  C   C33       1.0  0.10812  0.24964  0.11027  1.0000
  H   H53       1.0  0.40224  0.04919  0.24274  1.0000
  N   N2        1.0  0.34008  0.02346  0.23337  1.0000
  C   C34       1.0  0.40442  0.21784  0.00414  1.0000
  H   H54       1.0  0.35248  0.06272  0.18884  1.0000
  H   H55       1.0  0.04504  0.14817  0.15512  1.0000
  S   S14       1.0  0.45694  0.01994  0.02972  1.0000
  H   H56       1.0  0.32772  0.02818  0.29293  1.0000
  Fe  Fe7       1.0  0.39660  0.01893  0.03025  1.0000
  Fe  Fe8       1.0  0.01293  0.24177  0.22320  1.0000
  H   H57       1.0  0.00698  0.22476  0.12267  1.0000
  H   H58       1.0  0.05353  0.01473  0.22632  1.0000
  C   C35       1.0  0.39469  0.01459  0.21233  1.0000
  C   C36       1.0  0.49216  0.02271  0.00867  1.0000
  C   C37       1.0  0.48607  0.33116  0.03222  1.0000
  Fe  Fe9       1.0  0.22542  0.02107  0.21763  1.0000
  C   C38       1.0  0.36930  0.08201  0.20332  1.0000
  H   H59       1.0  0.46871  0.41666  0.00075  1.0000
  C   C39       1.0  0.00904  0.28259  0.16694  1.0000
  S   S15       1.0  0.32128  0.10009  0.01609  1.0000
  C   C40       1.0  0.01198  0.28251  0.11807  1.0000
  C   C41       1.0  0.15284  0.48934  0.02231  1.0000
  H   H60       1.0  0.01590  0.29481  0.30664  1.0000
  H   H61       1.0  0.23844  0.05465  0.09743  1.0000
  C   C42       1.0  0.32155  0.16985  0.00690  1.0000
  H   H62       1.0  0.20009  0.45189  0.02525  1.0000
  H   H63       1.0  0.36925  0.08730  0.23946  1.0000
  H   H64       1.0  0.42755  0.38920  0.03950  1.0000
  S   S16       1.0  0.37460  0.37195  0.99243  1.0000
  C   C43       1.0  0.01865  0.04071  0.25597  1.0000
  C   C44       1.0  0.22928  0.04115  0.08023  1.0000
  S   S17       1.0  0.03296  0.45477  0.03057  1.0000
  S   S18       1.0  0.40344  0.28661  0.99258  1.0000
  H   H65       1.0  0.22614  0.48245  0.00002  1.0000
  H   H66       1.0  0.13663  0.41759  0.00556  1.0000
  H   H67       1.0  0.34075  0.07013  0.27449  1.0000
  H   H68       1.0  0.28979  0.01045  0.25567  1.0000
  H   H69       1.0  0.32014  0.22403  0.99897  1.0000
  S   S19       1.0  0.00638  0.28346  0.19750  1.0000
  C   C45       1.0  0.48724  0.49678  0.99966  1.0000
  H   H70       1.0  0.25488  0.05954  0.06835  1.0000
  S   S20       1.0  0.01356  0.35965  0.99508  1.0000
  H   H71       1.0  0.07521  0.02196  0.26874  1.0000
  C   C46       1.0  0.01181  0.31475  0.15373  1.0000
  H   H72       1.0  0.20735  0.42981  0.00047  1.0000
  Fe  Fe10      1.0  0.01493  0.31815  0.05632  1.0000
  H   H73       1.0  0.01134  0.04946  0.20958  1.0000
  C   C47       1.0  0.01337  0.31481  0.12945  1.0000
  C   C48       1.0  0.33889  0.21097  0.00166  1.0000
  C   C49       1.0  0.00709  0.25007  0.15556  1.0000
  H   H74       1.0  0.01334  0.22748  0.99387  1.0000
  S   S21       1.0  0.01957  0.16799  0.26664  1.0000
  H   H75       1.0  0.08742  0.43979  0.00099  1.0000
  N   N3        1.0  0.15143  0.47853  0.99736  1.0000
  H   H76       1.0  0.24517  0.03057  0.31813  1.0000
  H   H77       1.0  0.17915  0.00646  0.11844  1.0000
  Fe  Fe11      1.0  0.31436  0.31029  0.55844  1.0000
  S   S22       1.0  0.29125  0.27339  0.52659  1.0000
  S   S23       1.0  0.27705  0.27231  0.58955  1.0000
  Fe  Fe12      1.0  0.37819  0.38319  0.52963  1.0000
  S   S24       1.0  0.35786  0.35040  0.49638  1.0000
  S   S25       1.0  0.43485  0.44519  0.53331  1.0000
  Fe  Fe13      1.0  0.29513  0.32812  0.50980  1.0000
  S   S26       1.0  0.24258  0.31350  0.48619  1.0000
  Fe  Fe14      1.0  0.35493  0.29821  0.51592  1.0000
  S   S27       1.0  0.38526  0.26527  0.50186  1.0000
  S   S28       1.0  0.31511  0.36425  0.54211  1.0000
  S   S29       1.0  0.37845  0.33174  0.54870  1.0000
  H   H78       1.0  0.31011  0.20412  0.62984  1.0000
  C   C50       1.0  0.11951  0.42775  0.39163  1.0000
  C   C51       1.0  0.19564  0.29319  0.61718  1.0000
  H   H79       1.0  0.37458  0.15597  0.57318  1.0000
  C   C52       1.0  0.23179  0.43697  0.41719  1.0000
  H   H80       1.0  0.36135  0.13285  0.44157  1.0000
  Fe  Fe15      1.0  0.32286  0.03866  0.47722  1.0000
  S   S30       1.0  0.30314  0.07560  0.49796  1.0000
  S   S31       1.0  0.36787  0.06041  0.44839  1.0000
  H   H81       1.0  0.19439  0.26503  0.61201  1.0000
  S   S32       1.0  0.02943  0.30405  0.45028  1.0000
  H   H82       1.0  0.18592  0.37125  0.38084  1.0000
  H   H83       1.0  0.33590  0.19345  0.42555  1.0000
  H   H84       1.0  0.39123  0.18575  0.43920  1.0000
  H   H85       1.0  0.11425  0.35778  0.43161  1.0000
  Fe  Fe16      1.0  0.06744  0.36403  0.46637  1.0000
  S   S33       1.0  0.13192  0.39191  0.47845  1.0000
  S   S34       1.0  0.05330  0.39753  0.43937  1.0000
  C   C53       1.0  0.05078  0.26895  0.35358  1.0000
  C   C54       1.0  0.36141  0.21257  0.49961  1.0000
  C   C55       1.0  0.32076  0.18779  0.50472  1.0000
  C   C56       1.0  0.30326  0.14592  0.50365  1.0000
  C   C57       1.0  0.32607  0.12842  0.49734  1.0000
  C   C58       1.0  0.36646  0.15322  0.49163  1.0000
  C   C59       1.0  0.38403  0.19512  0.49280  1.0000
  H   H86       1.0  0.30285  0.20083  0.50966  1.0000
  H   H87       1.0  0.27191  0.12692  0.50796  1.0000
  H   H88       1.0  0.38437  0.14008  0.48683  1.0000
  H   H89       1.0  0.41548  0.21404  0.48874  1.0000
  C   C60       1.0  0.21068  0.33424  0.48627  1.0000
  C   C61       1.0  0.17319  0.31330  0.47563  1.0000
  C   C62       1.0  0.14782  0.32964  0.47413  1.0000
  C   C63       1.0  0.16020  0.36767  0.48269  1.0000
  C   C64       1.0  0.19765  0.38859  0.49335  1.0000
  C   C65       1.0  0.22259  0.37182  0.49539  1.0000
  H   H90       1.0  0.16372  0.28423  0.46853  1.0000
  H   H91       1.0  0.11903  0.31312  0.46600  1.0000
  H   H92       1.0  0.20758  0.41813  0.49992  1.0000
  H   H93       1.0  0.25143  0.38839  0.50347  1.0000
  H   H94       1.0  0.31226  0.14582  0.36578  1.0000
  H   H95       1.0  0.35041  0.24469  0.61371  1.0000
  C   C66       1.0  0.31571  0.15082  0.56660  1.0000
  H   H96       1.0  0.37305  0.15771  0.41360  1.0000
  H   H97       1.0  0.32063  0.15384  0.61229  1.0000
  H   H98       1.0  0.22566  0.11528  0.45784  1.0000
  C   C67       1.0  0.44410  0.36099  0.46372  1.0000
  H   H99       1.0  0.40066  0.22887  0.57332  1.0000
  H   H100      1.0  0.10680  0.36363  0.36822  1.0000
  H   H101      1.0  0.09360  0.34911  0.40419  1.0000
  C   C68       1.0  0.21754  0.30770  0.64034  1.0000
  H   H102      1.0  0.39896  0.26193  0.55257  1.0000
  C   C69       1.0  0.12224  0.31525  0.41220  1.0000
  C   C70       1.0  0.15137  0.42700  0.40717  1.0000
  C   C71       1.0  0.25358  0.23653  0.63228  1.0000
  C   C72       1.0  0.28397  0.26886  0.61955  1.0000
  C   C73       1.0  0.31771  0.29746  0.63110  1.0000
  H   H103      1.0  0.46141  0.30415  0.47572  1.0000
  H   H104      1.0  0.22745  0.21406  0.62352  1.0000
  H   H105      1.0  0.34140  0.32244  0.62159  1.0000
  N   N4        1.0  0.15781  0.39178  0.40494  1.0000
  H   H106      1.0  0.43784  0.45617  0.48280  1.0000
  C   C74       1.0  0.13633  0.36869  0.36280  1.0000
  H   H107      1.0  0.08960  0.40075  0.39358  1.0000
  C   C75       1.0  0.32814  0.16430  0.43393  1.0000
  H   H108      1.0  0.13286  0.33967  0.35739  1.0000
  C   C76       1.0  0.24302  0.14543  0.44966  1.0000
  H   H109      1.0  0.28790  0.16737  0.38110  1.0000
  Fe  Fe17      1.0  0.38307  0.01376  0.46100  1.0000
  C   C77       1.0  0.46558  0.47945  0.48980  1.0000
  S   S35       1.0  0.30193  0.03149  0.39389  1.0000
  H   H110      1.0  0.21369  0.31534  0.60342  1.0000
  C   C78       1.0  0.47126  0.48113  0.51361  1.0000
  C   C79       1.0  0.25868  0.14379  0.42551  1.0000
  H   H111      1.0  0.43863  0.35452  0.50070  1.0000
  H   H112      1.0  0.14357  0.42941  0.42535  1.0000
  C   C80       1.0  0.36512  0.15927  0.43172  1.0000
  C   C81       1.0  0.47947  0.01969  0.48031  1.0000
  H   H113      1.0  0.49392  0.29109  0.48968  1.0000
  C   C82       1.0  0.25552  0.01516  0.32939  1.0000
  N   N5        1.0  0.28947  0.13074  0.42479  1.0000
  C   C83       1.0  0.29437  0.12131  0.40040  1.0000
  C   C84       1.0  0.27693  0.09376  0.43946  1.0000
  C   C85       1.0  0.30937  0.15646  0.38294  1.0000
  C   C86       1.0  0.23651  0.05659  0.43348  1.0000
  H   H114      1.0  0.23242  0.12454  0.41471  1.0000
  H   H115      1.0  0.31502  0.10920  0.39948  1.0000
  H   H116      1.0  0.26550  0.09691  0.39376  1.0000
  H   H117      1.0  0.29937  0.08387  0.43821  1.0000
  H   H118      1.0  0.27664  0.09985  0.45803  1.0000
  H   H119      1.0  0.36055  0.21764  0.63535  1.0000
  H   H120      1.0  0.33930  0.18155  0.38733  1.0000
  H   H121      1.0  0.03775  0.47528  0.50232  1.0000
  C   C87       1.0  0.32054  0.29407  0.65516  1.0000
  H   H122      1.0  0.21428  0.06383  0.42657  1.0000
  S   S36       1.0  0.44904  0.02897  0.46080  1.0000
  C   C88       1.0  0.27637  0.17462  0.58637  1.0000
  H   H123      1.0  0.22263  0.17008  0.57165  1.0000
  C   C89       1.0  0.33960  0.21455  0.62144  1.0000
  H   H124      1.0  0.25998  0.14641  0.59682  1.0000
  H   H125      1.0  0.27652  0.19827  0.59702  1.0000
  H   H126      1.0  0.33082  0.24463  0.57524  1.0000
  H   H127      1.0  0.46243  0.35290  0.45304  1.0000
  C   C90       1.0  0.19116  0.39829  0.42103  1.0000
  C   C91       1.0  0.25012  0.17063  0.56547  1.0000
  C   C92       1.0  0.28382  0.01072  0.36636  1.0000
  H   H128      1.0  0.45762  0.40377  0.49025  1.0000
  H   H129      1.0  0.41420  0.33357  0.46542  1.0000
  H   H130      1.0  0.09261  0.28981  0.41754  1.0000
  H   H131      1.0  0.19203  0.41883  0.37377  1.0000
  H   H132      1.0  0.46209  0.38459  0.53471  1.0000
  Fe  Fe18      1.0  0.31914  0.01181  0.42739  1.0000
  H   H133      1.0  0.12861  0.30928  0.39460  1.0000
  H   H134      1.0  0.18225  0.39849  0.43919  1.0000
  H   H135      1.0  0.29946  0.14838  0.55049  1.0000
  H   H136      1.0  0.33213  0.22035  0.54997  1.0000
  C   C93       1.0  0.38669  0.24711  0.56954  1.0000
  H   H137      1.0  0.22244  0.15755  0.44809  1.0000
  H   H138      1.0  0.19766  0.37340  0.42007  1.0000
  C   C94       1.0  0.12077  0.35438  0.41338  1.0000
  H   H139      1.0  0.34842  0.12688  0.54907  1.0000
  C   C95       1.0  0.17000  0.38861  0.38075  1.0000
  H   H140      1.0  0.14406  0.31482  0.42435  1.0000
  N   N6        1.0  0.31858  0.18413  0.58113  1.0000
  H   H141      1.0  0.26516  0.19634  0.55327  1.0000
  H   H142      1.0  0.23532  0.29261  0.64250  1.0000
  H   H143      1.0  0.04384  0.28221  0.38877  1.0000
  C   C96       1.0  0.03830  0.28555  0.37092  1.0000
  C   C97       1.0  0.35531  0.15423  0.55868  1.0000
  H   H144      1.0  0.37171  0.17969  0.54640  1.0000
  H   H145      1.0  0.27098  0.17430  0.41773  1.0000
  H   H146      1.0  0.29798  0.12141  0.57578  1.0000
  H   H147      1.0  0.36807  0.18923  0.60166  1.0000
  C   C98       1.0  0.33739  0.18402  0.60382  1.0000
  S   S37       1.0  0.01932  0.35839  0.49070  1.0000
  H   H148      1.0  0.14480  0.38778  0.34696  1.0000
  H   H149      1.0  0.32498  0.16852  0.45252  1.0000
  H   H150      1.0  0.24016  0.14220  0.55636  1.0000
  H   H151      1.0  0.23089  0.46373  0.42298  1.0000
  C   C99       1.0  0.27007  0.03015  0.35142  1.0000
  H   H152      1.0  0.12907  0.43273  0.37332  1.0000
  C   C100      1.0  0.04280  0.27209  0.33028  1.0000
  C   C101      1.0  0.34043  0.22396  0.56844  1.0000
  C   C102      1.0  0.01040  0.30930  0.34178  1.0000
  H   H153      1.0  0.17918  0.45554  0.40297  1.0000
  H   H154      1.0  0.06654  0.25338  0.35826  1.0000
  H   H155      1.0  0.26746  0.16553  0.46119  1.0000
  H   H156      1.0  0.39722  0.27182  0.58198  1.0000
  H   H157      1.0  0.11587  0.45344  0.39650  1.0000
  H   H158      1.0  0.25449  0.43509  0.42802  1.0000
  H   H159      1.0  0.27072  0.05708  0.35688  1.0000
  H   H160      1.0  0.24088  0.03786  0.42082  1.0000
  H   H161      1.0  0.22278  0.03842  0.44940  1.0000
  H   H162      1.0  0.24008  0.34009  0.63817  1.0000
  H   H163      1.0  0.43932  0.38321  0.45402  1.0000
  H   H164      1.0  0.15404  0.36481  0.65062  1.0000
  C   C103      1.0  0.01864  0.30645  0.36507  1.0000
  H   H165      1.0  0.16545  0.28946  0.61647  1.0000
  H   H166      1.0  0.24254  0.44113  0.39915  1.0000
  C   C104      1.0  0.46030  0.37668  0.48799  1.0000
  Fe  Fe19      1.0  0.01172  0.33681  0.42493  1.0000
  H   H167      1.0  0.17654  0.35006  0.62918  1.0000
  C   C105      1.0  0.02213  0.29200  0.32448  1.0000
  C   C106      1.0  0.49467  0.39717  0.53651  1.0000
  H   H168      1.0  0.48027  0.33205  0.51456  1.0000
  S   S38       1.0  0.00368  0.32950  0.38596  1.0000
  C   C107      1.0  0.49242  0.31673  0.48187  1.0000
  H   H169      1.0  0.50084  0.37448  0.54434  1.0000
  H   H170      1.0  0.12960  0.31358  0.64314  1.0000
  C   C108      1.0  0.02280  0.49177  0.49798  1.0000
  H   H171      1.0  0.13339  0.25953  0.64764  1.0000
  C   C109      1.0  0.15943  0.34027  0.64562  1.0000
  H   H172      1.0  0.17674  0.22530  0.64587  1.0000
  C   C110      1.0  0.25615  0.23347  0.65636  1.0000
  N   N7        1.0  0.50221  0.38585  0.49338  1.0000
  C   C111      1.0  0.50246  0.34824  0.50048  1.0000
  Fe  Fe20      1.0  0.19343  0.15486  0.75748  1.0000
  S   S39       1.0  0.15901  0.18300  0.77093  1.0000
  S   S40       1.0  0.17008  0.09542  0.77649  1.0000
  Fe  Fe21      1.0  0.24441  0.22680  0.72525  1.0000
  S   S41       1.0  0.21357  0.25943  0.73745  1.0000
  S   S42       1.0  0.29432  0.25995  0.69834  1.0000
  Fe  Fe22      1.0  0.21880  0.23942  0.77331  1.0000
  S   S43       1.0  0.23065  0.27939  0.80453  1.0000
  Fe  Fe23      1.0  0.15726  0.20008  0.73431  1.0000
  S   S44       1.0  0.10313  0.18924  0.71398  1.0000
  S   S45       1.0  0.25367  0.21064  0.76163  1.0000
  S   S46       1.0  0.18763  0.16824  0.72038  1.0000
  Fe  Fe24      1.0  0.34114  0.33124  0.93030  1.0000
  S   S47       1.0  0.31082  0.29447  0.96238  1.0000
  S   S48       1.0  0.33010  0.29796  0.89609  1.0000
  Fe  Fe25      1.0  0.40191  0.40478  0.95925  1.0000
  S   S49       1.0  0.46090  0.46542  0.95591  1.0000
  H   H173      1.0  0.27144  0.33157  0.70052  1.0000
  H   H174      1.0  0.02241  0.29102  0.92455  1.0000
  Fe  Fe26      1.0  0.31483  0.35116  0.97544  1.0000
  H   H175      1.0  0.11347  0.07732  0.84048  1.0000
  S   S50       1.0  0.40270  0.35197  0.94415  1.0000
  S   S51       1.0  0.34225  0.38725  0.94263  1.0000
  H   H176      1.0  0.14110  0.05697  0.85375  1.0000
  H   H177      1.0  0.09546  0.41290  0.96591  1.0000
  H   H178      1.0  0.15755  0.21175  0.82107  1.0000
  H   H179      1.0  0.02199  0.06853  0.70930  1.0000
  H   H180      1.0  0.03867  0.00487  0.76582  1.0000
  H   H181      1.0  0.34670  0.31645  0.66396  1.0000
  C   C112      1.0  0.03555  0.22684  0.94050  1.0000
  H   H182      1.0  0.15967  0.08546  0.82769  1.0000
  H   H183      1.0  0.15954  0.34502  0.95089  1.0000
  H   H184      1.0  0.22497  0.34868  0.95695  1.0000
  H   H185      1.0  0.23238  0.20864  0.66591  1.0000
  H   H186      1.0  0.19083  0.17483  0.90021  1.0000
  H   H187      1.0  0.01556  0.16158  0.78138  1.0000
  C   C113      1.0  0.28957  0.26243  0.66800  1.0000
  H   H188      1.0  0.20033  0.07466  0.73603  1.0000
  H   H189      1.0  0.47150  0.04407  0.98053  1.0000
  C   C114      1.0  0.02129  0.14816  0.71591  1.0000
  C   C115      1.0  0.30362  0.29518  0.87045  1.0000
  C   C116      1.0  0.30693  0.27455  0.85158  1.0000
  C   C117      1.0  0.28559  0.27020  0.83115  1.0000
  C   C118      1.0  0.26046  0.28639  0.82927  1.0000
  C   C119      1.0  0.25740  0.30735  0.84804  1.0000
  C   C120      1.0  0.27873  0.31165  0.86852  1.0000
  H   H190      1.0  0.32660  0.26230  0.85263  1.0000
  H   H191      1.0  0.28881  0.25460  0.81676  1.0000
  H   H192      1.0  0.23815  0.32010  0.84680  1.0000
  H   H193      1.0  0.27586  0.32769  0.88279  1.0000
  C   C121      1.0  0.05455  0.17298  0.75215  1.0000
  C   C122      1.0  0.05672  0.16872  0.72845  1.0000
  H   H194      1.0  0.04194  0.20263  0.93636  1.0000
  H   H195      1.0  0.08169  0.18911  0.76191  1.0000
  H   H196      1.0  0.01834  0.44912  0.98057  1.0000
  Fe  Fe27      1.0  0.37248  0.31820  0.97661  1.0000
  C   C123      1.0  0.15608  0.04961  0.76314  1.0000
  C   C124      1.0  0.17637  0.04751  0.74378  1.0000
  H   H197      1.0  0.02058  0.08885  0.74736  1.0000
  H   H198      1.0  0.32824  0.21396  0.87933  1.0000
  N   N8        1.0  0.34282  0.19715  0.92671  1.0000
  C   C125      1.0  0.38038  0.23128  0.91595  1.0000
  C   C126      1.0  0.31826  0.17067  0.90741  1.0000
  C   C127      1.0  0.35521  0.17441  0.94288  1.0000
  C   C128      1.0  0.32167  0.21488  0.93956  1.0000
  C   C129      1.0  0.41264  0.25954  0.93281  1.0000
  C   C130      1.0  0.32316  0.13138  0.94998  1.0000
  C   C131      1.0  0.27876  0.18611  0.94849  1.0000
  H   H199      1.0  0.39501  0.21975  0.90425  1.0000
  H   H200      1.0  0.37336  0.25091  0.90508  1.0000
  H   H201      1.0  0.29148  0.14308  0.91378  1.0000
  H   H202      1.0  0.33577  0.15965  0.89787  1.0000
  H   H203      1.0  0.38025  0.17181  0.93522  1.0000
  H   H204      1.0  0.36708  0.19098  0.95910  1.0000
  H   H205      1.0  0.33913  0.23111  0.95484  1.0000
  H   H206      1.0  0.32085  0.23890  0.92922  1.0000
  H   H207      1.0  0.42453  0.24404  0.94359  1.0000
  H   H208      1.0  0.43826  0.28342  0.92282  1.0000
  H   H209      1.0  0.40140  0.27479  0.94391  1.0000
  H   H210      1.0  0.31484  0.11058  0.93542  1.0000
  H   H211      1.0  0.29623  0.12955  0.95776  1.0000
  H   H212      1.0  0.33587  0.12013  0.96331  1.0000
  H   H213      1.0  0.27904  0.17666  0.96656  1.0000
  H   H214      1.0  0.26144  0.15930  0.93808  1.0000
  H   H215      1.0  0.26146  0.20197  0.94802  1.0000
  H   H216      1.0  0.14939  0.17702  0.88765  1.0000
  H   H217      1.0  0.19356  0.22213  0.89389  1.0000
  H   H218      1.0  0.28316  0.16713  0.87741  1.0000
  C   C132      1.0  0.01710  0.15746  0.76313  1.0000
  C   C133      1.0  0.07761  0.06830  0.73687  1.0000
  H   H219      1.0  0.02263  0.49928  0.95159  1.0000
  S   S52       1.0  0.09970  0.34144  0.98176  1.0000
  H   H220      1.0  0.07312  0.44200  0.95801  1.0000
  H   H221      1.0  0.16708  0.32997  0.68128  1.0000
  H   H222      1.0  0.16766  0.21704  0.67656  1.0000
  C   C134      1.0  0.16979  0.34522  0.96820  1.0000
  H   H223      1.0  0.08638  0.10049  0.73825  1.0000
  C   C135      1.0  0.12528  0.01415  0.77318  1.0000
  H   H224      1.0  0.25221  0.36317  0.69242  1.0000
  H   H225      1.0  0.02280  0.14490  0.69756  1.0000
  C   C136      1.0  0.20694  0.34730  0.97156  1.0000
  H   H226      1.0  0.03359  0.04683  0.78939  1.0000
  H   H227      1.0  0.07080  0.09512  0.77746  1.0000
  C   C137      1.0  0.25583  0.33803  0.68651  1.0000
  H   H228      1.0  0.05408  0.25173  0.92820  1.0000
  H   H229      1.0  0.27587  0.34725  0.67121  1.0000
  H   H230      1.0  0.16017  0.43550  0.97828  1.0000
  H   H231      1.0  0.19672  0.29368  0.69831  1.0000
  C   C138      1.0  0.15702  0.22340  0.66020  1.0000
  C   C139      1.0  0.16700  0.00995  0.73517  1.0000
  H   H232      1.0  0.03516  0.32914  0.94532  1.0000
  C   C140      1.0  0.21519  0.29990  0.68241  1.0000
  H   H233      1.0  0.02370  0.27425  0.96866  1.0000
  H   H234      1.0  0.10947  0.01555  0.78817  1.0000
  N   N9        1.0  0.17553  0.15980  0.84776  1.0000
  C   C141      1.0  0.19804  0.16757  0.82531  1.0000
  C   C142      1.0  0.13606  0.15743  0.84288  1.0000
  C   C143      1.0  0.16754  0.12098  0.85888  1.0000
  C   C144      1.0  0.20062  0.19341  0.86374  1.0000
  C   C145      1.0  0.23571  0.16339  0.82577  1.0000
  C   C146      1.0  0.13824  0.19731  0.83637  1.0000
  C   C147      1.0  0.14415  0.08343  0.84412  1.0000
  C   C148      1.0  0.18232  0.19122  0.88771  1.0000
  H   H235      1.0  0.17830  0.14747  0.81179  1.0000
  H   H236      1.0  0.20781  0.19824  0.81861  1.0000
  H   H237      1.0  0.11483  0.14388  0.85764  1.0000
  H   H238      1.0  0.12074  0.13699  0.82836  1.0000
  H   H239      1.0  0.19593  0.12265  0.86427  1.0000
  H   H240      1.0  0.14993  0.11509  0.87508  1.0000
  H   H241      1.0  0.22970  0.19509  0.86702  1.0000
  H   H242      1.0  0.20962  0.22305  0.85576  1.0000
  H   H243      1.0  0.25848  0.18414  0.83785  1.0000
  H   H244      1.0  0.22851  0.13228  0.82957  1.0000
  H   H245      1.0  0.24980  0.17111  0.80838  1.0000
  H   H246      1.0  0.10787  0.19140  0.83187  1.0000
  C   C149      1.0  0.03835  0.07325  0.77907  1.0000
  C   C150      1.0  0.10949  0.46287  0.98881  1.0000
  C   C151      1.0  0.30328  0.19015  0.88967  1.0000
  H   H247      1.0  0.28595  0.20252  0.89783  1.0000
  N   N10       1.0  0.03275  0.04162  0.73928  1.0000
  C   C152      1.0  0.18347  0.33415  0.66471  1.0000
  H   H248      1.0  0.18371  0.00837  0.72068  1.0000
  C   C153      1.0  0.15328  0.26122  0.66173  1.0000
  H   H249      1.0  0.14866  0.21849  0.85081  1.0000
  H   H250      1.0  0.22222  0.27538  0.68137  1.0000
  H   H251      1.0  0.09305  0.06247  0.75122  1.0000
  H   H252      1.0  0.04652  0.23624  0.95810  1.0000
  H   H253      1.0  0.13576  0.25783  0.67772  1.0000
  H   H254      1.0  0.02495  0.08806  0.78897  1.0000
  N   N11       1.0  0.19219  0.30060  0.66160  1.0000
  C   C154      1.0  0.49676  0.49746  0.97637  1.0000
  C   C155      1.0  0.10085  0.44394  0.96481  1.0000
  H   H255      1.0  0.12540  0.46144  0.95228  1.0000
  H   H256      1.0  0.21164  0.36341  0.66581  1.0000
  C   C156      1.0  0.01762  0.06131  0.75550  1.0000
  H   H257      1.0  0.13023  0.08115  0.71657  1.0000
  H   H258      1.0  0.02334  0.02440  0.70338  1.0000
  H   H259      1.0  0.48272  0.40476  0.96590  1.0000
  C   C157      1.0  0.09742  0.06654  0.71416  1.0000
  H   H260      1.0  0.09224  0.08341  0.70025  1.0000
  H   H261      1.0  0.10138  0.48658  0.98826  1.0000
  C   C158      1.0  0.14596  0.34347  0.98700  1.0000
  C   C159      1.0  0.01068  0.29989  0.93932  1.0000
  C   C160      1.0  0.49274  0.03518  0.98587  1.0000
  C   C161      1.0  0.02543  0.47862  0.98594  1.0000
  H   H262      1.0  0.08733  0.03594  0.70832  1.0000
  H   H263      1.0  0.48699  0.35049  0.98706  1.0000
  C   C162      1.0  0.01313  0.03813  0.71636  1.0000
  H   H264      1.0  0.12695  0.19709  0.65727  1.0000
  Fe  Fe28      1.0  0.30934  0.96764  0.01481  1.0000
  S   S53       1.0  0.34482  0.96006  0.04287  1.0000
  H   H265      1.0  0.21225  0.92876  0.06136  1.0000
  H   H266      1.0  0.05095  0.58505  0.00464  1.0000
  H   H267      1.0  0.18099  0.93520  0.14189  1.0000
  C   C163      1.0  0.18561  0.90985  0.07233  1.0000
  C   C164      1.0  0.20808  0.86654  0.01611  1.0000
  C   C165      1.0  0.29490  0.94956  0.22234  1.0000
  H   H268      1.0  0.31394  0.98326  0.26301  1.0000
  S   S54       1.0  0.20002  0.95800  0.23097  1.0000
  C   C166      1.0  0.17084  0.83135  0.01973  1.0000
  H   H269      1.0  0.31928  0.94344  0.22645  1.0000
  C   C167      1.0  0.29313  0.99357  0.12468  1.0000
  Fe  Fe29      1.0  0.14152  0.95731  0.23291  1.0000
  S   S55       1.0  0.08443  0.91117  0.21619  1.0000
  H   H270      1.0  0.14809  0.95560  0.06426  1.0000
  H   H271      1.0  0.13499  0.93480  0.13552  1.0000
  H   H272      1.0  0.22400  0.88520  0.03044  1.0000
  C   C168      1.0  0.04001  0.89480  0.23212  1.0000
  C   C169      1.0  0.14514  0.52380  0.02763  1.0000
  H   H273      1.0  0.04757  0.53524  0.03355  1.0000
  H   H274      1.0  0.06701  0.89961  0.26510  1.0000
  H   H275      1.0  0.38880  0.95566  0.00358  1.0000
  Fe  Fe30      1.0  0.21115  0.98421  0.26666  1.0000
  H   H276      1.0  0.43485  0.90002  0.04156  1.0000
  S   S56       1.0  0.23795  0.96112  0.29395  1.0000
  H   H277      1.0  0.25976  0.93773  0.14354  1.0000
  H   H278      1.0  0.37098  0.85698  0.02332  1.0000
  H   H279      1.0  0.20954  0.53209  0.99348  1.0000
  C   C170      1.0  0.25468  0.98053  0.32191  1.0000
  H   H280      1.0  0.44164  0.88698  0.01340  1.0000
  H   H281      1.0  0.24479  0.96744  0.17703  1.0000
  H   H282      1.0  0.32312  0.89716  0.00705  1.0000
  C   C171      1.0  0.38650  0.88937  0.01868  1.0000
  H   H283      1.0  0.05003  0.96772  0.26998  1.0000
  H   H284      1.0  0.15825  0.82315  0.03691  1.0000
  C   C172      1.0  0.04164  0.52705  0.01569  1.0000
  Fe  Fe31      1.0  0.32720  0.99625  0.06500  1.0000
  H   H285      1.0  0.21585  0.93531  0.10398  1.0000
  N   N12       1.0  0.37544  0.89600  0.99481  1.0000
  S   S57       1.0  0.30150  0.97036  0.10082  1.0000
  H   H286      1.0  0.30527  0.82972  0.02021  1.0000
  C   C173      1.0  0.27084  0.96960  0.14367  1.0000
  S   S58       1.0  0.10295  0.76271  0.00669  1.0000
  H   H287      1.0  0.45011  0.93682  0.01936  1.0000
  C   C174      1.0  0.16738  0.95404  0.13826  1.0000
  C   C175      1.0  0.03962  0.89151  0.25608  1.0000
  H   H288      1.0  0.32246  0.99967  0.19883  1.0000
  C   C176      1.0  0.00425  0.88384  0.22057  1.0000
  N   N13       1.0  0.18540  0.96732  0.09446  1.0000
  S   S59       1.0  0.15001  0.97748  0.26949  1.0000
  H   H289      1.0  0.27291  0.93886  0.23680  1.0000
  C   C177      1.0  0.04355  0.55543  0.99931  1.0000
  H   H290      1.0  0.37322  0.99645  0.24684  1.0000
  C   C178      1.0  0.14976  0.80666  0.00127  1.0000
  C   C179      1.0  0.33087  0.87996  0.99497  1.0000
  H   H291      1.0  0.27232  0.82658  0.99808  1.0000
  C   C180      1.0  0.43099  0.90444  0.02302  1.0000
  H   H292      1.0  0.37657  0.90366  0.03163  1.0000
  H   H293      1.0  0.14177  0.52484  0.04655  1.0000
  C   C181      1.0  0.26233  0.98637  0.16271  1.0000
  H   H294      1.0  0.27880  0.93148  0.20722  1.0000
  S   S60       1.0  0.28797  0.99914  0.03758  1.0000
  C   C182      1.0  0.30393  0.83531  0.00156  1.0000
  H   H295      1.0  0.17098  0.55311  0.02229  1.0000
  C   C183      1.0  0.14791  0.96127  0.08296  1.0000
  C   C184      1.0  0.22460  0.87736  0.99395  1.0000
  H   H296      1.0  0.16378  0.90595  0.10661  1.0000
  H   H297      1.0  0.38633  0.98268  0.21097  1.0000
  C   C185      1.0  0.18763  0.92943  0.09558  1.0000
  H   H298      1.0  0.18556  0.88140  0.07555  1.0000
  H   H299      1.0  0.15792  0.90222  0.06285  1.0000
  C   C186      1.0  0.10757  0.92873  0.09327  1.0000
  C   C187      1.0  0.00347  0.87649  0.26839  1.0000
  H   H300      1.0  0.08490  0.91711  0.07946  1.0000
  H   H301      1.0  0.31082  0.81556  0.99131  1.0000
  C   C188      1.0  0.31054  0.99415  0.21663  1.0000
  H   H302      1.0  0.10788  0.90206  0.10009  1.0000
  H   H303      1.0  0.28396  0.99800  0.21547  1.0000
  H   H304      1.0  0.24867  0.99855  0.08566  1.0000
  H   H305      1.0  0.00453  0.88660  0.20203  1.0000
  H   H306      1.0  0.14666  0.98938  0.08319  1.0000
  H   H307      1.0  0.02254  0.96243  0.23146  1.0000
  H   H308      1.0  0.00321  0.87326  0.28691  1.0000
  H   H309      1.0  0.11723  0.51990  0.02008  1.0000
  H   H310      1.0  0.09709  0.94120  0.10692  1.0000
  C   C189      1.0  0.18921  0.98404  0.11824  1.0000
  H   H311      1.0  0.17093  0.97107  0.15417  1.0000
  C   C190      1.0  0.03451  0.99209  0.23966  1.0000
  C   C191      1.0  0.06366  0.99454  0.25846  1.0000
  H   H312      1.0  0.21687  0.98890  0.06173  1.0000
  H   H313      1.0  0.08984  0.99537  0.25003  1.0000
  C   C192      1.0  0.22066  0.99754  0.08010  1.0000
  H   H314      1.0  0.22113  0.00063  0.12338  1.0000
  H   H315      1.0  0.46759  0.91416  0.46321  1.0000
  H   H316      1.0  0.03309  0.71439  0.64788  1.0000
  H   H317      1.0  0.19642  0.83725  0.37936  1.0000
  N   N14       1.0  0.17821  0.86341  0.40600  1.0000
  H   H318      1.0  0.21608  0.89172  0.43532  1.0000
  C   C193      1.0  0.20530  0.93953  0.40502  1.0000
  Fe  Fe32      1.0  0.02889  0.72822  0.51291  1.0000
  S   S61       1.0  0.06638  0.78887  0.49468  1.0000
  S   S62       1.0  0.05049  0.69939  0.53841  1.0000
  Fe  Fe33      1.0  0.29465  0.95077  0.46751  1.0000
  S   S63       1.0  0.25499  0.88512  0.47818  1.0000
  S   S64       1.0  0.33765  0.96687  0.43750  1.0000
  H   H319      1.0  0.13447  0.87794  0.53366  1.0000
  H   H320      1.0  0.19410  0.86461  0.56231  1.0000
  H   H321      1.0  0.05844  0.82359  0.53848  1.0000
  C   C194      1.0  0.14251  0.79141  0.57728  1.0000
  C   C195      1.0  0.19064  0.90064  0.39158  1.0000
  H   H322      1.0  0.16014  0.90690  0.55890  1.0000
  H   H323      1.0  0.18730  0.90733  0.53411  1.0000
  H   H324      1.0  0.06923  0.80211  0.60292  1.0000
  N   N15       1.0  0.13183  0.82271  0.57013  1.0000
  C   C196      1.0  0.11914  0.81569  0.49171  1.0000
  C   C197      1.0  0.14192  0.79708  0.49455  1.0000
  C   C198      1.0  0.18358  0.81900  0.49071  1.0000
  C   C199      1.0  0.20291  0.85970  0.48415  1.0000
  C   C200      1.0  0.18022  0.87851  0.48174  1.0000
  C   C201      1.0  0.13851  0.85650  0.48537  1.0000
  H   H325      1.0  0.12733  0.76556  0.49911  1.0000
  H   H326      1.0  0.20088  0.80415  0.49251  1.0000
  H   H327      1.0  0.19473  0.90984  0.47678  1.0000
  H   H328      1.0  0.12107  0.87110  0.48311  1.0000
  H   H329      1.0  0.29391  0.96106  0.37003  1.0000
  C   C202      1.0  0.11838  0.81199  0.43100  1.0000
  H   H330      1.0  0.41253  0.57330  0.50280  1.0000
  H   H331      1.0  0.04043  0.80883  0.56708  1.0000
  H   H332      1.0  0.44630  0.62807  0.47840  1.0000
  H   H333      1.0  0.10021  0.83578  0.62434  1.0000
  C   C203      1.0  0.49577  0.50810  0.47497  1.0000
  H   H334      1.0  0.16847  0.80418  0.58914  1.0000
  H   H335      1.0  0.18393  0.79204  0.55095  1.0000
  S   S65       1.0  0.27333  0.99226  0.45586  1.0000
  H   H336      1.0  0.10356  0.78878  0.41782  1.0000
  C   C204      1.0  0.13133  0.84365  0.59170  1.0000
  C   C205      1.0  0.28288  0.97599  0.35894  1.0000
  H   H337      1.0  0.23449  0.94895  0.41318  1.0000
  C   C206      1.0  0.03147  0.52657  0.51020  1.0000
  C   C207      1.0  0.25179  0.88116  0.41118  1.0000
  C   C208      1.0  0.21087  0.86892  0.42225  1.0000
  H   H338      1.0  0.11187  0.82430  0.37913  1.0000
  C   C209      1.0  0.16062  0.88787  0.54503  1.0000
  H   H339      1.0  0.12062  0.78638  0.36914  1.0000
  H   H340      1.0  0.12651  0.86907  0.58813  1.0000
  C   C210      1.0  0.09978  0.81697  0.60997  1.0000
  C   C211      1.0  0.13564  0.81888  0.37273  1.0000
  C   C212      1.0  0.14184  0.85449  0.42022  1.0000
  H   H341      1.0  0.48737  0.71295  0.49097  1.0000
  H   H342      1.0  0.09424  0.81004  0.44231  1.0000
  H   H343      1.0  0.15244  0.74434  0.56442  1.0000
  H   H344      1.0  0.21453  0.90571  0.37899  1.0000
  C   C213      1.0  0.01242  0.54870  0.50498  1.0000
  H   H345      1.0  0.09539  0.79343  0.54068  1.0000
  H   H346      1.0  0.08466  0.85618  0.56127  1.0000
  C   C214      1.0  0.16433  0.85221  0.55402  1.0000
  H   H347      1.0  0.44913  0.59344  0.52525  1.0000
  C   C215      1.0  0.06828  0.82444  0.55650  1.0000
  H   H348      1.0  0.07143  0.77290  0.56731  1.0000
  C   C216      1.0  0.09187  0.80185  0.55834  1.0000
  H   H349      1.0  0.45938  0.65054  0.50518  1.0000
  C   C217      1.0  0.46462  0.63080  0.49374  1.0000
  H   H350      1.0  0.10589  0.79409  0.61756  1.0000
  H   H351      1.0  0.11743  0.76637  0.58713  1.0000
  H   H352      1.0  0.16592  0.83724  0.53821  1.0000
  C   C218      1.0  0.15318  0.77178  0.55768  1.0000
  H   H353      1.0  0.13190  0.76278  0.54331  1.0000
  H   H354      1.0  0.14770  0.83611  0.35633  1.0000
  H   H355      1.0  0.12033  0.85963  0.41018  1.0000
  H   H356      1.0  0.25055  0.85785  0.39982  1.0000
  H   H357      1.0  0.26483  0.91026  0.40179  1.0000
  H   H358      1.0  0.20192  0.84094  0.43236  1.0000
  H   H359      1.0  0.27289  0.88472  0.42511  1.0000
  H   H360      1.0  0.16536  0.89719  0.38080  1.0000
  H   H361      1.0  0.16112  0.85759  0.60009  1.0000
  H   H362      1.0  0.13749  0.80477  0.44188  1.0000
  H   H363      1.0  0.46179  0.59279  0.45338  1.0000
  C   C219      1.0  0.16963  0.82969  0.39011  1.0000
  H   H364      1.0  0.18334  0.93705  0.41814  1.0000
  H   H365      1.0  0.15031  0.87556  0.43475  1.0000
  H   H366      1.0  0.16399  0.80216  0.39977  1.0000
  H   H367      1.0  0.43298  0.98449  0.50502  1.0000
  H   H368      1.0  0.47721  0.97261  0.53097  1.0000
  H   H369      1.0  0.26826  0.93444  0.33120  1.0000
  C   C220      1.0  0.26845  0.96106  0.33685  1.0000
  C   C221      1.0  0.01717  0.73010  0.64399  1.0000
  S   S66       1.0  0.02490  0.59248  0.52113  1.0000
  S   S67       1.0  0.01697  0.70656  0.59948  1.0000
  H   H370      1.0  0.45564  0.56960  0.50042  1.0000
  H   H371      1.0  0.05326  0.53654  0.52379  1.0000
  C   C222      1.0  0.00541  0.73127  0.62124  1.0000
  Fe  Fe34      1.0  0.00567  0.64010  0.52319  1.0000
  C   C223      1.0  0.46425  0.99694  0.50063  1.0000
  C   C224      1.0  0.44510  0.58977  0.50637  1.0000
  C   C225      1.0  0.48952  0.99027  0.51536  1.0000
  C   C226      1.0  0.49462  0.60891  0.45065  1.0000
  H   H372      1.0  0.21004  0.96399  0.39283  1.0000
  S   S68       1.0  0.34086  0.99528  0.49145  1.0000
  H   H373      1.0  0.49091  0.50635  0.45661  1.0000
  C   C227      1.0  0.50071  0.93179  0.46429  1.0000
  H   H374      1.0  0.50133  0.87686  0.46398  1.0000
  H   H375      1.0  0.50032  0.68035  0.45809  1.0000
  H   H376      1.0  0.50211  0.58740  0.44279  1.0000
  S   S69       1.0  0.04820  0.81199  0.73258  1.0000
  H   H377      1.0  0.21821  0.89562  0.76639  1.0000
  H   H378      1.0  0.16880  0.82901  0.84038  1.0000
  Fe  Fe35      1.0  0.06515  0.87506  0.74147  1.0000
  S   S70       1.0  0.12743  0.92770  0.73547  1.0000
  H   H379      1.0  0.40526  0.98451  0.96295  1.0000
  C   C228      1.0  0.16960  0.54242  0.97250  1.0000
  S   S71       1.0  0.08478  0.70269  0.94751  1.0000
  H   H380      1.0  0.13164  0.77701  0.84198  1.0000
  H   H381      1.0  0.36548  0.86747  0.96196  1.0000
  H   H382      1.0  0.09065  0.82044  0.77604  1.0000
  H   H383      1.0  0.19627  0.88505  0.81639  1.0000
  S   S72       1.0  0.01388  0.87334  0.72280  1.0000
  H   H384      1.0  0.12342  0.90832  0.78538  1.0000
  H   H385      1.0  0.13072  0.86534  0.76528  1.0000
  H   H386      1.0  0.15056  0.79876  0.96480  1.0000
  C   C229      1.0  0.02787  0.50719  0.96951  1.0000
  S   S73       1.0  0.27145  0.92112  0.98839  1.0000
  H   H387      1.0  0.18726  0.91666  0.77360  1.0000
  H   H388      1.0  0.23241  0.93119  0.78838  1.0000
  H   H389      1.0  0.11326  0.91744  0.81367  1.0000
  H   H390      1.0  0.12087  0.78186  0.76490  1.0000
  H   H391      1.0  0.16984  0.82582  0.76059  1.0000
  H   H392      1.0  0.12955  0.81621  0.74179  1.0000
  C   C230      1.0  0.02382  0.71394  0.85593  1.0000
  C   C231      1.0  0.13646  0.97447  0.74537  1.0000
  C   C232      1.0  0.11500  0.97675  0.76409  1.0000
  C   C233      1.0  0.03687  0.54580  0.97604  1.0000
  H   H393      1.0  0.09126  0.94966  0.77199  1.0000
  H   H394      1.0  0.11686  0.81282  0.84714  1.0000
  S   S74       1.0  0.01922  0.65604  0.98970  1.0000
  C   C234      1.0  0.13146  0.90803  0.80357  1.0000
  C   C235      1.0  0.02334  0.77938  0.83449  1.0000
  H   H395      1.0  0.45173  0.91765  0.97856  1.0000
  H   H396      1.0  0.01880  0.94472  0.74436  1.0000
  C   C236      1.0  0.13725  0.80711  0.83649  1.0000
  S   S75       1.0  0.01261  0.74737  0.79061  1.0000
  C   C237      1.0  0.03122  0.77965  0.85819  1.0000
  H   H397      1.0  0.47427  0.58496  0.97791  1.0000
  Fe  Fe36      1.0  0.01251  0.79445  0.76600  1.0000
  H   H398      1.0  0.43001  0.90944  0.95032  1.0000
  H   H399      1.0  0.15675  0.55401  0.98513  1.0000
  C   C238      1.0  0.42853  0.89529  0.96734  1.0000
  C   C239      1.0  0.18235  0.51362  0.98313  1.0000
  H   H400      1.0  0.02429  0.68874  0.86396  1.0000
  H   H401      1.0  0.14241  0.79114  0.80220  1.0000
  H   H402      1.0  0.38459  0.93491  0.95213  1.0000
  C   C240      1.0  0.20608  0.90515  0.78074  1.0000
  C   C241      1.0  0.18589  0.87133  0.79925  1.0000
  C   C242      1.0  0.13723  0.81413  0.75997  1.0000
  C   C243      1.0  0.01687  0.71409  0.83209  1.0000
  H   H403      1.0  0.32053  0.88367  0.97775  1.0000
  C   C244      1.0  0.20368  0.85256  0.97554  1.0000
  H   H404      1.0  0.09535  0.78589  0.80873  1.0000
  C   C245      1.0  0.38382  0.95240  0.96680  1.0000
  S   S76       1.0  0.03424  0.85788  0.77583  1.0000
  H   H405      1.0  0.02277  0.80451  0.82647  1.0000
  C   C246      1.0  0.01706  0.74696  0.82113  1.0000
  C   C247      1.0  0.03184  0.74712  0.86906  1.0000
  H   H406      1.0  0.08905  0.84683  0.81267  1.0000
  H   H407      1.0  0.35379  0.94943  0.96811  1.0000
  H   H408      1.0  0.19907  0.85176  0.79680  1.0000
  H   H409      1.0  0.13181  0.87076  0.83046  1.0000
  H   H410      1.0  0.16321  0.93085  0.80631  1.0000
  N   N16       1.0  0.14083  0.84648  0.79904  1.0000
  C   C248      1.0  0.12804  0.80646  0.81063  1.0000
  C   C249      1.0  0.12393  0.83788  0.77511  1.0000
  C   C250      1.0  0.12215  0.86636  0.81225  1.0000
  H   H411      1.0  0.21622  0.86064  0.95834  1.0000
  Fe  Fe37      1.0  0.06352  0.71985  0.97907  1.0000
  H   H412      1.0  0.01202  0.68880  0.82198  1.0000
  Fe  Fe38      1.0  0.03717  0.63890  0.95709  1.0000
  S   S77       1.0  0.04496  0.75083  0.89866  1.0000
  H   H413      1.0  0.01675  0.74688  0.67935  1.0000
  Fe  Fe39      1.0  0.03603  0.70813  0.92910  1.0000
  H   H414      1.0  0.03723  0.80544  0.86817  1.0000
  S   S78       1.0  0.03990  0.58075  0.95446  1.0000
  C   C251      1.0  0.38521  0.87389  0.97714  1.0000
  H   H415      1.0  0.19629  0.56873  0.96471  1.0000
  H   H416      1.0  0.01294  0.96606  0.71839  1.0000
  H   H417      1.0  0.06189  0.98542  0.73150  1.0000
  H   H418      1.0  0.14788  0.52829  0.95843  1.0000
  H   H419      1.0  0.43739  0.87255  0.96401  1.0000
  C   C252      1.0  0.16643  0.81745  0.97914  1.0000
  C   C253      1.0  0.00805  0.74861  0.66189  1.0000
  S   S79       1.0  0.01689  0.72794  0.96063  1.0000
  C   C254      1.0  0.02964  0.97343  0.73473  1.0000
  H   H420      1.0  0.19300  0.50319  0.96839  1.0000
  H   H421      1.0  0.37858  0.84418  0.98420  1.0000
  C   C255      1.0  0.39542  0.94035  0.98967  1.0000
  H   H422      1.0  0.42830  0.95479  0.98951  1.0000
  H   H423      1.0  0.50009  0.65224  0.97504  1.0000
  C   C256      1.0  0.02198  0.00135  0.74967  1.0000
  H   H424      1.0  0.95735  0.50096  0.99312  1.0000
  H   H425      1.0  0.57223  0.44533  0.00227  1.0000
  H   H426      1.0  0.83376  0.18855  0.19172  1.0000
  H   H427      1.0  0.89918  0.22960  0.20560  1.0000
  H   H428      1.0  0.65143  0.04127  0.04917  1.0000
  C   C257      1.0  0.83412  0.15989  0.19167  1.0000
  Fe  Fe40      1.0  0.96442  0.30493  0.01308  1.0000
  H   H429      1.0  0.88542  0.15443  0.16166  1.0000
  S   S80       1.0  0.96996  0.33674  0.04617  1.0000
  H   H430      1.0  0.92914  0.20917  0.21452  1.0000
  C   C258      1.0  0.96080  0.12039  0.32134  1.0000
  H   H431      1.0  0.53544  0.46144  0.04504  1.0000
  C   C259      1.0  0.79992  0.13009  0.20784  1.0000
  Fe  Fe41      1.0  0.96539  0.16300  0.24997  1.0000
  S   S81       1.0  0.90567  0.11138  0.26118  1.0000
  C   C260      1.0  0.91237  0.06489  0.22829  1.0000
  C   C261      1.0  0.89463  0.06551  0.24911  1.0000
  C   C262      1.0  0.86687  0.02928  0.25993  1.0000
  H   H432      1.0  0.93395  0.09252  0.21987  1.0000
  H   H433      1.0  0.85305  0.02954  0.27606  1.0000
  H   H434      1.0  0.87578  0.21525  0.15855  1.0000
  C   C263      1.0  0.80993  0.13846  0.99930  1.0000
  H   H435      1.0  0.90611  0.13890  0.21204  1.0000
  H   H436      1.0  0.99740  0.07747  0.27176  1.0000
  H   H437      1.0  0.97045  0.01314  0.19312  1.0000
  C   C264      1.0  0.90112  0.02836  0.21784  1.0000
  H   H438      1.0  0.88513  0.09888  0.17876  1.0000
  H   H439      1.0  0.54769  0.37720  0.02677  1.0000
  C   C265      1.0  0.86066  0.09506  0.19046  1.0000
  C   C266      1.0  0.83871  0.15658  0.01653  1.0000
  C   C267      1.0  0.86951  0.19679  0.01425  1.0000
  H   H440      1.0  0.83472  0.09038  0.18008  1.0000
  H   H441      1.0  0.83693  0.13952  0.03187  1.0000
  H   H442      1.0  0.89132  0.21042  0.02770  1.0000
  C   C268      1.0  0.68331  0.09590  0.02877  1.0000
  H   H443      1.0  0.91889  0.21937  0.14457  1.0000
  C   C269      1.0  0.55968  0.46293  0.03427  1.0000
  C   C270      1.0  0.54823  0.01220  0.99915  1.0000
  H   H444      1.0  0.99923  0.08103  0.24141  1.0000
  H   H445      1.0  0.77236  0.13107  0.20380  1.0000
  H   H446      1.0  0.78127  0.20153  0.01331  1.0000
  H   H447      1.0  0.85142  0.19713  0.23675  1.0000
  H   H448      1.0  0.82465  0.14812  0.17403  1.0000
  H   H449      1.0  0.79279  0.09883  0.20520  1.0000
  C   C271      1.0  0.61914  0.13013  0.03060  1.0000
  H   H450      1.0  0.91408  0.42876  0.99921  1.0000
  H   H451      1.0  0.63315  0.07480  0.05339  1.0000
  C   C272      1.0  0.64464  0.06270  0.04014  1.0000
  S   S82       1.0  0.76984  0.08897  0.00402  1.0000
  H   H452      1.0  0.76310  0.15801  0.03106  1.0000
  H   H453      1.0  0.80608  0.13695  0.22624  1.0000
  H   H454      1.0  0.95897  0.03803  0.25608  1.0000
  H   H455      1.0  0.62285  0.08342  0.99886  1.0000
  C   C273      1.0  0.89752  0.20189  0.21265  1.0000
  H   H456      1.0  0.60157  0.09718  0.02966  1.0000
  H   H457      1.0  0.85725  0.11994  0.22258  1.0000
  C   C274      1.0  0.75403  0.17791  0.02234  1.0000
  N   N17       1.0  0.67982  0.12634  0.01390  1.0000
  C   C275      1.0  0.89955  0.17883  0.17433  1.0000
  H   H458      1.0  0.58139  0.49522  0.03110  1.0000
  C   C276      1.0  0.54511  0.44243  0.01092  1.0000
  H   H459      1.0  0.92943  0.16332  0.30040  1.0000
  H   H460      1.0  0.91399  0.02813  0.20136  1.0000
  H   H461      1.0  0.92502  0.24437  0.17085  1.0000
  C   C277      1.0  0.87979  0.19662  0.23702  1.0000
  H   H462      1.0  0.85136  0.06731  0.20086  1.0000
  C   C278      1.0  0.65372  0.10566  0.99361  1.0000
  H   H463      1.0  0.90081  0.22267  0.24734  1.0000
  C   C279      1.0  0.90469  0.21661  0.16165  1.0000
  H   H464      1.0  0.87609  0.16963  0.24623  1.0000
  H   H465      1.0  0.93003  0.18339  0.17734  1.0000
  C   C280      1.0  0.87554  0.13105  0.20657  1.0000
  C   C281      1.0  0.72111  0.15524  0.00445  1.0000
  H   H466      1.0  0.70406  0.11042  0.04324  1.0000
  N   N18       1.0  0.87568  0.16738  0.19655  1.0000
  H   H467      1.0  0.57601  0.45071  0.04397  1.0000
  C   C282      1.0  0.87135  0.21947  0.99485  1.0000
  H   H468      1.0  0.61252  0.13779  0.04777  1.0000
  H   H469      1.0  0.69628  0.08090  0.01861  1.0000
  H   H470      1.0  0.53675  0.46146  0.00054  1.0000
  H   H471      1.0  0.62134  0.04511  0.02749  1.0000
  H   H472      1.0  0.74525  0.19296  0.03523  1.0000
  H   H473      1.0  0.85145  0.47970  0.00869  1.0000
  H   H474      1.0  0.67822  0.15510  0.04522  1.0000
  C   C283      1.0  0.91201  0.20480  0.31153  1.0000
  C   C284      1.0  0.66506  0.14922  0.02771  1.0000
  H   H475      1.0  0.67561  0.17920  0.01953  1.0000
  H   H476      1.0  0.97441  0.18133  0.00535  1.0000
  S   S83       1.0  0.98065  0.22577  0.25763  1.0000
  N   N19       1.0  0.51159  0.39933  0.01125  1.0000
  H   H477      1.0  0.87137  0.43349  0.00539  1.0000
  H   H478      1.0  0.93629  0.48912  0.02093  1.0000
  C   C285      1.0  0.92872  0.49047  0.00259  1.0000
  H   H479      1.0  0.96920  0.20817  0.31132  1.0000
  H   H480      1.0  0.60733  0.14341  0.01800  1.0000
  H   H481      1.0  0.91736  0.21813  0.29392  1.0000
  C   C286      1.0  0.52034  0.01150  0.01517  1.0000
  C   C287      1.0  0.99402  0.01725  0.20548  1.0000
  C   C288      1.0  0.99141  0.05944  0.25605  1.0000
  C   C289      1.0  0.93755  0.18460  0.31472  1.0000
  H   H482      1.0  0.72073  0.17887  0.99346  1.0000
  S   S84       1.0  0.99254  0.17822  0.21454  1.0000
  H   H483      1.0  0.87956  0.18311  0.31307  1.0000
  H   H484      1.0  0.96036  0.12934  0.30325  1.0000
  H   H485      1.0  0.73171  0.13945  0.99303  1.0000
  C   C290      1.0  0.51849  0.37574  0.02976  1.0000
  S   S85       1.0  0.90854  0.27055  0.99144  1.0000
  H   H486      1.0  0.52130  0.38865  0.04698  1.0000
  H   H487      1.0  0.88319  0.49800  0.03248  1.0000
  H   H488      1.0  0.98679  0.11570  0.32292  1.0000
  H   H489      1.0  0.88448  0.10962  0.32353  1.0000
  C   C291      1.0  0.89985  0.44707  0.99548  1.0000
  H   H490      1.0  0.92055  0.22975  0.32356  1.0000
  Fe  Fe42      1.0  0.97979  0.30024  0.47279  1.0000
  S   S86       1.0  0.94164  0.24152  0.49278  1.0000
  S   S87       1.0  0.95950  0.32899  0.44637  1.0000
  C   C292      1.0  0.53042  0.00623  0.51013  1.0000
  H   H491      1.0  0.90200  0.36386  0.47104  1.0000
  H   H492      1.0  0.71638  0.05866  0.61387  1.0000
  H   H493      1.0  0.85509  0.35983  0.53892  1.0000
  H   H494      1.0  0.91036  0.46661  0.51658  1.0000
  H   H495      1.0  0.84214  0.37162  0.46453  1.0000
  Fe  Fe43      1.0  0.71435  0.07666  0.51869  1.0000
  S   S88       1.0  0.75307  0.14264  0.50882  1.0000
  S   S89       1.0  0.67560  0.05895  0.55071  1.0000
  C   C293      1.0  0.88877  0.21322  0.49492  1.0000
  C   C294      1.0  0.86487  0.22975  0.48943  1.0000
  C   C295      1.0  0.82325  0.20749  0.49343  1.0000
  C   C296      1.0  0.80499  0.16813  0.50237  1.0000
  C   C297      1.0  0.82865  0.15090  0.50682  1.0000
  C   C298      1.0  0.87042  0.17359  0.50345  1.0000
  H   H496      1.0  0.87858  0.25977  0.48234  1.0000
  H   H497      1.0  0.80500  0.22069  0.48949  1.0000
  H   H498      1.0  0.81483  0.12030  0.51305  1.0000
  H   H499      1.0  0.88868  0.16039  0.50740  1.0000
  H   H500      1.0  0.56198  0.41321  0.47886  1.0000
  H   H501      1.0  0.93465  0.15692  0.38745  1.0000
  H   H502      1.0  0.53223  0.35589  0.50748  1.0000
  H   H503      1.0  0.83835  0.05072  0.55818  1.0000
  H   H504      1.0  0.84380  0.29524  0.54183  1.0000
  C   C299      1.0  0.51724  0.41390  0.51346  1.0000
  H   H505      1.0  0.86929  0.13744  0.33967  1.0000
  H   H506      1.0  0.86284  0.40846  0.49645  1.0000
  H   H507      1.0  0.87168  0.31662  0.48380  1.0000
  C   C300      1.0  0.52037  0.03546  0.47501  1.0000
  H   H508      1.0  0.82379  0.05462  0.58668  1.0000
  C   C301      1.0  0.73134  0.04661  0.62413  1.0000
  C   C302      1.0  0.76940  0.01515  0.65137  1.0000
  C   C303      1.0  0.89073  0.40865  0.50135  1.0000
  H   H509      1.0  0.52466  0.38758  0.45860  1.0000
  S   S90       1.0  0.73624  0.03384  0.52559  1.0000
  H   H510      1.0  0.84026  0.15431  0.63664  1.0000
  H   H511      1.0  0.99507  0.32529  0.33708  1.0000
  H   H512      1.0  0.87112  0.10978  0.37498  1.0000
  S   S91       1.0  0.66442  0.03402  0.49594  1.0000
  Fe  Fe44      1.0  0.69516  0.01353  0.55653  1.0000
  N   N20       1.0  0.93356  0.16399  0.33770  1.0000
  H   H513      1.0  0.90804  0.09681  0.36623  1.0000
  N   N21       1.0  0.83452  0.13441  0.57793  1.0000
  C   C304      1.0  0.84986  0.11057  0.56560  1.0000
  C   C305      1.0  0.86077  0.17766  0.57056  1.0000
  C   C306      1.0  0.79190  0.11941  0.57052  1.0000
  C   C307      1.0  0.83624  0.12775  0.60343  1.0000
  C   C308      1.0  0.82464  0.06463  0.56861  1.0000
  C   C309      1.0  0.90554  0.19671  0.57620  1.0000
  C   C310      1.0  0.77592  0.14873  0.57232  1.0000
  C   C311      1.0  0.82619  0.15258  0.61973  1.0000
  H   H514      1.0  0.85265  0.11737  0.54677  1.0000
  H   H515      1.0  0.88039  0.11882  0.57142  1.0000
  H   H516      1.0  0.85069  0.19728  0.57812  1.0000
  H   H517      1.0  0.85857  0.18106  0.55164  1.0000
  H   H518      1.0  0.78809  0.11082  0.55211  1.0000
  H   H519      1.0  0.77073  0.09161  0.58026  1.0000
  H   H520      1.0  0.81478  0.09605  0.60832  1.0000
  H   H521      1.0  0.86559  0.13134  0.60853  1.0000
  C   C312      1.0  0.89209  0.12798  0.33931  1.0000
  C   C313      1.0  0.53521  0.44632  0.46511  1.0000
  H   H522      1.0  0.55060  0.47062  0.47767  1.0000
  H   H523      1.0  0.91052  0.19394  0.59473  1.0000
  H   H524      1.0  0.92044  0.18423  0.56562  1.0000
  H   H525      1.0  0.92073  0.22920  0.57178  1.0000
  H   H526      1.0  0.78973  0.17276  0.55889  1.0000
  H   H527      1.0  0.78014  0.16211  0.58944  1.0000
  H   H528      1.0  0.74333  0.13243  0.56899  1.0000
  H   H529      1.0  0.79341  0.13830  0.62251  1.0000
  H   H530      1.0  0.83857  0.18404  0.61406  1.0000
  C   C314      1.0  0.92488  0.33230  0.51494  1.0000
  H   H531      1.0  0.79731  0.28616  0.52964  1.0000
  C   C315      1.0  0.91989  0.36941  0.51628  1.0000
  C   C316      1.0  0.83865  0.34224  0.46960  1.0000
  H   H532      1.0  0.94736  0.39415  0.50790  1.0000
  H   H533      1.0  0.54938  0.42436  0.51673  1.0000
  C   C317      1.0  0.84745  0.34573  0.52177  1.0000
  H   H534      1.0  0.57696  0.04146  0.48541  1.0000
  H   H535      1.0  0.93966  0.44523  0.52524  1.0000
  H   H536      1.0  0.83555  0.32607  0.45342  1.0000
  N   N22       1.0  0.88295  0.36659  0.50563  1.0000
  Fe  Fe45      1.0  0.62682  0.01334  0.52810  1.0000
  H   H537      1.0  0.88992  0.42648  0.53735  1.0000
  H   H538      1.0  0.83283  0.28423  0.51181  1.0000
  C   C318      1.0  0.90855  0.43782  0.52153  1.0000
  C   C319      1.0  0.83003  0.30052  0.52642  1.0000
  H   H539      1.0  0.92190  0.37727  0.53475  1.0000
  C   C320      1.0  0.87541  0.34686  0.48257  1.0000
  H   H540      1.0  0.89922  0.30465  0.52198  1.0000
  C   C321      1.0  0.88253  0.09990  0.36043  1.0000
  H   H541      1.0  0.55378  0.45650  0.44915  1.0000
  H   H542      1.0  0.85917  0.06913  0.35579  1.0000
  H   H543      1.0  0.93117  0.32733  0.49706  1.0000
  H   H544      1.0  0.50503  0.42201  0.54887  1.0000
  H   H545      1.0  0.82242  0.35018  0.51613  1.0000
  C   C322      1.0  0.74444  0.06087  0.64649  1.0000
  H   H546      1.0  0.91221  0.19490  0.35935  1.0000
  H   H547      1.0  0.91137  0.42299  0.48645  1.0000
  H   H548      1.0  0.95129  0.33770  0.52519  1.0000
  H   H549      1.0  0.81061  0.32424  0.47965  1.0000
  H   H550      1.0  0.53262  0.05318  0.45941  1.0000
  C   C323      1.0  0.54567  0.02886  0.48976  1.0000
  H   H551      1.0  0.98546  0.19378  0.37911  1.0000
  S   S92       1.0  0.98094  0.43366  0.46484  1.0000
  H   H552      1.0  0.99564  0.17963  0.33530  1.0000
  H   H553      1.0  0.51403  0.32797  0.46731  1.0000
  H   H554      1.0  0.79380  0.05261  0.56237  1.0000
  H   H555      1.0  0.96294  0.22424  0.35078  1.0000
  C   C324      1.0  0.53151  0.40664  0.47380  1.0000
  H   H556      1.0  0.95367  0.20885  0.39219  1.0000
  C   C325      1.0  0.95402  0.18715  0.37999  1.0000
  C   C326      1.0  0.96565  0.15265  0.33842  1.0000
  H   H557      1.0  0.96795  0.14122  0.35558  1.0000
  C   C327      1.0  0.93991  0.19346  0.35632  1.0000
  H   H558      1.0  0.50581  0.44296  0.46083  1.0000
  H   H559      1.0  0.51574  0.44142  0.50968  1.0000
  C   C328      1.0  0.73709  0.01636  0.61529  1.0000
  H   H560      1.0  0.64058  0.01564  0.43540  1.0000
  H   H561      1.0  0.93353  0.09118  0.32509  1.0000
  C   C329      1.0  0.97581  0.50062  0.47503  1.0000
  H   H562      1.0  0.73956  0.08402  0.65323  1.0000
  C   C330      1.0  0.99491  0.47854  0.48024  1.0000
  H   H563      1.0  0.95423  0.49086  0.46134  1.0000
  Fe  Fe46      1.0  0.00262  0.38802  0.46260  1.0000
  H   H564      1.0  0.74631  0.11444  0.74383  1.0000
  S   S93       1.0  0.82044  0.07108  0.75029  1.0000
  S   S94       1.0  0.77941  0.06431  0.68836  1.0000
  H   H565      1.0  0.97462  0.17801  0.93719  1.0000
  Fe  Fe47      1.0  0.87845  0.07073  0.74873  1.0000
  S   S95       1.0  0.93532  0.11813  0.76503  1.0000
  C   C331      1.0  0.99044  0.21133  0.93680  1.0000
  H   H566      1.0  0.98811  0.22012  0.91878  1.0000
  S   S96       1.0  0.70165  0.06718  0.94660  1.0000
  H   H567      1.0  0.91107  0.16263  0.92676  1.0000
  C   C332      1.0  0.67453  0.07535  0.76438  1.0000
  H   H568      1.0  0.89380  0.44492  0.97679  1.0000
  H   H569      1.0  0.84393  0.21862  0.96245  1.0000
  H   H570      1.0  0.79048  0.14728  0.96621  1.0000
  H   H571      1.0  0.88279  0.16384  0.95144  1.0000
  C   C333      1.0  0.72759  0.08312  0.73804  1.0000
  C   C334      1.0  0.95621  0.20062  0.97479  1.0000
  H   H572      1.0  0.70814  0.00939  0.72137  1.0000
  C   C335      1.0  0.75004  0.09379  0.78910  1.0000
  H   H573      1.0  0.92037  0.23689  0.95193  1.0000
  Fe  Fe48      1.0  0.63948  0.01901  0.95785  1.0000
  H   H574      1.0  0.62418  0.02399  0.78258  1.0000
  S   S97       1.0  0.85259  0.01020  0.76580  1.0000
  Fe  Fe49      1.0  0.70645  0.01839  0.92837  1.0000
  C   C336      1.0  0.99665  0.26919  0.95944  1.0000
  H   H575      1.0  0.67766  0.14766  0.96407  1.0000
  C   C337      1.0  0.98163  0.13674  0.75062  1.0000
  C   C338      1.0  0.93391  0.22290  0.94139  1.0000
  H   H576      1.0  0.77404  0.11633  0.77768  1.0000
  H   H577      1.0  0.73247  0.10553  0.70303  1.0000
  H   H578      1.0  0.95668  0.11608  0.71720  1.0000
  C   C339      1.0  0.52134  0.03683  0.97000  1.0000
  H   H579      1.0  0.53673  0.43505  0.96525  1.0000
  Fe  Fe50      1.0  0.79380  0.00865  0.76500  1.0000
  H   H580      1.0  0.98620  0.30496  0.93355  1.0000
  H   H581      1.0  0.69398  0.10780  0.76784  1.0000
  Fe  Fe51      1.0  0.80861  0.04309  0.71515  1.0000
  H   H582      1.0  0.74323  0.04389  0.77041  1.0000
  H   H583      1.0  0.52179  0.04710  0.95253  1.0000
  H   H584      1.0  0.66459  0.08766  0.98461  1.0000
  H   H585      1.0  0.68914  0.09921  0.71773  1.0000
  C   C340      1.0  0.81241  0.16085  0.97961  1.0000
  H   H586      1.0  0.70335  0.03149  0.78961  1.0000
  H   H587      1.0  0.73304  0.10670  0.79696  1.0000
  H   H588      1.0  0.80409  0.04885  0.81880  1.0000
  C   C341      1.0  0.76350  0.04523  0.66028  1.0000
  H   H589      1.0  0.69116  0.05636  0.70701  1.0000
  S   S98       1.0  0.74508  0.03887  0.89532  1.0000
  H   H590      1.0  0.64600  0.15682  0.98308  1.0000
  C   C342      1.0  0.98382  0.13175  0.72700  1.0000
  H   H591      1.0  0.87832  0.18257  0.92425  1.0000
  C   C343      1.0  0.67119  0.01540  0.74854  1.0000
  H   H592      1.0  0.65443  0.07406  0.75035  1.0000
  C   C344      1.0  0.84272  0.20129  0.97754  1.0000
  H   H593      1.0  0.76518  0.08744  0.80339  1.0000
  H   H594      1.0  0.94236  0.23991  0.92476  1.0000
  H   H595      1.0  0.99986  0.18067  0.97994  1.0000
  C   C345      1.0  0.90002  0.18030  0.93577  1.0000
  H   H596      1.0  0.66432  0.05697  0.80128  1.0000
  N   N23       1.0  0.97025  0.22599  0.95306  1.0000
  C   C346      1.0  0.54946  0.02556  0.97651  1.0000
  S   S99       1.0  0.86930  0.04839  0.71258  1.0000
  Fe  Fe52      1.0  0.72399  0.04936  0.97758  1.0000
  H   H597      1.0  0.63116  0.07182  0.78955  1.0000
  C   C347      1.0  0.64727  0.05551  0.78567  1.0000
  C   C348      1.0  0.72301  0.05441  0.77654  1.0000
  H   H598      1.0  0.64953  0.01547  0.73599  1.0000
  N   N24       1.0  0.69908  0.05708  0.75687  1.0000
  C   C349      1.0  0.77830  0.03117  0.82980  1.0000
  H   H599      1.0  0.94074  0.21143  0.98635  1.0000
  H   H600      1.0  0.87310  0.49069  0.97103  1.0000
  C   C350      1.0  0.74427  0.02099  0.86713  1.0000
  H   H601      1.0  0.95311  0.02748  0.72630  1.0000
  H   H602      1.0  0.51181  0.38805  0.95128  1.0000
  H   H603      1.0  0.74928  0.07320  0.73377  1.0000
  H   H604      1.0  0.98089  0.27812  0.97196  1.0000
  C   C351      1.0  0.70829  0.08574  0.71536  1.0000
  H   H605      1.0  0.93389  0.16905  0.97104  1.0000
  C   C352      1.0  0.96709  0.01336  0.71634  1.0000
  H   H606      1.0  0.62485  0.11546  0.96407  1.0000
  S   S100      1.0  0.58589  0.02970  0.95591  1.0000
  C   C353      1.0  0.77738  0.04351  0.85239  1.0000
  H   H607      1.0  0.80257  0.07080  0.85853  1.0000
  C   C354      1.0  0.65069  0.13347  0.97538  1.0000
  C   C355      1.0  0.98832  0.19791  0.98901  1.0000
  C   C356      1.0  0.51096  0.40412  0.96673  1.0000
  H   H608      1.0  0.95644  0.01120  0.69842  1.0000
  S   S101      1.0  0.73193  0.00304  0.95929  1.0000
  H   H609      1.0  0.54007  0.37916  0.98689  1.0000
  H   H610      1.0  0.98516  0.04161  0.75936  1.0000
  C   C357      1.0  0.51260  0.38152  0.98847  1.0000
  S   S102      1.0  0.66180  0.00504  0.99018  1.0000
  Fe  Fe53      1.0  0.70136  0.71142  0.06055  1.0000
  S   S103      1.0  0.74553  0.74624  0.03239  1.0000
  S   S104      1.0  0.70654  0.74522  0.09370  1.0000
  Fe  Fe54      1.0  0.65219  0.64072  0.02801  1.0000
  C   C358      1.0  0.87661  0.79413  0.16596  1.0000
  S   S105      1.0  0.59197  0.58103  0.02839  1.0000
  Fe  Fe55      1.0  0.74417  0.68899  0.02376  1.0000
  H   H611      1.0  0.50887  0.52153  0.03316  1.0000
  Fe  Fe56      1.0  0.69376  0.72641  0.00882  1.0000
  H   H612      1.0  0.83787  0.52543  0.02938  1.0000
  S   S106      1.0  0.70213  0.65464  0.05346  1.0000
  S   S107      1.0  0.64885  0.69557  0.03727  1.0000
  Fe  Fe57      1.0  0.79927  0.79961  0.22164  1.0000
  S   S108      1.0  0.80742  0.78311  0.25804  1.0000
  S   S109      1.0  0.78176  0.75336  0.19313  1.0000
  Fe  Fe58      1.0  0.83385  0.88780  0.23358  1.0000
  S   S110      1.0  0.84430  0.87841  0.27042  1.0000
  S   S111      1.0  0.85994  0.94727  0.21443  1.0000
  Fe  Fe59      1.0  0.86717  0.83981  0.25659  1.0000
  S   S112      1.0  0.92291  0.84588  0.27291  1.0000
  Fe  Fe60      1.0  0.78371  0.82254  0.26977  1.0000
  S   S113      1.0  0.74135  0.81072  0.30043  1.0000
  S   S114      1.0  0.86123  0.85307  0.21981  1.0000
  S   S115      1.0  0.77092  0.83513  0.23330  1.0000
  C   C359      1.0  0.87813  0.50702  0.01511  1.0000
  H   H613      1.0  0.79778  0.83743  0.02059  1.0000
  C   C360      1.0  0.81613  0.64313  0.99913  1.0000
  H   H614      1.0  0.55964  0.63549  0.02370  1.0000
  C   C361      1.0  0.96770  0.86549  0.25688  1.0000
  H   H615      1.0  0.79056  0.86352  0.99671  1.0000
  S   S116      1.0  0.80923  0.70581  0.01739  1.0000
  C   C362      1.0  0.87558  0.76107  0.21476  1.0000
  H   H616      1.0  0.56873  0.00227  0.00427  1.0000
  H   H617      1.0  0.94209  0.81419  0.19601  1.0000
  H   H618      1.0  0.88025  0.74183  0.15796  1.0000
  H   H619      1.0  0.94610  0.78805  0.17241  1.0000
  S   S117      1.0  0.69462  0.67110  0.99804  1.0000
  H   H620      1.0  0.83529  0.96460  0.25823  1.0000
  C   C363      1.0  0.55598  0.54995  0.00771  1.0000
  H   H621      1.0  0.95013  0.99598  0.28609  1.0000
  H   H622      1.0  0.54243  0.66282  0.03946  1.0000
  C   C364      1.0  0.55823  0.68472  0.00427  1.0000
  C   C365      1.0  0.97400  0.99046  0.22694  1.0000
  C   C366      1.0  0.64346  0.83161  0.00182  1.0000
  H   H623      1.0  0.91853  0.96364  0.26334  1.0000
  H   H624      1.0  0.99859  0.80621  0.20183  1.0000
  H   H625      1.0  0.94094  0.86190  0.22401  1.0000
  H   H626      1.0  0.52011  0.00149  0.03267  1.0000
  H   H627      1.0  0.88568  0.72666  0.24211  1.0000
  C   C367      1.0  0.72917  0.74786  0.12086  1.0000
  C   C368      1.0  0.73136  0.77575  0.13696  1.0000
  C   C369      1.0  0.74814  0.77851  0.15889  1.0000
  C   C370      1.0  0.76235  0.75284  0.16522  1.0000
  C   C371      1.0  0.76033  0.72506  0.14909  1.0000
  C   C372      1.0  0.74417  0.72276  0.12700  1.0000
  H   H628      1.0  0.71955  0.79508  0.13257  1.0000
  H   H629      1.0  0.74917  0.79984  0.17109  1.0000
  H   H630      1.0  0.77087  0.70479  0.15378  1.0000
  H   H631      1.0  0.74256  0.70102  0.11492  1.0000
  C   C373      1.0  0.77384  0.91098  0.04989  1.0000
  C   C374      1.0  0.76639  0.93395  0.03037  1.0000
  H   H632      1.0  0.80636  0.92131  0.04999  1.0000
  H   H633      1.0  0.76848  0.92207  0.06631  1.0000
  H   H634      1.0  0.78325  0.96649  0.03390  1.0000
  C   C375      1.0  0.65483  0.80235  0.00047  1.0000
  H   H635      1.0  0.73439  0.92509  0.02903  1.0000
  H   H636      1.0  0.77688  0.84209  0.10173  1.0000
  H   H637      1.0  0.64657  0.80247  0.06067  1.0000
  H   H638      1.0  0.93197  0.70799  0.99354  1.0000
  C   C376      1.0  0.85679  0.99252  0.24988  1.0000
  C   C377      1.0  0.88988  0.71168  0.19610  1.0000
  H   H639      1.0  0.85760  0.79004  0.15078  1.0000
  H   H640      1.0  0.94768  0.99323  0.23113  1.0000
  H   H641      1.0  0.96302  0.77031  0.22160  1.0000
  H   H642      1.0  0.83052  0.67843  0.21333  1.0000
  H   H643      1.0  0.68325  0.80093  0.07836  1.0000
  H   H644      1.0  0.69240  0.86194  0.04110  1.0000
  N   N25       1.0  0.89388  0.75251  0.19425  1.0000
  C   C378      1.0  0.54160  0.65033  0.02227  1.0000
  H   H645      1.0  0.68035  0.78884  0.04844  1.0000
  C   C379      1.0  0.83542  0.68294  0.00612  1.0000
  H   H646      1.0  0.81552  0.89029  0.02146  1.0000
  H   H647      1.0  0.88076  0.79196  0.21367  1.0000
  H   H648      1.0  0.73495  0.86126  0.01272  1.0000
  C   C380      1.0  0.76648  0.85921  0.09112  1.0000
  H   H649      1.0  0.85757  0.54766  0.00182  1.0000
  H   H650      1.0  0.74925  0.81476  0.06472  1.0000
  H   H651      1.0  0.78777  0.89142  0.09381  1.0000
  H   H652      1.0  0.73654  0.85136  0.09781  1.0000
  H   H653      1.0  0.79711  0.85712  0.06100  1.0000
  C   C381      1.0  0.74950  0.85108  0.02545  1.0000
  H   H654      1.0  0.78395  0.62503  0.00068  1.0000
  C   C382      1.0  0.67797  0.80892  0.06087  1.0000
  N   N26       1.0  0.74896  0.86596  0.04915  1.0000
  C   C383      1.0  0.76573  0.84797  0.06573  1.0000
  C   C384      1.0  0.79082  0.86120  0.01577  1.0000
  H   H655      1.0  0.70503  0.87050  0.07039  1.0000
  C   C385      1.0  0.70634  0.85378  0.05532  1.0000
  H   H656      1.0  0.87297  0.76217  0.25192  1.0000
  H   H657      1.0  0.73097  0.81795  0.02502  1.0000
  C   C386      1.0  0.96337  0.56694  0.02941  1.0000
  H   H658      1.0  0.89249  0.73683  0.00949  1.0000
  C   C387      1.0  0.84680  0.67590  0.19833  1.0000
  H   H659      1.0  0.64286  0.77753  0.01263  1.0000
  H   H660      1.0  0.88826  0.56549  0.02712  1.0000
  H   H661      1.0  0.84251  0.74133  0.21497  1.0000
  H   H662      1.0  0.62266  0.82912  0.01511  1.0000
  H   H663      1.0  0.82939  0.67182  0.18247  1.0000
  C   C388      1.0  0.96919  0.77806  0.20314  1.0000
  H   H664      1.0  0.76955  0.75642  0.31607  1.0000
  H   H665      1.0  0.84804  0.64802  0.20101  1.0000
  C   C389      1.0  0.94127  0.96838  0.27637  1.0000
  C   C390      1.0  0.89039  0.75697  0.23860  1.0000
  C   C391      1.0  0.87730  0.70606  0.00403  1.0000
  C   C392      1.0  0.93732  0.78449  0.19094  1.0000
  H   H666      1.0  0.53733  0.69655  0.00493  1.0000
  H   H667      1.0  0.83868  0.73262  0.17545  1.0000
  H   H668      1.0  0.77731  0.92996  0.01352  1.0000
  H   H669      1.0  0.90779  0.81625  0.16088  1.0000
  H   H670      1.0  0.98744  0.55938  0.03098  1.0000
  H   H671      1.0  0.92197  0.78005  0.24116  1.0000
  C   C393      1.0  0.96827  0.86987  0.23296  1.0000
  H   H672      1.0  0.86630  0.80670  0.17954  1.0000
  C   C394      1.0  0.86516  0.53850  0.01833  1.0000
  H   H673      1.0  0.90633  0.70931  0.21109  1.0000
  H   H674      1.0  0.90390  0.70647  0.18078  1.0000
  C   C395      1.0  0.87142  0.75306  0.17313  1.0000
  C   C396      1.0  0.89977  0.68980  0.99499  1.0000
  H   H675      1.0  0.96088  0.95872  0.22161  1.0000
  H   H676      1.0  0.94016  0.54944  0.04256  1.0000
  N   N27       1.0  0.91364  0.51937  0.99935  1.0000
  H   H677      1.0  0.99727  0.97204  0.28111  1.0000
  H   H678      1.0  0.92636  0.94308  0.28898  1.0000
  H   H679      1.0  0.58737  0.70891  0.01077  1.0000
  C   C397      1.0  0.94730  0.56061  0.00461  1.0000
  H   H680      1.0  0.50983  0.62810  0.01906  1.0000
  H   H681      1.0  0.97559  0.59880  0.03395  1.0000
  C   C398      1.0  0.97787  0.96812  0.26616  1.0000
  C   C399      1.0  0.87343  0.99209  0.22860  1.0000
  H   H682      1.0  0.97272  0.75452  0.19459  1.0000
  H   H683      1.0  0.93963  0.58407  0.00019  1.0000
  C   C400      1.0  0.51669  0.52259  0.01519  1.0000
  H   H684      1.0  0.96726  0.93733  0.25990  1.0000
  N   N28       1.0  0.00084  0.99854  0.24735  1.0000
  H   H685      1.0  0.51916  0.59366  0.99099  1.0000
  H   H686      1.0  0.97359  0.56840  0.99334  1.0000
  Fe  Fe61      1.0  0.68485  0.70207  0.42951  1.0000
  S   S118      1.0  0.71345  0.74814  0.45705  1.0000
  S   S119      1.0  0.71324  0.70859  0.39382  1.0000
  Fe  Fe62      1.0  0.62434  0.63766  0.46425  1.0000
  S   S120      1.0  0.64998  0.67966  0.49390  1.0000
  S   S121      1.0  0.56926  0.57370  0.46378  1.0000
  Fe  Fe63      1.0  0.65102  0.72676  0.47001  1.0000
  S   S122      1.0  0.62495  0.76254  0.48613  1.0000
  Fe  Fe64      1.0  0.71082  0.69808  0.47882  1.0000
  S   S123      1.0  0.76720  0.71760  0.49995  1.0000
  S   S124      1.0  0.62200  0.68383  0.44088  1.0000
  S   S125      1.0  0.68548  0.65291  0.45081  1.0000
  Fe  Fe65      1.0  0.94162  0.66510  0.52138  1.0000
  S   S126      1.0  0.87621  0.63767  0.51081  1.0000
  S   S127      1.0  0.95741  0.63221  0.54806  1.0000
  Fe  Fe66      1.0  0.68294  0.98902  0.50586  1.0000
  S   S128      1.0  0.69049  0.95040  0.47932  1.0000
  S   S129      1.0  0.64296  0.96584  0.53690  1.0000
  H   H687      1.0  0.69890  0.80435  0.34241  1.0000
  H   H688      1.0  0.82540  0.65117  0.64077  1.0000
  C   C401      1.0  0.53211  0.53890  0.48360  1.0000
  C   C402      1.0  0.53768  0.54074  0.50741  1.0000
  H   H689      1.0  0.56556  0.56375  0.51440  1.0000
  C   C403      1.0  0.64356  0.81478  0.48371  1.0000
  C   C404      1.0  0.62677  0.83197  0.49777  1.0000
  C   C405      1.0  0.64095  0.87344  0.49674  1.0000
  C   C406      1.0  0.67168  0.89808  0.48133  1.0000
  C   C407      1.0  0.68802  0.88080  0.46701  1.0000
  C   C408      1.0  0.67433  0.83942  0.46833  1.0000
  H   H690      1.0  0.60287  0.81312  0.50967  1.0000
  H   H691      1.0  0.62801  0.88630  0.50778  1.0000
  H   H692      1.0  0.71168  0.89958  0.45494  1.0000
  H   H693      1.0  0.68739  0.82659  0.45732  1.0000
  C   C409      1.0  0.79773  0.69543  0.50153  1.0000
  C   C410      1.0  0.78371  0.65575  0.49541  1.0000
  C   C411      1.0  0.80844  0.63884  0.49798  1.0000
  C   C412      1.0  0.84759  0.66149  0.50633  1.0000
  C   C413      1.0  0.86196  0.70149  0.51189  1.0000
  C   C414      1.0  0.83696  0.71817  0.50976  1.0000
  H   H694      1.0  0.75354  0.63784  0.48920  1.0000
  H   H695      1.0  0.79702  0.60785  0.49367  1.0000
  H   H696      1.0  0.89207  0.71939  0.51819  1.0000
  H   H697      1.0  0.84808  0.74891  0.51450  1.0000
  H   H698      1.0  0.57749  0.96189  0.48836  1.0000
  C   C415      1.0  0.70542  0.76354  0.36544  1.0000
  C   C416      1.0  0.72150  0.73843  0.36838  1.0000
  C   C417      1.0  0.74479  0.73626  0.35040  1.0000
  H   H699      1.0  0.68735  0.76551  0.37898  1.0000
  H   H700      1.0  0.75700  0.71665  0.35229  1.0000
  C   C418      1.0  0.97538  0.76987  0.63445  1.0000
  H   H701      1.0  0.84787  0.58238  0.58483  1.0000
  H   H702      1.0  0.60954  0.91099  0.45005  1.0000
  H   H703      1.0  0.80312  0.62680  0.59902  1.0000
  H   H704      1.0  0.71314  0.81251  0.55014  1.0000
  H   H705      1.0  0.57015  0.83905  0.44788  1.0000
  S   S130      1.0  0.98770  0.66981  0.49567  1.0000
  H   H706      1.0  0.50387  0.63377  0.43794  1.0000
  H   H707      1.0  0.55004  0.63866  0.46919  1.0000
  C   C419      1.0  0.98539  0.75223  0.61648  1.0000
  C   C420      1.0  0.85072  0.60735  0.57369  1.0000
  C   C421      1.0  0.54071  0.63064  0.52111  1.0000
  H   H708      1.0  0.88594  0.72634  0.59576  1.0000
  S   S131      1.0  0.72114  0.99666  0.58734  1.0000
  H   H709      1.0  0.87410  0.61296  0.56055  1.0000
  S   S132      1.0  0.98128  0.72537  0.53678  1.0000
  H   H710      1.0  0.82572  0.60583  0.61562  1.0000
  C   C422      1.0  0.84132  0.66617  0.62448  1.0000
  H   H711      1.0  0.51230  0.51392  0.54061  1.0000
  H   H712      1.0  0.63918  0.87206  0.58288  1.0000
  C   C423      1.0  0.75625  0.00085  0.62905  1.0000
  H   H713      1.0  0.71410  0.87063  0.51295  1.0000
  H   H714      1.0  0.83322  0.67099  0.56846  1.0000
  H   H715      1.0  0.88354  0.73916  0.56640  1.0000
  C   C424      1.0  0.73527  0.78334  0.32663  1.0000
  H   H716      1.0  0.81023  0.61246  0.54857  1.0000
  H   H717      1.0  0.71416  0.80777  0.51974  1.0000
  H   H718      1.0  0.93879  0.64334  0.61998  1.0000
  H   H719      1.0  0.66934  0.91851  0.56823  1.0000
  H   H720      1.0  0.91626  0.68633  0.60590  1.0000
  H   H721      1.0  0.87518  0.67403  0.55404  1.0000
  H   H722      1.0  0.84882  0.77162  0.36323  1.0000
  H   H723      1.0  0.81810  0.79861  0.43290  1.0000
  C   C425      1.0  0.90811  0.62839  0.61284  1.0000
  H   H724      1.0  0.78478  0.57894  0.57283  1.0000
  C   C426      1.0  0.57672  0.89810  0.44794  1.0000
  C   C427      1.0  0.71205  0.78557  0.34464  1.0000
  C   C428      1.0  0.81067  0.59044  0.56083  1.0000
  H   H725      1.0  0.76084  0.97743  0.62247  1.0000
  N   N29       1.0  0.72150  0.89150  0.54796  1.0000
  C   C429      1.0  0.72835  0.93015  0.53689  1.0000
  C   C430      1.0  0.67937  0.86984  0.55751  1.0000
  C   C431      1.0  0.72618  0.86684  0.52957  1.0000
  C   C432      1.0  0.75240  0.90227  0.56642  1.0000
  H   H726      1.0  0.57134  0.89587  0.42906  1.0000
  C   C433      1.0  0.66970  0.89222  0.57581  1.0000
  C   C434      1.0  0.70515  0.82112  0.53367  1.0000
  C   C435      1.0  0.74924  0.86791  0.58179  1.0000
  C   C436      1.0  0.76672  0.95345  0.52201  1.0000
  H   H727      1.0  0.51158  0.59600  0.48301  1.0000
  H   H728      1.0  0.67127  0.84034  0.56526  1.0000
  H   H729      1.0  0.65765  0.86275  0.54333  1.0000
  C   C437      1.0  0.54914  0.90173  0.50156  1.0000
  H   H730      1.0  0.75837  0.87748  0.52614  1.0000
  H   H731      1.0  0.78287  0.91664  0.55862  1.0000
  H   H732      1.0  0.75398  0.92597  0.57779  1.0000
  H   H733      1.0  0.56940  0.96018  0.42748  1.0000
  H   H734      1.0  0.51065  0.90070  0.43695  1.0000
  H   H735      1.0  0.56435  0.68766  0.50499  1.0000
  C   C438      1.0  0.86390  0.67605  0.57129  1.0000
  H   H736      1.0  0.60684  0.93894  0.48515  1.0000
  H   H737      1.0  0.81970  0.71893  0.36729  1.0000
  H   H738      1.0  0.79422  0.96292  0.53206  1.0000
  C   C439      1.0  0.58280  0.96402  0.44488  1.0000
  H   H739      1.0  0.50802  0.93980  0.48252  1.0000
  H   H740      1.0  0.76522  0.85387  0.57382  1.0000
  H   H741      1.0  0.71828  0.84467  0.58619  1.0000
  H   H742      1.0  0.76317  0.88019  0.59864  1.0000
  C   C440      1.0  0.89047  0.72021  0.57786  1.0000
  H   H743      1.0  0.72973  0.95136  0.55006  1.0000
  H   H744      1.0  0.88719  0.61915  0.62770  1.0000
  H   H745      1.0  0.56841  0.89731  0.51397  1.0000
  C   C441      1.0  0.90425  0.65808  0.59650  1.0000
  H   H746      1.0  0.69054  0.90153  0.59048  1.0000
  H   H747      1.0  0.87305  0.68373  0.62942  1.0000
  H   H748      1.0  0.56128  0.62477  0.51073  1.0000
  H   H749      1.0  0.53265  0.91289  0.51188  1.0000
  C   C442      1.0  0.51751  0.62330  0.47339  1.0000
  C   C443      1.0  0.75191  0.75875  0.32976  1.0000
  H   H750      1.0  0.92580  0.66537  0.58200  1.0000
  C   C444      1.0  0.84237  0.74679  0.37559  1.0000
  C   C445      1.0  0.51823  0.72155  0.48565  1.0000
  H   H751      1.0  0.67216  0.80715  0.53258  1.0000
  H   H752      1.0  0.70283  0.92467  0.52576  1.0000
  H   H753      1.0  0.90445  0.60185  0.60367  1.0000
  H   H754      1.0  0.85428  0.79085  0.44855  1.0000
  H   H755      1.0  0.83075  0.68676  0.61864  1.0000
  H   H756      1.0  0.76658  0.93642  0.50680  1.0000
  C   C446      1.0  0.57589  0.93350  0.48314  1.0000
  H   H757      1.0  0.87052  0.74629  0.37802  1.0000
  H   H758      1.0  0.95904  0.78519  0.63065  1.0000
  H   H759      1.0  0.79731  0.75221  0.39425  1.0000
  H   H760      1.0  0.57764  0.98670  0.45341  1.0000
  H   H761      1.0  0.56674  0.85470  0.47578  1.0000
  H   H762      1.0  0.92246  0.73005  0.57491  1.0000
  N   N30       1.0  0.82153  0.72644  0.41832  1.0000
  C   C447      1.0  0.82626  0.75392  0.39825  1.0000
  C   C448      1.0  0.80074  0.73526  0.43739  1.0000
  C   C449      1.0  0.79508  0.68396  0.41067  1.0000
  C   C450      1.0  0.86241  0.73380  0.42495  1.0000
  H   H763      1.0  0.84705  0.78575  0.40250  1.0000
  C   C451      1.0  0.82206  0.77895  0.44544  1.0000
  C   C452      1.0  0.78349  0.65045  0.42887  1.0000
  C   C453      1.0  0.86727  0.72216  0.44983  1.0000
  C   C454      1.0  0.53373  0.66240  0.50903  1.0000
  C   C455      1.0  0.83247  0.63404  0.60639  1.0000
  H   H764      1.0  0.79573  0.71635  0.45287  1.0000
  H   H765      1.0  0.77012  0.72761  0.43201  1.0000
  H   H766      1.0  0.76669  0.68019  0.40355  1.0000
  H   H767      1.0  0.80951  0.67663  0.39650  1.0000
  H   H768      1.0  0.87236  0.71811  0.41306  1.0000
  H   H769      1.0  0.88487  0.76625  0.42294  1.0000
  H   H770      1.0  0.80648  0.56479  0.55040  1.0000
  Fe  Fe67      1.0  0.00085  0.69337  0.56144  1.0000
  N   N31       1.0  0.86297  0.64454  0.58743  1.0000
  H   H771      1.0  0.80825  0.78043  0.46189  1.0000
  N   N32       1.0  0.56309  0.92485  0.45839  1.0000
  H   H772      1.0  0.76188  0.62145  0.42113  1.0000
  H   H773      1.0  0.76813  0.65364  0.44408  1.0000
  H   H774      1.0  0.80964  0.64777  0.43404  1.0000
  H   H775      1.0  0.88878  0.71105  0.44978  1.0000
  H   H776      1.0  0.83975  0.69840  0.45815  1.0000
  H   H777      1.0  0.88087  0.74883  0.46093  1.0000
  C   C456      1.0  0.55798  0.85509  0.45772  1.0000
  H   H778      1.0  0.96954  0.55192  0.48294  1.0000
  H   H779      1.0  0.55571  0.64242  0.53777  1.0000
  H   H780      1.0  0.55091  0.70000  0.46624  1.0000
  H   H781      1.0  0.63566  0.96896  0.42731  1.0000
  H   H782      1.0  0.64419  0.98403  0.45689  1.0000
  H   H783      1.0  0.52754  0.87191  0.49514  1.0000
  C   C457      1.0  0.51855  0.90657  0.45545  1.0000
  H   H784      1.0  0.76825  0.98110  0.51506  1.0000
  H   H785      1.0  0.51049  0.95935  0.45369  1.0000
  H   H786      1.0  0.52510  0.83773  0.45589  1.0000
  C   C458      1.0  0.51994  0.68730  0.47330  1.0000
  C   C459      1.0  0.62841  0.98399  0.44106  1.0000
  H   H787      1.0  0.51287  0.60215  0.52483  1.0000
  H   H788      1.0  0.52115  0.67385  0.52215  1.0000
  H   H789      1.0  0.97754  0.75474  0.59900  1.0000
  S   S133      1.0  0.56045  0.99561  0.52917  1.0000
  C   C460      1.0  0.50742  0.51221  0.52226  1.0000
  H   H790      1.0  0.53837  0.73248  0.50064  1.0000
  N   N33       1.0  0.50842  0.65003  0.48764  1.0000
  C   C461      1.0  0.98439  0.53533  0.48729  1.0000
  H   H791      1.0  0.52885  0.74746  0.47349  1.0000
  H   H792      1.0  0.62151  0.68284  0.98787  1.0000
  Fe  Fe68      1.0  0.98116  0.85158  0.75647  1.0000
  S   S134      1.0  0.94996  0.88021  0.77432  1.0000
  H   H793      1.0  0.58354  0.70708  0.94730  1.0000
  S   S135      1.0  0.99062  0.64322  0.93568  1.0000
  S   S136      1.0  0.95677  0.78653  0.74868  1.0000
  H   H794      1.0  0.95679  0.55926  0.95654  1.0000
  S   S137      1.0  0.85069  0.93972  0.71600  1.0000
  H   H795      1.0  0.51188  0.58521  0.96053  1.0000
  C   C462      1.0  0.69634  0.83740  0.96736  1.0000
  C   C463      1.0  0.55901  0.73674  0.96630  1.0000
  C   C464      1.0  0.59312  0.66035  0.97975  1.0000
  Fe  Fe69      1.0  0.97462  0.66285  0.96821  1.0000
  H   H796      1.0  0.84382  0.88769  0.83514  1.0000
  C   C465      1.0  0.68561  0.86715  0.96901  1.0000
  H   H797      1.0  0.82320  0.92923  0.78824  1.0000
  C   C466      1.0  0.91066  0.68111  0.91941  1.0000
  H   H798      1.0  0.97169  0.74802  0.89802  1.0000
  H   H799      1.0  0.88071  0.74335  0.89612  1.0000
  H   H800      1.0  0.71643  0.84660  0.79995  1.0000
  C   C467      1.0  0.88966  0.72021  0.89446  1.0000
  H   H801      1.0  0.86125  0.69093  0.89387  1.0000
  C   C468      1.0  0.91030  0.72806  0.87051  1.0000
  H   H802      1.0  0.91901  0.93126  0.78525  1.0000
  C   C469      1.0  0.72910  0.87317  0.81116  1.0000
  H   H803      1.0  0.84648  0.89501  0.80426  1.0000
  H   H804      1.0  0.84817  0.67156  0.94856  1.0000
  Fe  Fe70      1.0  0.66811  0.95976  0.96939  1.0000
  C   C470      1.0  0.77926  0.88050  0.76909  1.0000
  S   S138      1.0  0.64247  0.97137  0.93718  1.0000
  H   H805      1.0  0.92701  0.68189  0.93535  1.0000
  C   C471      1.0  0.95724  0.75288  0.91296  1.0000
  H   H806      1.0  0.91751  0.52491  0.93891  1.0000
  C   C472      1.0  0.96616  0.79645  0.91085  1.0000
  H   H807      1.0  0.62195  0.63684  0.95794  1.0000
  H   H808      1.0  0.71133  0.99017  0.74931  1.0000
  S   S139      1.0  0.64351  0.90005  0.98881  1.0000
  H   H809      1.0  0.69755  0.89203  0.95683  1.0000
  H   H810      1.0  0.67376  0.84377  0.83112  1.0000
  H   H811      1.0  0.90743  0.65830  0.88454  1.0000
  H   H812      1.0  0.84361  0.71310  0.95669  1.0000
  S   S140      1.0  0.97080  0.78878  0.67941  1.0000
  H   H813      1.0  0.95801  0.68564  0.89592  1.0000
  H   H814      1.0  0.57193  0.76073  0.95280  1.0000
  N   N34       1.0  0.91373  0.72119  0.91512  1.0000
  S   S141      1.0  0.90753  0.62867  0.97600  1.0000
  H   H815      1.0  0.85404  0.95088  0.82563  1.0000
  H   H816      1.0  0.83948  0.97885  0.84335  1.0000
  C   C473      1.0  0.78845  0.92563  0.82986  1.0000
  S   S142      1.0  0.77823  0.98054  0.73000  1.0000
  H   H817      1.0  0.54381  0.52599  0.95088  1.0000
  H   H818      1.0  0.83269  0.69648  0.92777  1.0000
  C   C474      1.0  0.70638  0.85840  0.83438  1.0000
  C   C475      1.0  0.89720  0.73047  0.93622  1.0000
  N   N35       1.0  0.77414  0.89309  0.81218  1.0000
  C   C476      1.0  0.92282  0.89670  0.75772  1.0000
  C   C477      1.0  0.91277  0.88510  0.73494  1.0000
  C   C478      1.0  0.89019  0.89809  0.72238  1.0000
  C   C479      1.0  0.87832  0.92338  0.73236  1.0000
  C   C480      1.0  0.88916  0.93560  0.75499  1.0000
  C   C481      1.0  0.91092  0.92192  0.76771  1.0000
  H   H819      1.0  0.92187  0.86566  0.72711  1.0000
  H   H820      1.0  0.88214  0.88871  0.70483  1.0000
  H   H821      1.0  0.88091  0.95561  0.76268  1.0000
  H   H822      1.0  0.59557  0.57121  0.97834  1.0000
  H   H823      1.0  0.71359  0.88341  0.84615  1.0000
  H   H824      1.0  0.71668  0.83963  0.95385  1.0000
  H   H825      1.0  0.93426  0.72057  0.86900  1.0000
  C   C482      1.0  0.79022  0.91075  0.78859  1.0000
  H   H826      1.0  0.62390  0.68051  0.94616  1.0000
  H   H827      1.0  0.92204  0.75959  0.86474  1.0000
  H   H828      1.0  0.91520  0.73253  0.95165  1.0000
  H   H829      1.0  0.94325  0.50705  0.95645  1.0000
  H   H830      1.0  0.68629  0.96807  0.87002  1.0000
  H   H831      1.0  0.87915  0.65721  0.92242  1.0000
  H   H832      1.0  0.71165  0.83577  0.84307  1.0000
  C   C483      1.0  0.92601  0.66529  0.90013  1.0000
  H   H833      1.0  0.92330  0.63657  0.90609  1.0000
  H   H834      1.0  0.89925  0.76012  0.93435  1.0000
  H   H835      1.0  0.52527  0.64787  0.95069  1.0000
  H   H836      1.0  0.76979  0.94012  0.82950  1.0000
  H   H837      1.0  0.95611  0.98239  0.72264  1.0000
  H   H838      1.0  0.88751  0.70968  0.85762  1.0000
  H   H839      1.0  0.77986  0.93185  0.78343  1.0000
  H   H840      1.0  0.68749  0.94630  0.83010  1.0000
  C   C484      1.0  0.83182  0.96061  0.82760  1.0000
  Fe  Fe71      1.0  0.99426  0.80876  0.71595  1.0000
  C   C485      1.0  0.85289  0.70085  0.94229  1.0000
  C   C486      1.0  0.90041  0.51952  0.97498  1.0000
  N   N36       1.0  0.56328  0.67465  0.97998  1.0000
  H   H841      1.0  0.83474  0.98087  0.81307  1.0000
  H   H842      1.0  0.52669  0.71774  0.96280  1.0000
  H   H843      1.0  0.79160  0.86037  0.77198  1.0000
  H   H844      1.0  0.79280  0.89729  0.75279  1.0000
  C   C487      1.0  0.52350  0.64511  0.96981  1.0000
  H   H845      1.0  0.76815  0.83422  0.80878  1.0000
  H   H846      1.0  0.98981  0.98449  0.75473  1.0000
  H   H847      1.0  0.78474  0.91277  0.84757  1.0000
  C   C488      1.0  0.78467  0.86176  0.81911  1.0000
  C   C489      1.0  0.82936  0.87433  0.81860  1.0000
  C   C490      1.0  0.71275  0.97350  0.83625  1.0000
  C   C491      1.0  0.88055  0.65007  0.98800  1.0000
  S   S143      1.0  0.74527  0.97935  0.79314  1.0000
  C   C492      1.0  0.50721  0.60019  0.97538  1.0000
  C   C493      1.0  0.60434  0.65218  0.95580  1.0000
  H   H848      1.0  0.74664  0.86288  0.76617  1.0000
  C   C494      1.0  0.69128  0.99392  0.73729  1.0000
  C   C495      1.0  0.71196  0.98571  0.85893  1.0000
  H   H849      1.0  0.99762  0.81582  0.90489  1.0000
  H   H850      1.0  0.94663  0.80002  0.89831  1.0000
  H   H851      1.0  0.72005  0.89395  0.80332  1.0000
  C   C496      1.0  0.58129  0.71297  0.96575  1.0000
  H   H852      1.0  0.83222  0.84751  0.81565  1.0000
  H   H853      1.0  0.66783  0.96343  0.73233  1.0000
  H   H854      1.0  0.89161  0.54269  0.97258  1.0000
  H   H855      1.0  0.97422  0.75129  0.92799  1.0000
  H   H856      1.0  0.82352  0.59596  0.98484  1.0000
  C   C497      1.0  0.98652  0.76813  0.65730  1.0000
  C   C498      1.0  0.65895  0.86426  0.98621  1.0000
  Fe  Fe72      1.0  0.83958  0.98761  0.72987  1.0000
  H   H857      1.0  0.57772  0.63258  0.94550  1.0000
  H   H858      1.0  0.77430  0.85088  0.83700  1.0000
  H   H859      1.0  0.65272  0.99547  0.76303  1.0000
  H   H860      1.0  0.96360  0.80778  0.92781  1.0000
  C   C499      1.0  0.93163  0.52805  0.95594  1.0000
  H   H861      1.0  0.61247  0.73380  0.97110  1.0000
  C   C500      1.0  0.74582  0.99623  0.82153  1.0000
  S   S144      1.0  0.69558  0.76848  0.98040  1.0000
  C   C501      1.0  0.56543  0.55092  0.98437  1.0000
  C   C502      1.0  0.53601  0.52497  0.96885  1.0000
  H   H862      1.0  0.56344  0.75223  0.98288  1.0000
  C   C503      1.0  0.68127  0.80510  0.98317  1.0000
  H   H863      1.0  0.78398  0.00278  0.66171  1.0000
  H   H864      1.0  0.58314  0.63284  0.99027  1.0000
  C   C504      1.0  0.83867  0.62675  0.99021  1.0000
