data_image0
_chemical_formula_structural       FeS2FeS2Fe2S3FeS2FeS2FeSFeCS2FeS2FeS2FeHFeS3C3NH2C5HCH3C2H2C6H4C2H6CH2C2HC3H4C6H9CH2CH2CH4C2H2CH8NC8H22CH2C2HCHC4HSHC2H2CHC2H3CNC5HC2H2CH17NCH2C2HCH6C2H2SHC2H3CHCHNCHC2H6C3H3CH3CH6CH2C2H4FeS2FeS2Fe2S3FeS2FeS2FeSFeHS2FeS2FeS2FeHFeS3C2HCH3CH2C2HCH3CH2C6H4C2H4C3H2C4HCH2C8H5C2HCH2CH2CH4C2H3CH3CHC2H2CH2SH2CNHCH5C5HN2HNHCH2NC8H21CH7CH4C2H2CHSH3CH4C2H2CH3CHCH3CH5C2H2FeS2FeS2FeSFeS3FeS2FeS2FeSFeS4CH2C6H6C2HC3H5C6H4C6H4CH7CH4CHCH7CH4CH3CH2CH5CHCH4CH3CHC2HC2NH3CHCH4CH4CH2C2HCH3NH2CHCHC2HCH2C2HNH3C2H4CHCHCHCNCHNCH2C3HFeS2FeS2FeSFeS3FeS2FeS2FeSFeS3H3C7H4CH4C3H4NC6H4C6H4CH3C2HC2H3NC7H18CHCH6C3HC2HCHCHNHC2H5SC2HNCH2CHCH2CH7CHCH3C2H7CH2CH2NH2CHCH4CH3C4H5CH8C3HFeS2FeSHFeHFeS3FeSHFeSHFeSFeS3FeS2FeS2FeSFeS3C2H4CH3CHC5H3C6H4CHC2H3SNC2HC6H4NC4H2CH8CHSH6NC8H21CH2CH2C2H4C3HCH2CH2NHC3HCH2NCSC3HCH2CH9CH4CH3C2H2CH5SHCH3CH7C2HCH5C2H4FeS2FeS2FeHFeS3FeSCFeSNFeSFeS3FeS2FeS2FeSFeS3C4H2C2H3C6H3C6H4CHC2H2C2H4C6H4NC7H13CH8C2H10C2H3CH2CH4SCH3NH4CH2CHCHC2HCH4CHC2NC6HCH14C2HCH2NC2HCHCH9CH5NH4NC2HCH2CH2CH2CH3CH2CHCHCH3C2HCH6CNSH2SH5CH5C2H3CH2C2HCHC2H5FeS2FeSFeSFeS3FeS2FeS2FeCFeS3FeS2FeS2FeCFeS3C2HCHC2NHCH5C6H4C6H4C6H4C2H3C2H3CH2CH2CH2CH3CH8NH2NH2C2HCH2C2HCHCH4SHCH3CH2CH4C3HCH3CHC3HC3HCHCH5CH2SCHC2H4CHC2H5C2HCH4C2H2NH4NHCHC2H6CH6CH2CHCH3CH3CHNH2CNH3CHCH6CFeS2FeSFeSFeS3FeS2FeS2FeHFeS3FeS2FeS2FeHFeS3HC2HCHC3H3CH2C6H4C6H4C6H4C2H2C2H4CH2CH4C3H7CHC2HCH4CH2C2H4C2H4CNH2CHSH2CHSCH3CH2CHNC6HCH10CH2C2HCH2NC5H5CH9C2HC2H9CH3CH2NH4CHC3SH8CH9CFeS2FeS2FeSFeS3FeS2FeSHFeSFeS4C6H4C2H3CHCH2C6H4C6H5C2HSHCHC5H2C2HCH2NCH7C2H2CH4C3H2CH3C2NC5H19NC8H26CNHCHNCH10C2H6CFeS2FeS2FeSFeS3FeS2FeS2FeSFeS4C6H4C2H2C2HCH2C6H4C6H4CHC2NH3C5H2C3H2NC2HCHC2HCH2CHCH8CH4CNC7H15CH2CH2CH4C2H9C2NCHC3HC2H2CH9C2H5CH4CH3CH15CHCH2C2HNH2FeS2FeH2FeSFeCS2FeSHFeSHFeSFeS3FeS2FeS2FeSFeS3C6H4C6H6CHC2HCH5NCH4C6H7CNC7H14C2HC2HCH6NH4CSCH4CHC4HNH3CH2C3HCHCSH14C3HSHSCHSHC2HCHCH5C2H6CH6CHC2HC3H2CH2NHFeS2FeHCFeSFeS3FeSHFeSCFeSFeS3FeS2FeS2FeSFeS3C5H3CHC6H8C3H7CH3C7H4C2HC2H11CHCH3CHNCH2C3H4CH2CNC3HCHCH4CH6CH2CSH2SHCH5C2H2CHC2H12NC4H2CHCH3CH3C2H2CH2NH7CH2CHNH3CH2C2H2C2SCHCH4
_chemical_formula_sum              "Fe128 S256 C896 H1536 N64"
_cell_length_a       40.1458
_cell_length_b       80.3994
_cell_length_c       44.3184
_cell_angle_alpha    89.3513
_cell_angle_beta     87.0152
_cell_angle_gamma    89.9707

_space_group_name_H-M_alt    "P 1"
_space_group_IT_number       1

loop_
  _space_group_symop_operation_xyz
  'x, y, z'

loop_
  _atom_site_type_symbol
  _atom_site_label
  _atom_site_symmetry_multiplicity
  _atom_site_fract_x
  _atom_site_fract_y
  _atom_site_fract_z
  _atom_site_occupancy
  Fe  Fe1       1.0  0.10846  0.29505  0.33976  1.0000
  S   S1        1.0  0.13750  0.30320  0.29757  1.0000
  S   S2        1.0  0.05283  0.30217  0.34293  1.0000
  Fe  Fe2       1.0  0.17409  0.28551  0.37082  1.0000
  S   S3        1.0  0.20670  0.29386  0.33012  1.0000
  S   S4        1.0  0.18784  0.27126  0.41432  1.0000
  Fe  Fe3       1.0  0.17178  0.31613  0.32828  1.0000
  Fe  Fe4       1.0  0.16973  0.28059  0.30231  1.0000
  S   S5        1.0  0.17870  0.26111  0.26496  1.0000
  S   S6        1.0  0.14178  0.30874  0.37059  1.0000
  S   S7        1.0  0.13821  0.27140  0.34288  1.0000
  Fe  Fe5       1.0  0.29858  0.23323  0.11547  1.0000
  S   S8        1.0  0.32097  0.24276  0.07025  1.0000
  S   S9        1.0  0.28659  0.25206  0.15354  1.0000
  Fe  Fe6       1.0  0.30347  0.19679  0.09573  1.0000
  S   S10       1.0  0.32521  0.20380  0.04995  1.0000
  S   S11       1.0  0.29323  0.17038  0.11436  1.0000
  Fe  Fe7       1.0  0.35809  0.22178  0.07342  1.0000
  S   S12       1.0  0.41156  0.22135  0.05195  1.0000
  Fe  Fe8       1.0  0.28701  0.22444  0.04910  1.0000
  C   C1        1.0  0.28675  0.03469  0.28952  1.0000
  S   S13       1.0  0.33842  0.21349  0.11976  1.0000
  S   S14       1.0  0.26246  0.21609  0.09391  1.0000
  Fe  Fe9       1.0  0.29286  0.04296  0.12825  1.0000
  S   S15       1.0  0.33707  0.02835  0.11130  1.0000
  S   S16       1.0  0.25640  0.03323  0.16548  1.0000
  Fe  Fe10      1.0  0.30678  0.07140  0.08192  1.0000
  S   S17       1.0  0.35149  0.05789  0.06124  1.0000
  S   S18       1.0  0.29770  0.09695  0.05999  1.0000
  Fe  Fe11      1.0  0.32088  0.03451  0.06450  1.0000
  H   H1        1.0  0.07670  0.24743  0.22697  1.0000
  Fe  Fe12      1.0  0.36370  0.05278  0.10924  1.0000
  S   S19       1.0  0.41388  0.05567  0.12924  1.0000
  S   S20       1.0  0.27467  0.04819  0.08150  1.0000
  S   S21       1.0  0.32066  0.06723  0.12989  1.0000
  C   C2        1.0  0.44707  0.05957  0.10273  1.0000
  C   C3        1.0  0.44095  0.06478  0.07334  1.0000
  C   C4        1.0  0.46742  0.06880  0.05282  1.0000
  N   N1        1.0  0.21151  0.17651  0.03695  1.0000
  H   H2        1.0  0.41590  0.06589  0.06633  1.0000
  H   H3        1.0  0.33714  0.01916  0.33950  1.0000
  C   C5        1.0  0.19836  0.16554  0.01288  1.0000
  C   C6        1.0  0.25945  0.01905  0.19640  1.0000
  C   C7        1.0  0.28948  0.01205  0.20569  1.0000
  C   C8        1.0  0.27855  0.02118  0.31386  1.0000
  C   C9        1.0  0.19394  0.17196  0.06683  1.0000
  H   H4        1.0  0.31273  0.01524  0.19359  1.0000
  C   C10       1.0  0.35270  0.00789  0.45421  1.0000
  H   H5        1.0  0.46243  0.07279  0.03009  1.0000
  H   H6        1.0  0.33615  0.22300  0.99578  1.0000
  H   H7        1.0  0.37247  0.09252  0.04777  1.0000
  C   C11       1.0  0.28505  0.00563  0.47108  1.0000
  C   C12       1.0  0.06273  0.30378  0.25424  1.0000
  H   H8        1.0  0.02742  0.25646  0.25087  1.0000
  H   H9        1.0  0.20637  0.02012  0.20562  1.0000
  C   C13       1.0  0.29762  0.14998  0.09931  1.0000
  C   C14       1.0  0.30964  0.14706  0.06963  1.0000
  C   C15       1.0  0.30982  0.13076  0.05803  1.0000
  C   C16       1.0  0.29925  0.11709  0.07626  1.0000
  C   C17       1.0  0.28873  0.11993  0.10633  1.0000
  C   C18       1.0  0.28770  0.13627  0.11767  1.0000
  H   H10       1.0  0.31807  0.15739  0.05542  1.0000
  H   H11       1.0  0.31805  0.12871  0.03473  1.0000
  H   H12       1.0  0.28008  0.10961  0.12053  1.0000
  H   H13       1.0  0.27845  0.13834  0.14070  1.0000
  C   C19       1.0  0.45119  0.22790  0.06404  1.0000
  C   C20       1.0  0.45470  0.23714  0.09027  1.0000
  H   H14       1.0  0.28269  0.01236  0.38928  1.0000
  H   H15       1.0  0.19379  0.19644  0.08960  1.0000
  H   H16       1.0  0.43277  0.24060  0.10399  1.0000
  H   H17       1.0  0.44381  0.20318  0.14042  1.0000
  H   H18       1.0  0.22901  0.01789  0.05338  1.0000
  H   H19       1.0  0.25369  0.16152  0.04905  1.0000
  C   C21       1.0  0.22093  0.01307  0.07622  1.0000
  H   H20       1.0  0.32857  0.02609  0.39602  1.0000
  H   H21       1.0  0.44767  0.00183  0.29166  1.0000
  C   C22       1.0  0.22231  0.26340  0.43443  1.0000
  C   C23       1.0  0.21594  0.25244  0.45914  1.0000
  H   H22       1.0  0.10846  0.29151  0.23875  1.0000
  C   C24       1.0  0.44638  0.00535  0.26742  1.0000
  C   C25       1.0  0.28162  0.26154  0.44405  1.0000
  C   C26       1.0  0.25546  0.26786  0.42696  1.0000
  H   H23       1.0  0.23861  0.99654  0.34325  1.0000
  H   H24       1.0  0.47353  0.19735  0.16629  1.0000
  H   H25       1.0  0.25368  0.05614  0.39432  1.0000
  H   H26       1.0  0.26094  0.27638  0.40831  1.0000
  C   C27       1.0  0.20914  0.25886  0.23423  1.0000
  C   C28       1.0  0.23485  0.27037  0.22825  1.0000
  C   C29       1.0  0.25820  0.26801  0.20361  1.0000
  C   C30       1.0  0.25639  0.25413  0.18456  1.0000
  C   C31       1.0  0.23081  0.24254  0.19075  1.0000
  C   C32       1.0  0.20741  0.24492  0.21535  1.0000
  H   H27       1.0  0.23665  0.28118  0.24238  1.0000
  H   H28       1.0  0.27778  0.27708  0.19914  1.0000
  H   H29       1.0  0.22899  0.23179  0.17648  1.0000
  H   H30       1.0  0.18779  0.23586  0.21973  1.0000
  H   H31       1.0  0.20039  0.00419  0.07372  1.0000
  H   H32       1.0  0.47784  0.21667  0.02598  1.0000
  H   H33       1.0  0.48470  0.02678  0.18271  1.0000
  H   H34       1.0  0.02682  0.28507  0.20465  1.0000
  H   H35       1.0  0.48605  0.11414  0.12104  1.0000
  C   C33       1.0  0.48204  0.02097  0.20561  1.0000
  H   H36       1.0  0.34014  0.27468  0.03061  1.0000
  H   H37       1.0  0.45492  0.12977  0.12786  1.0000
  C   C34       1.0  0.22966  0.01483  0.21242  1.0000
  H   H38       1.0  0.07728  0.29253  0.21243  1.0000
  H   H39       1.0  0.10270  0.25315  0.17858  1.0000
  C   C35       1.0  0.25497  0.04262  0.38949  1.0000
  H   H40       1.0  0.21018  0.02388  0.08877  1.0000
  H   H41       1.0  0.49251  0.20394  0.09934  1.0000
  H   H42       1.0  0.29516  0.00014  0.35843  1.0000
  H   H43       1.0  0.01504  0.26344  0.20195  1.0000
  C   C36       1.0  0.00827  0.27654  0.33093  1.0000
  C   C37       1.0  0.24845  0.17406  0.03960  1.0000
  H   H44       1.0  0.27769  0.02653  0.99532  1.0000
  H   H45       1.0  0.45856  0.11227  0.15363  1.0000
  C   C38       1.0  0.33377  0.03539  0.37783  1.0000
  H   H46       1.0  0.25872  0.00479  0.47740  1.0000
  H   H47       1.0  0.18601  0.17891  0.11391  1.0000
  H   H48       1.0  0.25184  0.01798  0.31149  1.0000
  H   H49       1.0  0.26363  0.16770  0.99217  1.0000
  H   H50       1.0  0.32829  0.04040  0.33142  1.0000
  H   H51       1.0  0.27571  0.03100  0.26810  1.0000
  H   H52       1.0  0.19496  0.14006  0.99720  1.0000
  H   H53       1.0  0.44586  0.10697  0.08691  1.0000
  N   N2        1.0  0.25751  0.24222  0.33401  1.0000
  C   C39       1.0  0.27537  0.25450  0.31267  1.0000
  C   C40       1.0  0.25558  0.22600  0.31738  1.0000
  C   C41       1.0  0.27846  0.23984  0.36106  1.0000
  C   C42       1.0  0.22363  0.24925  0.34324  1.0000
  C   C43       1.0  0.28638  0.27099  0.32666  1.0000
  C   C44       1.0  0.23694  0.22674  0.28780  1.0000
  C   C45       1.0  0.26504  0.22774  0.38597  1.0000
  C   C46       1.0  0.19629  0.23677  0.35473  1.0000
  H   H54       1.0  0.29823  0.24882  0.30171  1.0000
  H   H55       1.0  0.25941  0.25803  0.29375  1.0000
  H   H56       1.0  0.24375  0.21600  0.33152  1.0000
  H   H57       1.0  0.28115  0.22122  0.31152  1.0000
  H   H58       1.0  0.30405  0.23564  0.35369  1.0000
  H   H59       1.0  0.28170  0.25178  0.37297  1.0000
  H   H60       1.0  0.22596  0.25883  0.36095  1.0000
  H   H61       1.0  0.21302  0.25591  0.32376  1.0000
  H   H62       1.0  0.30973  0.26927  0.33871  1.0000
  H   H63       1.0  0.29177  0.28032  0.30836  1.0000
  H   H64       1.0  0.26699  0.27627  0.34241  1.0000
  H   H65       1.0  0.23382  0.21392  0.27926  1.0000
  H   H66       1.0  0.21172  0.23219  0.29114  1.0000
  H   H67       1.0  0.25123  0.23378  0.26974  1.0000
  H   H68       1.0  0.26116  0.21499  0.37766  1.0000
  H   H69       1.0  0.24200  0.23260  0.39766  1.0000
  H   H70       1.0  0.28371  0.22675  0.40359  1.0000
  H   H71       1.0  0.18174  0.24232  0.37412  1.0000
  H   H72       1.0  0.20521  0.22462  0.36281  1.0000
  H   H73       1.0  0.17799  0.23480  0.33715  1.0000
  H   H74       1.0  0.23858  0.03922  0.34477  1.0000
  H   H75       1.0  0.16643  0.17146  0.06484  1.0000
  C   C47       1.0  0.09279  0.26419  0.19097  1.0000
  H   H76       1.0  0.15533  0.19847  0.05074  1.0000
  H   H77       1.0  0.22974  0.03769  0.39604  1.0000
  C   C48       1.0  0.20537  0.19442  0.02843  1.0000
  C   C49       1.0  0.24207  0.00335  0.36453  1.0000
  H   H78       1.0  0.27322  0.03732  0.40473  1.0000
  C   C50       1.0  0.45987  0.11627  0.12956  1.0000
  H   H79       1.0  0.21845  0.20302  0.04338  1.0000
  C   C51       1.0  0.01592  0.27428  0.21721  1.0000
  C   C52       1.0  0.22944  0.00392  0.23727  1.0000
  C   C53       1.0  0.16851  0.19983  0.02827  1.0000
  C   C54       1.0  0.08901  0.25984  0.22496  1.0000
  H   H80       1.0  0.07199  0.31600  0.24537  1.0000
  S   S22       1.0  0.26155  0.22649  0.00350  1.0000
  H   H81       1.0  0.47888  0.21661  0.14502  1.0000
  C   C55       1.0  0.20095  0.18333  0.09358  1.0000
  C   C56       1.0  0.31441  0.00710  0.99723  1.0000
  H   H82       1.0  0.18769  0.00054  0.12527  1.0000
  H   H83       1.0  0.36133  0.03681  0.37580  1.0000
  C   C57       1.0  0.24209  0.24613  0.47624  1.0000
  H   H84       1.0  0.41938  0.00699  0.26382  1.0000
  C   C58       1.0  0.27522  0.25072  0.46898  1.0000
  C   C59       1.0  0.48002  0.05838  0.11153  1.0000
  H   H85       1.0  0.19049  0.24880  0.46516  1.0000
  H   H86       1.0  0.11138  0.27429  0.18663  1.0000
  H   H87       1.0  0.11506  0.25781  0.23194  1.0000
  C   C60       1.0  0.26316  0.04029  0.35521  1.0000
  N   N3        1.0  0.39972  0.10969  0.11492  1.0000
  C   C61       1.0  0.38908  0.10467  0.14699  1.0000
  C   C62       1.0  0.43647  0.10583  0.11073  1.0000
  C   C63       1.0  0.38082  0.09883  0.09421  1.0000
  C   C64       1.0  0.39144  0.12782  0.11023  1.0000
  C   C65       1.0  0.35251  0.10843  0.15741  1.0000
  H   H88       1.0  0.06898  0.26761  0.18117  1.0000
  C   C66       1.0  0.38712  0.10176  0.05995  1.0000
  C   C67       1.0  0.40954  0.13703  0.08319  1.0000
  H   H89       1.0  0.39337  0.09109  0.15075  1.0000
  H   H90       1.0  0.40429  0.11114  0.16347  1.0000
  C   C68       1.0  0.20683  0.14684  0.01553  1.0000
  H   H91       1.0  0.06761  0.30350  0.27854  1.0000
  H   H92       1.0  0.38591  0.08547  0.09895  1.0000
  H   H93       1.0  0.35359  0.10032  0.09841  1.0000
  H   H94       1.0  0.36412  0.12932  0.10760  1.0000
  H   H95       1.0  0.39664  0.13501  0.13083  1.0000
  H   H96       1.0  0.33430  0.10150  0.14457  1.0000
  H   H97       1.0  0.34839  0.10436  0.18135  1.0000
  H   H98       1.0  0.34670  0.12191  0.15654  1.0000
  H   H99       1.0  0.20116  0.15923  0.07416  1.0000
  H   H100      1.0  0.27447  0.05210  0.34620  1.0000
  H   H101      1.0  0.09217  0.24205  0.27637  1.0000
  H   H102      1.0  0.41344  0.09990  0.05205  1.0000
  H   H103      1.0  0.37780  0.11407  0.05278  1.0000
  H   H104      1.0  0.48495  0.05449  0.13432  1.0000
  H   H105      1.0  0.39072  0.14305  0.06909  1.0000
  H   H106      1.0  0.42527  0.12917  0.06800  1.0000
  H   H107      1.0  0.32598  0.28362  0.99670  1.0000
  N   N4        1.0  0.07107  0.27224  0.24545  1.0000
  C   C69       1.0  0.08240  0.26919  0.27701  1.0000
  H   H108      1.0  0.42521  0.14725  0.09139  1.0000
  H   H109      1.0  0.32343  0.04769  0.38449  1.0000
  C   C70       1.0  0.03381  0.26972  0.24612  1.0000
  C   C71       1.0  0.07751  0.25134  0.28978  1.0000
  H   H110      1.0  0.47228  0.18529  0.10826  1.0000
  C   C72       1.0  0.48016  0.22370  0.04643  1.0000
  H   H111      1.0  0.44110  0.09254  0.11652  1.0000
  H   H112      1.0  0.10943  0.27205  0.27804  1.0000
  H   H113      1.0  0.06943  0.27757  0.29351  1.0000
  H   H114      1.0  0.30705  0.26525  0.43816  1.0000
  H   H115      1.0  0.03543  0.30352  0.25153  1.0000
  H   H116      1.0  0.31402  0.03573  0.28439  1.0000
  C   C73       1.0  0.08112  0.28979  0.23654  1.0000
  C   C74       1.0  0.47100  0.20340  0.14405  1.0000
  H   H117      1.0  0.02101  0.27636  0.26541  1.0000
  H   H118      1.0  0.05089  0.24767  0.29193  1.0000
  S   S23       1.0  0.32843  0.01204  0.03353  1.0000
  H   H119      1.0  0.08675  0.25083  0.31296  1.0000
  C   C75       1.0  0.34009  0.01571  0.48078  1.0000
  C   C76       1.0  0.34423  0.27471  0.00561  1.0000
  H   H120      1.0  0.21617  0.19722  0.00529  1.0000
  H   H121      1.0  0.15483  0.19307  0.01111  1.0000
  H   H122      1.0  0.02883  0.26802  0.33309  1.0000
  C   C77       1.0  0.32148  0.02995  0.34714  1.0000
  H   H123      1.0  0.22741  0.18268  0.09942  1.0000
  C   C78       1.0  0.01324  0.29359  0.33505  1.0000
  H   H124      1.0  0.29666  0.17384  0.01483  1.0000
  N   N5        1.0  0.28496  0.02568  0.34609  1.0000
  C   C79       1.0  0.27778  0.01036  0.36531  1.0000
  H   H125      1.0  0.24469  0.26209  0.01204  1.0000
  C   C80       1.0  0.48966  0.19445  0.11766  1.0000
  C   C81       1.0  0.27026  0.17640  0.01010  1.0000
  H   H126      1.0  0.27610  0.04698  0.29558  1.0000
  H   H127      1.0  0.25834  0.18291  0.05604  1.0000
  H   H128      1.0  0.22270  0.01308  0.36733  1.0000
  H   H129      1.0  0.25326  0.01367  0.11360  1.0000
  H   H130      1.0  0.29289  0.00985  0.30700  1.0000
  H   H131      1.0  0.48902  0.24950  0.11866  1.0000
  C   C82       1.0  0.48670  0.24218  0.09853  1.0000
  C   C83       1.0  0.28927  0.00100  0.23103  1.0000
  C   C84       1.0  0.25143  0.00637  0.09266  1.0000
  H   H132      1.0  0.27381  0.01006  0.07828  1.0000
  H   H133      1.0  0.47074  0.16516  0.14569  1.0000
  H   H134      1.0  0.45510  0.02152  0.21243  1.0000
  C   C85       1.0  0.25902  0.99693  0.24693  1.0000
  H   H135      1.0  0.29524  0.00297  0.13949  1.0000
  H   H136      1.0  0.35420  0.24867  0.00801  1.0000
  H   H137      1.0  0.17068  0.16631  0.01295  1.0000
  C   C86       1.0  0.23834  0.25855  0.98957  1.0000
  H   H138      1.0  0.19711  0.14126  0.03721  1.0000
  H   H139      1.0  0.45820  0.01760  0.26330  1.0000
  H   H140      1.0  0.20597  0.00092  0.24924  1.0000
  H   H141      1.0  0.23400  0.14442  0.01273  1.0000
  H   H142      1.0  0.37896  0.00897  0.44766  1.0000
  H   H143      1.0  0.31266  0.25332  0.00062  1.0000
  C   C87       1.0  0.29780  0.99753  0.44479  1.0000
  H   H144      1.0  0.37006  0.27915  0.00048  1.0000
  H   H145      1.0  0.16762  0.21326  0.02203  1.0000
  C   C88       1.0  0.33173  0.99877  0.43601  1.0000
  C   C89       1.0  0.33889  0.25692  0.99412  1.0000
  H   H146      1.0  0.26944  0.18937  0.00144  1.0000
  H   H147      1.0  0.40465  0.24927  0.99120  1.0000
  H   H148      1.0  0.47832  0.99687  0.18738  1.0000
  H   H149      1.0  0.20731  0.16990  0.98993  1.0000
  Fe  Fe13      1.0  0.11775  0.27995  0.82772  1.0000
  S   S24       1.0  0.14273  0.29481  0.78944  1.0000
  S   S25       1.0  0.06611  0.26763  0.82515  1.0000
  Fe  Fe14      1.0  0.17794  0.28409  0.86878  1.0000
  S   S26       1.0  0.20564  0.29986  0.83305  1.0000
  S   S27       1.0  0.19851  0.28194  0.91683  1.0000
  Fe  Fe15      1.0  0.15680  0.31278  0.82567  1.0000
  Fe  Fe16      1.0  0.18973  0.28069  0.79933  1.0000
  S   S28       1.0  0.23161  0.27025  0.76682  1.0000
  S   S29       1.0  0.12979  0.29830  0.86336  1.0000
  S   S30       1.0  0.16404  0.26448  0.83563  1.0000
  Fe  Fe17      1.0  0.29719  0.22846  0.60332  1.0000
  S   S31       1.0  0.33658  0.24228  0.57480  1.0000
  S   S32       1.0  0.25460  0.24003  0.63326  1.0000
  Fe  Fe18      1.0  0.31317  0.19524  0.57027  1.0000
  S   S33       1.0  0.35271  0.20710  0.53892  1.0000
  S   S34       1.0  0.29159  0.16874  0.56913  1.0000
  Fe  Fe19      1.0  0.36968  0.21976  0.58075  1.0000
  S   S35       1.0  0.42247  0.21903  0.59900  1.0000
  Fe  Fe20      1.0  0.31680  0.22884  0.53475  1.0000
  H   H150      1.0  0.23275  0.03368  0.62117  1.0000
  S   S36       1.0  0.33129  0.20687  0.61231  1.0000
  S   S37       1.0  0.27640  0.21601  0.56294  1.0000
  Fe  Fe21      1.0  0.31044  0.03835  0.62919  1.0000
  S   S38       1.0  0.33320  0.01978  0.59707  1.0000
  S   S39       1.0  0.27982  0.02998  0.67153  1.0000
  Fe  Fe22      1.0  0.33957  0.06864  0.59189  1.0000
  S   S40       1.0  0.36484  0.05164  0.55724  1.0000
  S   S41       1.0  0.35448  0.09642  0.59224  1.0000
  Fe  Fe23      1.0  0.31719  0.03673  0.55979  1.0000
  H   H151      1.0  0.17778  0.24101  0.56631  1.0000
  Fe  Fe24      1.0  0.37842  0.03595  0.59716  1.0000
  S   S42       1.0  0.42747  0.02429  0.60763  1.0000
  S   S43       1.0  0.29070  0.05468  0.59219  1.0000
  S   S44       1.0  0.35679  0.05363  0.63153  1.0000
  C   C90       1.0  0.45990  0.03016  0.58201  1.0000
  C   C91       1.0  0.45344  0.03510  0.55255  1.0000
  H   H152      1.0  0.41209  0.07869  0.57543  1.0000
  C   C92       1.0  0.18678  0.99928  0.60474  1.0000
  H   H153      1.0  0.42845  0.03426  0.54476  1.0000
  H   H154      1.0  0.19987  0.29722  0.54488  1.0000
  H   H155      1.0  0.22048  0.28303  0.97765  1.0000
  C   C93       1.0  0.29512  0.01440  0.69615  1.0000
  H   H156      1.0  0.20468  0.25987  0.52972  1.0000
  H   H157      1.0  0.34450  0.26483  0.89771  1.0000
  C   C94       1.0  0.38083  0.25964  0.95035  1.0000
  C   C95       1.0  0.47935  0.04140  0.53327  1.0000
  H   H158      1.0  0.48626  0.10395  0.54042  1.0000
  C   C96       1.0  0.33942  0.23656  0.95255  1.0000
  H   H159      1.0  0.47993  0.15764  0.56323  1.0000
  H   H160      1.0  0.26112  0.01849  0.58260  1.0000
  H   H161      1.0  0.27589  0.19993  0.72375  1.0000
  C   C97       1.0  0.19501  0.02376  0.57173  1.0000
  H   H162      1.0  0.47423  0.04561  0.51071  1.0000
  H   H163      1.0  0.19296  0.25180  0.59773  1.0000
  C   C98       1.0  0.30969  0.14877  0.57567  1.0000
  C   C99       1.0  0.28995  0.13441  0.57305  1.0000
  C   C100      1.0  0.30304  0.11833  0.57803  1.0000
  C   C101      1.0  0.33617  0.11635  0.58581  1.0000
  C   C102      1.0  0.35587  0.13072  0.58861  1.0000
  C   C103      1.0  0.34278  0.14680  0.58360  1.0000
  H   H164      1.0  0.26434  0.13572  0.56695  1.0000
  H   H165      1.0  0.28751  0.10747  0.57578  1.0000
  H   H166      1.0  0.38146  0.12943  0.59470  1.0000
  H   H167      1.0  0.35831  0.15767  0.58580  1.0000
  C   C104      1.0  0.46369  0.22271  0.58328  1.0000
  C   C105      1.0  0.47011  0.22796  0.55334  1.0000
  H   H168      1.0  0.19834  0.04704  0.54628  1.0000
  H   H169      1.0  0.33399  0.00577  0.66491  1.0000
  H   H170      1.0  0.44952  0.22998  0.53891  1.0000
  H   H171      1.0  0.24324  0.00213  0.56290  1.0000
  C   C106      1.0  0.02529  0.27663  0.82543  1.0000
  C   C107      1.0  0.44580  0.07088  0.62355  1.0000
  C   C108      1.0  0.02004  0.29385  0.82556  1.0000
  H   H172      1.0  0.45791  0.01734  0.91993  1.0000
  H   H173      1.0  0.04124  0.30215  0.82558  1.0000
  C   C109      1.0  0.21581  0.26622  0.94053  1.0000
  C   C110      1.0  0.22131  0.24984  0.93107  1.0000
  C   C111      1.0  0.23506  0.23794  0.95071  1.0000
  C   C112      1.0  0.22456  0.27045  0.96993  1.0000
  H   H174      1.0  0.35065  0.23374  0.92967  1.0000
  C   C113      1.0  0.32017  0.26258  0.91002  1.0000
  H   H175      1.0  0.21481  0.24630  0.90863  1.0000
  H   H176      1.0  0.22333  0.01597  0.64304  1.0000
  C   C114      1.0  0.22505  0.28106  0.59293  1.0000
  C   C115      1.0  0.20168  0.26448  0.55328  1.0000
  C   C116      1.0  0.23716  0.26187  0.72954  1.0000
  C   C117      1.0  0.21096  0.26028  0.71009  1.0000
  C   C118      1.0  0.21687  0.25365  0.68082  1.0000
  C   C119      1.0  0.24899  0.24848  0.67045  1.0000
  C   C120      1.0  0.27516  0.24998  0.68990  1.0000
  C   C121      1.0  0.26925  0.25663  0.71914  1.0000
  H   H177      1.0  0.18614  0.26420  0.71761  1.0000
  H   H178      1.0  0.19631  0.25253  0.66615  1.0000
  H   H179      1.0  0.30002  0.24609  0.68246  1.0000
  H   H180      1.0  0.28978  0.25779  0.73385  1.0000
  H   H181      1.0  0.16130  0.00386  0.61144  1.0000
  C   C122      1.0  0.44914  0.10471  0.59008  1.0000
  C   C123      1.0  0.48368  0.16987  0.57381  1.0000
  H   H182      1.0  0.31208  0.23437  0.95129  1.0000
  C   C124      1.0  0.29420  0.27837  0.55311  1.0000
  H   H183      1.0  0.29590  0.26351  0.95416  1.0000
  H   H184      1.0  0.43373  0.08153  0.63543  1.0000
  C   C125      1.0  0.35136  0.22293  0.97422  1.0000
  H   H185      1.0  0.00088  0.25276  0.82537  1.0000
  H   H186      1.0  0.16760  0.02534  0.57561  1.0000
  C   C126      1.0  0.18115  0.03168  0.63871  1.0000
  H   H187      1.0  0.99687  0.25437  0.70950  1.0000
  H   H188      1.0  0.46001  0.17696  0.57223  1.0000
  H   H189      1.0  0.22847  0.30089  0.49371  1.0000
  H   H190      1.0  0.16293  0.03516  0.62188  1.0000
  C   C127      1.0  0.30609  0.01476  0.48926  1.0000
  C   C128      1.0  0.47261  0.11427  0.61016  1.0000
  H   H191      1.0  0.48951  0.12260  0.59632  1.0000
  H   H192      1.0  0.23901  0.22535  0.94296  1.0000
  H   H193      1.0  0.25913  0.01993  0.73248  1.0000
  C   C129      1.0  0.22911  0.28872  0.50578  1.0000
  H   H194      1.0  0.40874  0.10266  0.54013  1.0000
  H   H195      1.0  0.44257  0.11375  0.57218  1.0000
  H   H196      1.0  0.19798  0.01711  0.54983  1.0000
  C   C130      1.0  0.49058  0.09218  0.55311  1.0000
  H   H197      1.0  0.23718  0.04046  0.55982  1.0000
  C   C131      1.0  0.32174  0.00407  0.68705  1.0000
  C   C132      1.0  0.21016  0.04117  0.56586  1.0000
  H   H198      1.0  0.17696  0.27083  0.55496  1.0000
  H   H199      1.0  0.25722  0.01759  0.94595  1.0000
  C   C133      1.0  0.27723  0.01079  0.95593  1.0000
  H   H200      1.0  0.30498  0.27823  0.57569  1.0000
  H   H201      1.0  0.20833  0.28126  0.49745  1.0000
  S   S45       1.0  0.28855  0.02525  0.52158  1.0000
  H   H202      1.0  0.13103  0.30311  0.94165  1.0000
  H   H203      1.0  0.09386  0.31112  0.95978  1.0000
  C   C134      1.0  0.43414  0.08098  0.55982  1.0000
  N   N6        1.0  0.34595  0.25443  0.96070  1.0000
  H   H204      1.0  0.18756  0.04345  0.65003  1.0000
  C   C135      1.0  0.28883  0.01592  0.98392  1.0000
  H   H205      1.0  0.22139  0.24098  0.57163  1.0000
  H   H206      1.0  0.49209  0.08219  0.53578  1.0000
  H   H207      1.0  0.38576  0.25664  0.92610  1.0000
  H   H208      1.0  0.37801  0.22387  0.97894  1.0000
  H   H209      1.0  0.30212  0.27160  0.90091  1.0000
  C   C136      1.0  0.27962  0.01196  0.72512  1.0000
  C   C137      1.0  0.22500  0.29163  0.54014  1.0000
  C   C138      1.0  0.24371  0.24216  0.98010  1.0000
  C   C139      1.0  0.42119  0.09095  0.53283  1.0000
  C   C140      1.0  0.47282  0.07640  0.59952  1.0000
  H   H210      1.0  0.44170  0.06856  0.55117  1.0000
  N   N7        1.0  0.22929  0.27646  0.55996  1.0000
  N   N8        1.0  0.46215  0.08881  0.57614  1.0000
  H   H211      1.0  0.24261  0.30171  0.54510  1.0000
  N   N9        1.0  0.20969  0.01367  0.59673  1.0000
  H   H212      1.0  0.42672  0.06295  0.61365  1.0000
  C   C141      1.0  0.41006  0.25184  0.96689  1.0000
  H   H213      1.0  0.42491  0.10274  0.60305  1.0000
  H   H214      1.0  0.41884  0.24023  0.95569  1.0000
  N   N10       1.0  0.24794  0.18782  0.66906  1.0000
  C   C142      1.0  0.24704  0.20484  0.68322  1.0000
  C   C143      1.0  0.24486  0.19038  0.63550  1.0000
  C   C144      1.0  0.28121  0.18001  0.67543  1.0000
  C   C145      1.0  0.21957  0.17771  0.68328  1.0000
  C   C146      1.0  0.25178  0.20537  0.71756  1.0000
  C   C147      1.0  0.21127  0.19740  0.62566  1.0000
  C   C148      1.0  0.29460  0.16637  0.65380  1.0000
  C   C149      1.0  0.21331  0.16050  0.66959  1.0000
  H   H215      1.0  0.26688  0.21290  0.67231  1.0000
  H   H216      1.0  0.22303  0.21130  0.67971  1.0000
  H   H217      1.0  0.24907  0.17877  0.62265  1.0000
  H   H218      1.0  0.26461  0.19897  0.62635  1.0000
  H   H219      1.0  0.30129  0.18963  0.67486  1.0000
  H   H220      1.0  0.28061  0.17457  0.69867  1.0000
  H   H221      1.0  0.22367  0.17521  0.70754  1.0000
  H   H222      1.0  0.19572  0.18483  0.68401  1.0000
  H   H223      1.0  0.25197  0.21860  0.72464  1.0000
  H   H224      1.0  0.23085  0.19933  0.73080  1.0000
  H   H225      1.0  0.20684  0.21030  0.63346  1.0000
  H   H226      1.0  0.21197  0.19796  0.60056  1.0000
  H   H227      1.0  0.18997  0.18931  0.63302  1.0000
  H   H228      1.0  0.31630  0.16014  0.66366  1.0000
  H   H229      1.0  0.30400  0.17192  0.63198  1.0000
  H   H230      1.0  0.27615  0.15661  0.64949  1.0000
  H   H231      1.0  0.22869  0.15079  0.68021  1.0000
  H   H232      1.0  0.21768  0.16012  0.64478  1.0000
  H   H233      1.0  0.18656  0.15719  0.67363  1.0000
  H   H234      1.0  0.44099  0.09355  0.51505  1.0000
  H   H235      1.0  0.26229  0.26088  0.53187  1.0000
  C   C150      1.0  0.24190  0.29721  0.60274  1.0000
  H   H236      1.0  0.23441  0.27092  0.60756  1.0000
  H   H237      1.0  0.26571  0.25770  0.57048  1.0000
  H   H238      1.0  0.22564  0.31864  0.89103  1.0000
  H   H239      1.0  0.26871  0.29777  0.59594  1.0000
  H   H240      1.0  0.22898  0.30838  0.59415  1.0000
  H   H241      1.0  0.31293  0.27298  0.53662  1.0000
  H   H242      1.0  0.29121  0.29133  0.54537  1.0000
  C   C151      1.0  0.19868  0.24878  0.57366  1.0000
  H   H243      1.0  0.19810  0.28247  0.59987  1.0000
  H   H244      1.0  0.16886  0.02313  0.65572  1.0000
  H   H245      1.0  0.23991  0.29784  0.62783  1.0000
  H   H246      1.0  0.48503  0.01639  0.70740  1.0000
  C   C152      1.0  0.26214  0.26775  0.55350  1.0000
  C   C153      1.0  0.49240  0.03083  0.59180  1.0000
  H   H247      1.0  0.48735  0.10616  0.62468  1.0000
  H   H248      1.0  0.45753  0.06300  0.64082  1.0000
  C   C154      1.0  0.21342  0.02382  0.62472  1.0000
  H   H249      1.0  0.32740  0.27872  0.94718  1.0000
  S   S46       1.0  0.30943  0.24361  0.49028  1.0000
  H   H250      1.0  0.48633  0.21620  0.62487  1.0000
  H   H251      1.0  0.35661  0.02269  0.49443  1.0000
  H   H252      1.0  0.26720  0.00079  0.62821  1.0000
  C   C155      1.0  0.99721  0.26609  0.82530  1.0000
  H   H253      1.0  0.25332  0.28282  0.49912  1.0000
  H   H254      1.0  0.20566  0.04955  0.58536  1.0000
  H   H255      1.0  0.38381  0.27341  0.95073  1.0000
  H   H256      1.0  0.45728  0.12196  0.62629  1.0000
  C   C156      1.0  0.18225  0.32442  0.92025  1.0000
  C   C157      1.0  0.32174  0.26529  0.94438  1.0000
  H   H257      1.0  0.42070  0.99882  0.90018  1.0000
  H   H258      1.0  0.23660  0.23770  0.49504  1.0000
  C   C158      1.0  0.49095  0.22024  0.60166  1.0000
  H   H259      1.0  0.31070  0.25003  0.90480  1.0000
  H   H260      1.0  0.34754  0.21056  0.96405  1.0000
  H   H261      1.0  0.46253  0.01796  0.87908  1.0000
  C   C159      1.0  0.29127  0.99695  0.94076  1.0000
  H   H262      1.0  0.10299  0.31593  0.92072  1.0000
  C   C160      1.0  0.24381  0.00776  0.58572  1.0000
  H   H263      1.0  0.17018  0.31383  0.90927  1.0000
  H   H264      1.0  0.49052  0.01789  0.66673  1.0000
  H   H265      1.0  0.27903  0.99790  0.76722  1.0000
  C   C161      1.0  0.11433  0.31415  0.94278  1.0000
  H   H266      1.0  0.48755  0.16818  0.59823  1.0000
  H   H267      1.0  0.48223  0.06499  0.58813  1.0000
  H   H268      1.0  0.49122  0.02868  0.90012  1.0000
  H   H269      1.0  0.40182  0.08342  0.52226  1.0000
  H   H270      1.0  0.14662  0.32619  0.97311  1.0000
  C   C162      1.0  0.29082  0.99945  0.74487  1.0000
  C   C163      1.0  0.47603  0.01713  0.90011  1.0000
  H   H271      1.0  0.19380  0.31907  0.94056  1.0000
  H   H272      1.0  0.43121  0.26077  0.96629  1.0000
  Fe  Fe25      1.0  0.16897  0.57137  0.08265  1.0000
  S   S47       1.0  0.12145  0.57100  0.11138  1.0000
  S   S48       1.0  0.20266  0.59430  0.07743  1.0000
  Fe  Fe26      1.0  0.15632  0.53623  0.05819  1.0000
  S   S49       1.0  0.10730  0.53399  0.08479  1.0000
  S   S50       1.0  0.17331  0.51333  0.03158  1.0000
  Fe  Fe27      1.0  0.09952  0.56047  0.07030  1.0000
  S   S51       1.0  0.05407  0.57270  0.05273  1.0000
  Fe  Fe28      1.0  0.13407  0.54444  0.12369  1.0000
  S   S52       1.0  0.11812  0.53513  0.17145  1.0000
  S   S53       1.0  0.14619  0.56193  0.04073  1.0000
  S   S54       1.0  0.18405  0.54549  0.09796  1.0000
  Fe  Fe29      1.0  0.12331  0.47118  0.36594  1.0000
  S   S55       1.0  0.17442  0.46550  0.34502  1.0000
  S   S56       1.0  0.10619  0.48964  0.40253  1.0000
  Fe  Fe30      1.0  0.09020  0.44759  0.32302  1.0000
  S   S57       1.0  0.13803  0.44033  0.29878  1.0000
  S   S58       1.0  0.04356  0.43508  0.30931  1.0000
  Fe  Fe31      1.0  0.15759  0.43855  0.34505  1.0000
  S   S59       1.0  0.18707  0.41605  0.36081  1.0000
  Fe  Fe32      1.0  0.15024  0.46767  0.30007  1.0000
  S   S60       1.0  0.17644  0.47890  0.25762  1.0000
  S   S61       1.0  0.10855  0.44419  0.36947  1.0000
  S   S62       1.0  0.10033  0.47500  0.32079  1.0000
  S   S63       1.0  0.18100  0.34236  0.30896  1.0000
  C   C164      1.0  0.21152  0.57117  0.45007  1.0000
  H   H273      1.0  0.03151  0.46808  0.24227  1.0000
  H   H274      1.0  0.04107  0.45753  0.35943  1.0000
  C   C165      1.0  0.18225  0.39548  0.34728  1.0000
  C   C166      1.0  0.19016  0.38180  0.36567  1.0000
  C   C167      1.0  0.18822  0.36535  0.35496  1.0000
  C   C168      1.0  0.17945  0.36247  0.32531  1.0000
  C   C169      1.0  0.17144  0.37616  0.30702  1.0000
  C   C170      1.0  0.17208  0.39252  0.31813  1.0000
  H   H275      1.0  0.19813  0.38393  0.38825  1.0000
  H   H276      1.0  0.19490  0.35498  0.36919  1.0000
  H   H277      1.0  0.16484  0.37409  0.28401  1.0000
  H   H278      1.0  0.16553  0.40287  0.30389  1.0000
  H   H279      1.0  0.30355  0.55617  0.99601  1.0000
  H   H280      1.0  0.04900  0.53701  0.05199  1.0000
  C   C171      1.0  0.02423  0.54220  0.05403  1.0000
  C   C172      1.0  0.26285  0.46722  0.23086  1.0000
  H   H281      1.0  0.29843  0.43328  0.27986  1.0000
  C   C173      1.0  0.15839  0.49134  0.44161  1.0000
  C   C174      1.0  0.12544  0.49557  0.43605  1.0000
  C   C175      1.0  0.10728  0.50542  0.45722  1.0000
  H   H282      1.0  0.26227  0.45686  0.32277  1.0000
  H   H283      1.0  0.31793  0.41874  0.23427  1.0000
  H   H284      1.0  0.17270  0.48383  0.42552  1.0000
  H   H285      1.0  0.08179  0.50876  0.45314  1.0000
  H   H286      1.0  0.20333  0.44630  0.24524  1.0000
  C   C176      1.0  0.13425  0.51894  0.19426  1.0000
  C   C177      1.0  0.11668  0.51450  0.22151  1.0000
  C   C178      1.0  0.12890  0.50211  0.24087  1.0000
  C   C179      1.0  0.15910  0.49408  0.23334  1.0000
  C   C180      1.0  0.17651  0.49841  0.20597  1.0000
  C   C181      1.0  0.16411  0.51069  0.18645  1.0000
  H   H287      1.0  0.09370  0.52087  0.22789  1.0000
  H   H288      1.0  0.11537  0.49904  0.26193  1.0000
  H   H289      1.0  0.19989  0.49233  0.19987  1.0000
  H   H290      1.0  0.17794  0.51398  0.16564  1.0000
  C   C182      1.0  0.18655  0.61491  0.08199  1.0000
  C   C183      1.0  0.15414  0.61778  0.09393  1.0000
  C   C184      1.0  0.14250  0.63417  0.09844  1.0000
  C   C185      1.0  0.16273  0.64801  0.09063  1.0000
  C   C186      1.0  0.19501  0.64519  0.07811  1.0000
  C   C187      1.0  0.20689  0.62874  0.07405  1.0000
  H   H291      1.0  0.13812  0.60737  0.10018  1.0000
  H   H292      1.0  0.11757  0.63614  0.10820  1.0000
  H   H293      1.0  0.23937  0.58735  0.99821  1.0000
  H   H294      1.0  0.23203  0.62673  0.06489  1.0000
  C   C188      1.0  0.03016  0.55044  0.20083  1.0000
  H   H295      1.0  0.27497  0.43525  0.32647  1.0000
  H   H296      1.0  0.27750  0.45993  0.21392  1.0000
  H   H297      1.0  0.23745  0.46924  0.22272  1.0000
  H   H298      1.0  0.27455  0.47971  0.23186  1.0000
  H   H299      1.0  0.31054  0.44007  0.22606  1.0000
  H   H300      1.0  0.19360  0.41770  0.26459  1.0000
  H   H301      1.0  0.14879  0.57637  0.43834  1.0000
  C   C189      1.0  0.25358  0.44377  0.32392  1.0000
  H   H302      1.0  0.27151  0.41681  0.27101  1.0000
  H   H303      1.0  0.22937  0.40999  0.24216  1.0000
  H   H304      1.0  0.24386  0.46759  0.27629  1.0000
  H   H305      1.0  0.06335  0.47714  0.26309  1.0000
  C   C190      1.0  0.22473  0.43749  0.24286  1.0000
  H   H306      1.0  0.23447  0.59033  0.47811  1.0000
  C   C191      1.0  0.23285  0.43903  0.29685  1.0000
  H   H307      1.0  0.23527  0.43940  0.21945  1.0000
  H   H308      1.0  0.22512  0.42588  0.30106  1.0000
  H   H309      1.0  0.19387  0.41826  0.22457  1.0000
  H   H310      1.0  0.28157  0.42412  0.21500  1.0000
  H   H311      1.0  0.07077  0.50932  0.01911  1.0000
  H   H312      1.0  0.03905  0.57121  0.15467  1.0000
  H   H313      1.0  0.00004  0.51835  0.05905  1.0000
  C   C192      1.0  0.01072  0.44113  0.33418  1.0000
  H   H314      1.0  0.03395  0.36302  0.32771  1.0000
  H   H315      1.0  0.09971  0.49798  0.99535  1.0000
  H   H316      1.0  0.02312  0.56366  0.20448  1.0000
  H   H317      1.0  0.20897  0.57686  0.02170  1.0000
  C   C193      1.0  0.08286  0.35269  0.32994  1.0000
  H   H318      1.0  0.26203  0.53302  0.05274  1.0000
  H   H319      1.0  0.04096  0.40615  0.35512  1.0000
  H   H320      1.0  0.02648  0.50535  0.14719  1.0000
  C   C194      1.0  0.01358  0.48135  0.28339  1.0000
  H   H321      1.0  0.04193  0.40006  0.28685  1.0000
  H   H322      1.0  0.09368  0.35688  0.30761  1.0000
  C   C195      1.0  0.10265  0.40017  0.37871  1.0000
  H   H323      1.0  0.09241  0.51997  0.98876  1.0000
  H   H324      1.0  0.05648  0.54057  0.14286  1.0000
  H   H325      1.0  0.03243  0.39057  0.38324  1.0000
  H   H326      1.0  0.11292  0.40787  0.35958  1.0000
  H   H327      1.0  0.23261  0.56224  0.45157  1.0000
  C   C196      1.0  0.09202  0.38279  0.36837  1.0000
  H   H328      1.0  0.24790  0.56725  0.05848  1.0000
  C   C197      1.0  0.07937  0.38998  0.31652  1.0000
  H   H329      1.0  0.20629  0.59857  0.45103  1.0000
  H   H330      1.0  0.00145  0.39040  0.32100  1.0000
  H   H331      1.0  0.04285  0.37758  0.28770  1.0000
  H   H332      1.0  0.12296  0.39874  0.39467  1.0000
  C   C198      1.0  0.17306  0.49709  0.46783  1.0000
  H   H333      1.0  0.10305  0.35097  0.34586  1.0000
  H   H334      1.0  0.23758  0.44248  0.34504  1.0000
  H   H335      1.0  0.03544  0.54471  0.22300  1.0000
  C   C199      1.0  0.20995  0.41977  0.24401  1.0000
  H   H336      1.0  0.04529  0.56349  0.11661  1.0000
  C   C200      1.0  0.03598  0.39257  0.35833  1.0000
  C   C201      1.0  0.26115  0.45929  0.26286  1.0000
  H   H337      1.0  0.11524  0.37671  0.35920  1.0000
  C   C202      1.0  0.03484  0.53236  0.13982  1.0000
  C   C203      1.0  0.28404  0.58471  0.03919  1.0000
  N   N11       1.0  0.24996  0.44131  0.26592  1.0000
  H   H338      1.0  0.15672  0.54285  0.48287  1.0000
  H   H339      1.0  0.20954  0.44652  0.29849  1.0000
  H   H340      1.0  0.16139  0.52931  0.43311  1.0000
  C   C204      1.0  0.27935  0.42961  0.26387  1.0000
  H   H341      1.0  0.03877  0.49039  0.24061  1.0000
  C   C205      1.0  0.29798  0.42826  0.23279  1.0000
  H   H342      1.0  0.28599  0.46102  0.27244  1.0000
  H   H343      1.0  0.08446  0.40346  0.31933  1.0000
  H   H344      1.0  0.03394  0.53120  0.11485  1.0000
  H   H345      1.0  0.05417  0.55000  0.18762  1.0000
  C   C206      1.0  0.12179  0.51098  0.48361  1.0000
  H   H346      1.0  0.07507  0.38852  0.26793  1.0000
  H   H347      1.0  0.20499  0.57090  0.42600  1.0000
  H   H348      1.0  0.09900  0.57959  0.47104  1.0000
  H   H349      1.0  0.01795  0.58039  0.12428  1.0000
  C   C207      1.0  0.16388  0.54304  0.43423  1.0000
  H   H350      1.0  0.28691  0.55850  0.04644  1.0000
  H   H351      1.0  0.18152  0.48325  0.99801  1.0000
  C   C208      1.0  0.22511  0.58883  0.45521  1.0000
  C   C209      1.0  0.04442  0.51520  0.15264  1.0000
  H   H352      1.0  0.08209  0.40692  0.39095  1.0000
  C   C210      1.0  0.02672  0.56837  0.13366  1.0000
  H   H353      1.0  0.22327  0.54076  0.99693  1.0000
  H   H354      1.0  0.08415  0.37559  0.38919  1.0000
  H   H355      1.0  0.18206  0.54675  0.41575  1.0000
  N   N12       1.0  0.06513  0.38243  0.34572  1.0000
  H   H356      1.0  0.19869  0.49392  0.47170  1.0000
  H   H357      1.0  0.04764  0.51561  0.17732  1.0000
  C   C211      1.0  0.05515  0.36446  0.34247  1.0000
  H   H358      1.0  0.26537  0.59488  0.03861  1.0000
  C   C212      1.0  0.17559  0.54767  0.46570  1.0000
  H   H359      1.0  0.04573  0.35928  0.36475  1.0000
  C   C213      1.0  0.15245  0.57633  0.46307  1.0000
  C   C214      1.0  0.01630  0.45273  0.35661  1.0000
  H   H360      1.0  0.21099  0.65567  0.07215  1.0000
  C   C215      1.0  0.03774  0.47920  0.25545  1.0000
  H   H361      1.0  0.10438  0.38479  0.31020  1.0000
  H   H362      1.0  0.29688  0.58628  0.06059  1.0000
  C   C216      1.0  0.05816  0.38893  0.28858  1.0000
  C   C217      1.0  0.26738  0.56738  0.03956  1.0000
  H   H363      1.0  0.06897  0.51150  0.14200  1.0000
  N   N13       1.0  0.18217  0.56588  0.47055  1.0000
  H   H364      1.0  0.15661  0.58957  0.46889  1.0000
  H   H365      1.0  0.01512  0.46988  0.29746  1.0000
  H   H366      1.0  0.21448  0.54721  0.03403  1.0000
  C   C218      1.0  0.01974  0.55943  0.05323  1.0000
  C   C219      1.0  0.11894  0.57144  0.47942  1.0000
  H   H367      1.0  0.07200  0.34014  0.32678  1.0000
  H   H368      1.0  0.19838  0.54014  0.46918  1.0000
  H   H369      1.0  0.02454  0.49116  0.29738  1.0000
  H   H370      1.0  0.13901  0.54829  0.42997  1.0000
  C   C220      1.0  0.00151  0.38922  0.34582  1.0000
  H   H371      1.0  0.30301  0.58626  0.02031  1.0000
  C   C221      1.0  0.99656  0.53168  0.05771  1.0000
  H   H372      1.0  0.24484  0.51941  0.02622  1.0000
  C   C222      1.0  0.22738  0.57502  0.00240  1.0000
  H   H373      1.0  0.24660  0.59117  0.43889  1.0000
  C   C223      1.0  0.99662  0.55654  0.13847  1.0000
  N   N14       1.0  0.25272  0.56205  0.01043  1.0000
  C   C224      1.0  0.23542  0.54563  0.01684  1.0000
  H   H374      1.0  0.99388  0.46786  0.39193  1.0000
  N   N15       1.0  0.00267  0.53971  0.15275  1.0000
  C   C225      1.0  0.00169  0.54083  0.18672  1.0000
  H   H375      1.0  0.28197  0.53067  0.01537  1.0000
  H   H376      1.0  0.00016  0.52827  0.19754  1.0000
  C   C226      1.0  0.25775  0.53152  0.02837  1.0000
  C   C227      1.0  0.17227  0.50948  0.99226  1.0000
  C   C228      1.0  0.08056  0.50792  0.99535  1.0000
  H   H377      1.0  0.11147  0.55845  0.47508  1.0000
  Fe  Fe33      1.0  0.13595  0.56549  0.58014  1.0000
  S   S64       1.0  0.11059  0.55659  0.62373  1.0000
  S   S65       1.0  0.13707  0.59170  0.55850  1.0000
  Fe  Fe34      1.0  0.14971  0.52955  0.55899  1.0000
  S   S66       1.0  0.12566  0.51782  0.60110  1.0000
  S   S67       1.0  0.17519  0.51485  0.52056  1.0000
  Fe  Fe35      1.0  0.08649  0.53730  0.59618  1.0000
  S   S68       1.0  0.03396  0.53050  0.61052  1.0000
  Fe  Fe36      1.0  0.15133  0.53750  0.62663  1.0000
  S   S69       1.0  0.16871  0.53296  0.67421  1.0000
  S   S70       1.0  0.10794  0.54743  0.55208  1.0000
  S   S71       1.0  0.17941  0.54796  0.58495  1.0000
  Fe  Fe37      1.0  0.16135  0.47519  0.86671  1.0000
  S   S72       1.0  0.18920  0.46066  0.82982  1.0000
  S   S73       1.0  0.17781  0.49875  0.89015  1.0000
  Fe  Fe38      1.0  0.09811  0.45608  0.85934  1.0000
  S   S74       1.0  0.11933  0.44008  0.82208  1.0000
  S   S75       1.0  0.04605  0.45524  0.87988  1.0000
  Fe  Fe39      1.0  0.16371  0.43775  0.85044  1.0000
  S   S76       1.0  0.19192  0.41304  0.85481  1.0000
  Fe  Fe40      1.0  0.14320  0.46370  0.80334  1.0000
  S   S77       1.0  0.14277  0.46632  0.75196  1.0000
  S   S78       1.0  0.14040  0.45215  0.88968  1.0000
  S   S79       1.0  0.11728  0.47979  0.83826  1.0000
  H   H378      1.0  0.09851  0.35640  0.92791  1.0000
  H   H379      1.0  0.06818  0.54607  0.68720  1.0000
  H   H380      1.0  0.05212  0.45567  0.81444  1.0000
  C   C229      1.0  0.04411  0.58290  0.60182  1.0000
  C   C230      1.0  0.17783  0.39299  0.84439  1.0000
  C   C231      1.0  0.14474  0.39006  0.83754  1.0000
  C   C232      1.0  0.13449  0.37397  0.82957  1.0000
  C   C233      1.0  0.15698  0.36051  0.82873  1.0000
  C   C234      1.0  0.19020  0.36348  0.83522  1.0000
  C   C235      1.0  0.20047  0.37960  0.84311  1.0000
  H   H381      1.0  0.12689  0.40014  0.83886  1.0000
  H   H382      1.0  0.10873  0.37185  0.82464  1.0000
  H   H383      1.0  0.20802  0.35339  0.83404  1.0000
  H   H384      1.0  0.22618  0.38172  0.84823  1.0000
  C   C236      1.0  0.06365  0.47806  0.67433  1.0000
  H   H385      1.0  0.03797  0.54311  0.54866  1.0000
  H   H386      1.0  0.23090  0.41643  0.72217  1.0000
  H   H387      1.0  0.07015  0.62669  0.59831  1.0000
  H   H388      1.0  0.16833  0.56323  0.51826  1.0000
  C   C237      1.0  0.16936  0.51875  0.93998  1.0000
  C   C238      1.0  0.17470  0.50243  0.92961  1.0000
  C   C239      1.0  0.17854  0.48962  0.95078  1.0000
  H   H389      1.0  0.06723  0.59440  0.51621  1.0000
  H   H390      1.0  0.17590  0.44175  0.70609  1.0000
  H   H391      1.0  0.16644  0.52874  0.92377  1.0000
  H   H392      1.0  0.18299  0.47705  0.94313  1.0000
  N   N16       1.0  0.06093  0.49952  0.94293  1.0000
  C   C240      1.0  0.16139  0.51431  0.69549  1.0000
  C   C241      1.0  0.16336  0.51455  0.72710  1.0000
  C   C242      1.0  0.15788  0.49998  0.74475  1.0000
  C   C243      1.0  0.15083  0.48494  0.73087  1.0000
  C   C244      1.0  0.14927  0.48465  0.69924  1.0000
  C   C245      1.0  0.15423  0.49926  0.68166  1.0000
  H   H393      1.0  0.16915  0.52609  0.73801  1.0000
  H   H394      1.0  0.15928  0.50041  0.76905  1.0000
  H   H395      1.0  0.14422  0.47306  0.68822  1.0000
  H   H396      1.0  0.15315  0.49881  0.65735  1.0000
  C   C246      1.0  0.14080  0.61231  0.57276  1.0000
  C   C247      1.0  0.14542  0.61550  0.60323  1.0000
  C   C248      1.0  0.14806  0.63207  0.61330  1.0000
  C   C249      1.0  0.14614  0.64571  0.59317  1.0000
  C   C250      1.0  0.14116  0.64251  0.56274  1.0000
  C   C251      1.0  0.13853  0.62594  0.55267  1.0000
  H   H397      1.0  0.14728  0.60524  0.61904  1.0000
  H   H398      1.0  0.15193  0.63434  0.63688  1.0000
  H   H399      1.0  0.13963  0.65279  0.54693  1.0000
  H   H400      1.0  0.13493  0.62370  0.52905  1.0000
  C   C252      1.0  0.18908  0.56832  0.50332  1.0000
  H   H401      1.0  0.24391  0.56390  0.50081  1.0000
  H   H402      1.0  0.07599  0.48555  0.76596  1.0000
  H   H403      1.0  0.01317  0.42081  0.84801  1.0000
  C   C253      1.0  0.20172  0.43808  0.71097  1.0000
  C   C254      1.0  0.10466  0.35103  0.90551  1.0000
  H   H404      1.0  0.00850  0.48436  0.71255  1.0000
  C   C255      1.0  0.00817  0.49776  0.70629  1.0000
  C   C256      1.0  0.02382  0.61236  0.60818  1.0000
  H   H405      1.0  0.21100  0.44629  0.72864  1.0000
  H   H406      1.0  0.02312  0.52550  0.67670  1.0000
  H   H407      1.0  0.19713  0.41238  0.69945  1.0000
  N   N17       1.0  0.18309  0.41409  0.74712  1.0000
  C   C257      1.0  0.19069  0.42435  0.77418  1.0000
  C   C258      1.0  0.14676  0.41655  0.74092  1.0000
  C   C259      1.0  0.20414  0.41947  0.71961  1.0000
  C   C260      1.0  0.19078  0.39613  0.75403  1.0000
  C   C261      1.0  0.22755  0.42481  0.78250  1.0000
  C   C262      1.0  0.12151  0.40721  0.76237  1.0000
  C   C263      1.0  0.18310  0.38356  0.72919  1.0000
  H   H408      1.0  0.18236  0.43745  0.77138  1.0000
  H   H409      1.0  0.17620  0.41972  0.79454  1.0000
  H   H410      1.0  0.14148  0.41304  0.71743  1.0000
  H   H411      1.0  0.13993  0.42997  0.74219  1.0000
  H   H412      1.0  0.21773  0.39450  0.75788  1.0000
  H   H413      1.0  0.17834  0.39192  0.77585  1.0000
  H   H414      1.0  0.22976  0.43310  0.80218  1.0000
  H   H415      1.0  0.23654  0.41246  0.78985  1.0000
  H   H416      1.0  0.24426  0.43000  0.76408  1.0000
  H   H417      1.0  0.12237  0.39358  0.75881  1.0000
  H   H418      1.0  0.12554  0.40979  0.78634  1.0000
  H   H419      1.0  0.09588  0.41144  0.75784  1.0000
  H   H420      1.0  0.21753  0.44052  0.69007  1.0000
  H   H421      1.0  0.20568  0.38126  0.71423  1.0000
  H   H422      1.0  0.16270  0.38754  0.71492  1.0000
  H   H423      1.0  0.17483  0.37159  0.73995  1.0000
  H   H424      1.0  0.01369  0.58488  0.64606  1.0000
  H   H425      1.0  0.03365  0.51431  0.97645  1.0000
  C   C264      1.0  0.15379  0.36660  0.95407  1.0000
  H   H426      1.0  0.22463  0.56372  0.53777  1.0000
  C   C265      1.0  0.07639  0.51503  0.92859  1.0000
  H   H427      1.0  0.17030  0.37561  0.96489  1.0000
  H   H428      1.0  0.02833  0.52973  0.71547  1.0000
  H   H429      1.0  0.05300  0.62854  0.63595  1.0000
  H   H430      1.0  0.03957  0.47145  0.67800  1.0000
  H   H431      1.0  0.03474  0.56576  0.63980  1.0000
  H   H432      1.0  0.28675  0.57353  0.97684  1.0000
  C   C266      1.0  0.03993  0.52319  0.69558  1.0000
  C   C267      1.0  0.07873  0.46933  0.95742  1.0000
  C   C268      1.0  0.17504  0.35175  0.94277  1.0000
  H   H433      1.0  0.22369  0.57279  0.95325  1.0000
  C   C269      1.0  0.15489  0.50694  0.48896  1.0000
  C   C270      1.0  0.05139  0.50362  0.97542  1.0000
  H   H434      1.0  0.19356  0.35731  0.92605  1.0000
  C   C271      1.0  0.05748  0.61959  0.61725  1.0000
  H   H435      1.0  0.04663  0.50064  0.65365  1.0000
  C   C272      1.0  0.13981  0.34322  0.90113  1.0000
  H   H436      1.0  0.28671  0.53726  0.96190  1.0000
  N   N18       1.0  0.04297  0.50476  0.70195  1.0000
  H   H437      1.0  0.09636  0.52635  0.88667  1.0000
  C   C273      1.0  0.20753  0.57187  0.97426  1.0000
  C   C274      1.0  0.00188  0.45836  0.80004  1.0000
  H   H438      1.0  0.00771  0.40299  0.82515  1.0000
  H   H439      1.0  0.03227  0.48708  0.76169  1.0000
  H   H440      1.0  0.10000  0.51824  0.93916  1.0000
  H   H441      1.0  0.10445  0.50468  0.88889  1.0000
  H   H442      1.0  0.19004  0.58178  0.50891  1.0000
  S   S80       1.0  0.14168  0.34034  0.82041  1.0000
  C   C275      1.0  0.01672  0.45799  0.85244  1.0000
  C   C276      1.0  0.02621  0.45735  0.82162  1.0000
  H   H443      1.0  0.08578  0.50195  0.67034  1.0000
  N   N19       1.0  0.15672  0.33755  0.92909  1.0000
  C   C277      1.0  0.05998  0.49710  0.67425  1.0000
  H   H444      1.0  0.10266  0.46368  0.96387  1.0000
  H   H445      1.0  0.99824  0.50933  0.75107  1.0000
  C   C278      1.0  0.16744  0.52221  0.97117  1.0000
  H   H446      1.0  0.06008  0.51289  0.74526  1.0000
  C   C279      1.0  0.04925  0.58959  0.53413  1.0000
  H   H447      1.0  0.21907  0.54622  0.51417  1.0000
  H   H448      1.0  0.01669  0.50704  0.92013  1.0000
  C   C280      1.0  0.07298  0.53246  0.68764  1.0000
  H   H449      1.0  0.05961  0.52596  0.93235  1.0000
  H   H450      1.0  0.05962  0.57771  0.54240  1.0000
  H   H451      1.0  0.03382  0.61397  0.54916  1.0000
  H   H452      1.0  0.11372  0.33864  0.96126  1.0000
  H   H453      1.0  0.11127  0.49003  0.94608  1.0000
  H   H454      1.0  0.07117  0.60644  0.56401  1.0000
  H   H455      1.0  0.99526  0.49834  0.68460  1.0000
  C   C281      1.0  0.08529  0.51426  0.89431  1.0000
  H   H456      1.0  0.06314  0.51217  0.88090  1.0000
  C   C282      1.0  0.22110  0.55999  0.51410  1.0000
  H   H457      1.0  0.03729  0.48940  0.90415  1.0000
  H   H458      1.0  0.07160  0.58477  0.59873  1.0000
  H   H459      1.0  0.08176  0.47387  0.69081  1.0000
  C   C283      1.0  0.04534  0.60273  0.55924  1.0000
  C   C284      1.0  0.05670  0.48649  0.74890  1.0000
  H   H460      1.0  0.24788  0.54742  0.95418  1.0000
  H   H461      1.0  0.05802  0.47487  0.73589  1.0000
  H   H462      1.0  0.07464  0.60990  0.62529  1.0000
  H   H463      1.0  0.08331  0.52924  0.66475  1.0000
  H   H464      1.0  0.09049  0.50244  0.72264  1.0000
  H   H465      1.0  0.00890  0.60984  0.62942  1.0000
  H   H466      1.0  0.22846  0.33851  0.90779  1.0000
  C   C285      1.0  0.08629  0.48571  0.93994  1.0000
  H   H467      1.0  0.09206  0.53010  0.70439  1.0000
  H   H468      1.0  0.05825  0.58344  0.64910  1.0000
  C   C286      1.0  0.01254  0.54398  0.55759  1.0000
  H   H469      1.0  0.00903  0.45726  0.77627  1.0000
  H   H470      1.0  0.14297  0.37341  0.93498  1.0000
  N   N20       1.0  0.02615  0.59737  0.58797  1.0000
  H   H471      1.0  0.09043  0.48208  0.91586  1.0000
  H   H472      1.0  0.03888  0.57121  0.58971  1.0000
  C   C287      1.0  0.06344  0.50231  0.72937  1.0000
  H   H473      1.0  0.11941  0.57345  0.50406  1.0000
  C   C288      1.0  0.27426  0.54948  0.95902  1.0000
  H   H474      1.0  0.18949  0.34717  0.96202  1.0000
  H   H475      1.0  0.01015  0.62262  0.59707  1.0000
  H   H476      1.0  0.07425  0.47424  0.65179  1.0000
  H   H477      1.0  0.10248  0.36133  0.88876  1.0000
  C   C289      1.0  0.17769  0.49319  0.98188  1.0000
  H   H478      1.0  0.18836  0.58178  0.97268  1.0000
  H   H479      1.0  0.15588  0.35235  0.88825  1.0000
  H   H480      1.0  0.02550  0.58731  0.52315  1.0000
  C   C290      1.0  0.99634  0.41503  0.83196  1.0000
  C   C291      1.0  0.03023  0.49544  0.92608  1.0000
  C   C292      1.0  0.00389  0.53811  0.58681  1.0000
  C   C293      1.0  0.03685  0.57943  0.63601  1.0000
  H   H481      1.0  0.28635  0.55508  0.93819  1.0000
  H   H482      1.0  0.99474  0.55564  0.51734  1.0000
  H   H483      1.0  0.13418  0.36303  0.97141  1.0000
  H   H484      1.0  0.19379  0.55995  0.97548  1.0000
  H   H485      1.0  0.16273  0.53473  0.97887  1.0000
  C   C294      1.0  0.00378  0.48415  0.94235  1.0000
  H   H486      1.0  0.99591  0.42355  0.81219  1.0000
  H   H487      1.0  0.13692  0.33256  0.88567  1.0000
  H   H488      1.0  0.08520  0.34191  0.89992  1.0000
  H   H489      1.0  0.06610  0.46032  0.94303  1.0000
  H   H490      1.0  0.10749  0.51855  0.49960  1.0000
  H   H491      1.0  0.01411  0.47220  0.95002  1.0000
  H   H492      1.0  0.06397  0.47080  0.97890  1.0000
  H   H493      1.0  0.20133  0.33521  0.87670  1.0000
  C   C295      1.0  0.28038  0.56093  0.98610  1.0000
  C   C296      1.0  0.13298  0.32979  0.95274  1.0000
  C   C297      1.0  0.21086  0.32983  0.89768  1.0000
  H   H494      1.0  0.03753  0.49336  0.98726  1.0000
  Fe  Fe41      1.0  0.36392  0.95704  0.30819  1.0000
  S   S81       1.0  0.35742  0.94877  0.35647  1.0000
  S   S82       1.0  0.41183  0.95298  0.28088  1.0000
  Fe  Fe42      1.0  0.29408  0.97009  0.30635  1.0000
  S   S83       1.0  0.28123  0.96225  0.35494  1.0000
  H   H495      1.0  0.47175  0.83161  0.29636  1.0000
  Fe  Fe43      1.0  0.33117  0.97312  0.36475  1.0000
  H   H496      1.0  0.12917  0.73672  0.00347  1.0000
  Fe  Fe44      1.0  0.30859  0.93830  0.34296  1.0000
  S   S84       1.0  0.29800  0.91223  0.36290  1.0000
  S   S85       1.0  0.34218  0.98224  0.31690  1.0000
  S   S86       1.0  0.31669  0.94531  0.29385  1.0000
  Fe  Fe45      1.0  0.15896  0.69542  0.08546  1.0000
  S   S87       1.0  0.12728  0.71381  0.11246  1.0000
  H   H497      1.0  0.07934  0.76515  0.08320  1.0000
  Fe  Fe46      1.0  0.18700  0.72312  0.04238  1.0000
  S   S88       1.0  0.15728  0.74290  0.06690  1.0000
  H   H498      1.0  0.44454  0.91482  0.36206  1.0000
  Fe  Fe47      1.0  0.17277  0.73053  0.11024  1.0000
  S   S89       1.0  0.18115  0.74811  0.15048  1.0000
  Fe  Fe48      1.0  0.11402  0.72488  0.06801  1.0000
  S   S90       1.0  0.06387  0.73358  0.05038  1.0000
  S   S91       1.0  0.20542  0.71149  0.08555  1.0000
  S   S92       1.0  0.14297  0.70573  0.04123  1.0000
  Fe  Fe49      1.0  0.30397  0.81386  0.31663  1.0000
  S   S93       1.0  0.32053  0.80494  0.36166  1.0000
  S   S94       1.0  0.29824  0.84090  0.30044  1.0000
  Fe  Fe50      1.0  0.29660  0.77815  0.29224  1.0000
  S   S95       1.0  0.31340  0.76690  0.33618  1.0000
  S   S96       1.0  0.28838  0.76078  0.25184  1.0000
  Fe  Fe51      1.0  0.27993  0.78550  0.36023  1.0000
  S   S97       1.0  0.24268  0.78199  0.40150  1.0000
  Fe  Fe52      1.0  0.35309  0.78693  0.33466  1.0000
  S   S98       1.0  0.40559  0.78084  0.35013  1.0000
  S   S99       1.0  0.26091  0.79573  0.31632  1.0000
  S   S100      1.0  0.33877  0.79690  0.28956  1.0000
  C   C298      1.0  0.44705  0.78476  0.33506  1.0000
  C   C299      1.0  0.45384  0.79064  0.30553  1.0000
  H   H499      1.0  0.08094  0.79219  0.16490  1.0000
  H   H500      1.0  0.99518  0.66920  0.06174  1.0000
  H   H501      1.0  0.43344  0.79362  0.29141  1.0000
  H   H502      1.0  0.46924  0.77640  0.37583  1.0000
  C   C300      1.0  0.02169  0.72912  0.06270  1.0000
  H   H503      1.0  0.31235  0.99570  0.23826  1.0000
  H   H504      1.0  0.24439  0.96394  0.07994  1.0000
  H   H505      1.0  0.03293  0.71634  0.10384  1.0000
  C   C301      1.0  0.30153  0.98975  0.13557  1.0000
  H   H506      1.0  0.39416  0.92170  0.39206  1.0000
  C   C302      1.0  0.20820  0.76775  0.45108  1.0000
  C   C303      1.0  0.23500  0.76593  0.42947  1.0000
  C   C304      1.0  0.25484  0.75164  0.43106  1.0000
  C   C305      1.0  0.24787  0.73943  0.45379  1.0000
  C   C306      1.0  0.40624  0.87119  0.35372  1.0000
  H   H507      1.0  0.19260  0.77870  0.45019  1.0000
  H   H508      1.0  0.27556  0.74999  0.41478  1.0000
  H   H509      1.0  0.26351  0.72849  0.45470  1.0000
  C   C307      1.0  0.21139  0.75130  0.17848  1.0000
  C   C308      1.0  0.24016  0.74154  0.18035  1.0000
  C   C309      1.0  0.26317  0.74464  0.20285  1.0000
  C   C310      1.0  0.25798  0.75752  0.22398  1.0000
  C   C311      1.0  0.22917  0.76727  0.22215  1.0000
  C   C312      1.0  0.20617  0.76417  0.19963  1.0000
  H   H510      1.0  0.24471  0.73157  0.16447  1.0000
  H   H511      1.0  0.28520  0.73696  0.20388  1.0000
  H   H512      1.0  0.22464  0.77722  0.23804  1.0000
  H   H513      1.0  0.18416  0.77186  0.19856  1.0000
  C   C313      1.0  0.44560  0.95460  0.30400  1.0000
  H   H514      1.0  0.11591  0.78951  0.18743  1.0000
  C   C314      1.0  0.46824  0.96180  0.35177  1.0000
  C   C315      1.0  0.44127  0.96113  0.33302  1.0000
  H   H515      1.0  0.39400  0.91569  0.27498  1.0000
  H   H516      1.0  0.41728  0.96585  0.34102  1.0000
  H   H517      1.0  0.23433  0.97056  0.13446  1.0000
  S   S101      1.0  0.14654  0.66832  0.09832  1.0000
  N   N21       1.0  0.42306  0.89962  0.32786  1.0000
  C   C316      1.0  0.01335  0.72085  0.09001  1.0000
  C   C317      1.0  0.10237  0.78393  0.16877  1.0000
  H   H518      1.0  0.33775  0.74571  0.28817  1.0000
  C   C318      1.0  0.30125  0.89265  0.34457  1.0000
  C   C319      1.0  0.29661  0.89101  0.31369  1.0000
  C   C320      1.0  0.29685  0.87511  0.30050  1.0000
  C   C321      1.0  0.30206  0.86065  0.31782  1.0000
  C   C322      1.0  0.30814  0.86234  0.34846  1.0000
  C   C323      1.0  0.30722  0.87822  0.36181  1.0000
  H   H519      1.0  0.29165  0.90194  0.30018  1.0000
  H   H520      1.0  0.29211  0.87399  0.27679  1.0000
  H   H521      1.0  0.31264  0.85139  0.36205  1.0000
  H   H522      1.0  0.31089  0.87934  0.38571  1.0000
  N   N22       1.0  0.39056  0.74013  0.28277  1.0000
  C   C324      1.0  0.35478  0.73716  0.27524  1.0000
  C   C325      1.0  0.39722  0.75848  0.27837  1.0000
  C   C326      1.0  0.39357  0.73567  0.31570  1.0000
  C   C327      1.0  0.41299  0.72940  0.26267  1.0000
  H   H523      1.0  0.37378  0.92326  0.30979  1.0000
  H   H524      1.0  0.45293  0.74192  0.23506  1.0000
  C   C328      1.0  0.44964  0.73518  0.25702  1.0000
  H   H525      1.0  0.35108  0.73996  0.25097  1.0000
  H   H526      1.0  0.42284  0.76190  0.28384  1.0000
  H   H527      1.0  0.38102  0.76578  0.29452  1.0000
  H   H528      1.0  0.37602  0.74336  0.33009  1.0000
  H   H529      1.0  0.38642  0.72251  0.32031  1.0000
  H   H530      1.0  0.41343  0.71642  0.27172  1.0000
  H   H531      1.0  0.40270  0.72855  0.23985  1.0000
  H   H532      1.0  0.43906  0.74999  0.32508  1.0000
  C   C329      1.0  0.43397  0.88334  0.34182  1.0000
  H   H533      1.0  0.46466  0.96670  0.37431  1.0000
  S   S102      1.0  0.34903  0.99026  0.40165  1.0000
  H   H534      1.0  0.48832  0.91625  0.33052  1.0000
  H   H535      1.0  0.44585  0.72789  0.31881  1.0000
  H   H536      1.0  0.09021  0.76670  0.99566  1.0000
  H   H537      1.0  0.28874  0.97663  0.04483  1.0000
  H   H538      1.0  0.45980  0.74276  0.27502  1.0000
  H   H539      1.0  0.29116  0.96952  0.10637  1.0000
  N   N23       1.0  0.20600  0.83450  0.36347  1.0000
  C   C330      1.0  0.24014  0.83921  0.37345  1.0000
  C   C331      1.0  0.20607  0.83775  0.32984  1.0000
  C   C332      1.0  0.20086  0.81621  0.37046  1.0000
  C   C333      1.0  0.18058  0.84489  0.38093  1.0000
  C   C334      1.0  0.24787  0.83447  0.40625  1.0000
  C   C335      1.0  0.20889  0.85617  0.31983  1.0000
  C   C336      1.0  0.17540  0.80669  0.35230  1.0000
  C   C337      1.0  0.14404  0.84344  0.37214  1.0000
  H   H540      1.0  0.26001  0.83334  0.35859  1.0000
  H   H541      1.0  0.24424  0.85286  0.37141  1.0000
  H   H542      1.0  0.18333  0.83298  0.31979  1.0000
  H   H543      1.0  0.22691  0.83084  0.31800  1.0000
  H   H544      1.0  0.22468  0.80937  0.36644  1.0000
  H   H545      1.0  0.19374  0.81415  0.39487  1.0000
  H   H546      1.0  0.18025  0.84164  0.40539  1.0000
  H   H547      1.0  0.18758  0.85831  0.38032  1.0000
  H   H548      1.0  0.24783  0.82081  0.41012  1.0000
  H   H549      1.0  0.27344  0.83883  0.41055  1.0000
  H   H550      1.0  0.23070  0.84054  0.42312  1.0000
  H   H551      1.0  0.20979  0.85685  0.29474  1.0000
  H   H552      1.0  0.18698  0.86352  0.32816  1.0000
  H   H553      1.0  0.23205  0.86211  0.32682  1.0000
  H   H554      1.0  0.15039  0.81242  0.35324  1.0000
  H   H555      1.0  0.17257  0.79392  0.36202  1.0000
  H   H556      1.0  0.18457  0.80513  0.32843  1.0000
  H   H557      1.0  0.13093  0.83336  0.38534  1.0000
  H   H558      1.0  0.14126  0.84146  0.34778  1.0000
  H   H559      1.0  0.13097  0.85538  0.37706  1.0000
  H   H560      1.0  0.35773  0.70973  0.27065  1.0000
  C   C338      1.0  0.39429  0.91060  0.37732  1.0000
  H   H561      1.0  0.28135  0.99049  0.43119  1.0000
  H   H562      1.0  0.41758  0.86100  0.36687  1.0000
  C   C339      1.0  0.46002  0.99110  0.24705  1.0000
  H   H563      1.0  0.37016  0.89356  0.32893  1.0000
  H   H564      1.0  0.34462  0.75086  0.00801  1.0000
  C   C340      1.0  0.32052  0.75034  0.99698  1.0000
  C   C341      1.0  0.42048  0.91317  0.35116  1.0000
  H   H565      1.0  0.44950  0.89616  0.28447  1.0000
  H   H566      1.0  0.44346  0.91736  0.29446  1.0000
  H   H567      1.0  0.21564  0.97895  0.06917  1.0000
  H   H568      1.0  0.02484  0.75529  0.11000  1.0000
  C   C342      1.0  0.34109  0.71939  0.28080  1.0000
  C   C343      1.0  0.44924  0.90486  0.30390  1.0000
  C   C344      1.0  0.99569  0.73477  0.04502  1.0000
  H   H569      1.0  0.39383  0.86526  0.33474  1.0000
  C   C345      1.0  0.39166  0.76553  0.24649  1.0000
  H   H570      1.0  0.23857  0.99135  0.14742  1.0000
  H   H571      1.0  0.36877  0.90940  0.36932  1.0000
  C   C346      1.0  0.09152  0.76853  0.10422  1.0000
  H   H572      1.0  0.40300  0.77812  0.24427  1.0000
  H   H573      1.0  0.08574  0.71678  0.18734  1.0000
  N   N24       1.0  0.25239  0.98799  0.09983  1.0000
  H   H574      1.0  0.29194  0.98222  0.15532  1.0000
  C   C347      1.0  0.28799  0.98330  0.10589  1.0000
  C   C348      1.0  0.26220  0.98030  0.04369  1.0000
  C   C349      1.0  0.47410  0.78100  0.35298  1.0000
  H   H575      1.0  0.48050  0.94410  0.27096  1.0000
  C   C350      1.0  0.39069  0.89724  0.31253  1.0000
  H   H576      1.0  0.40313  0.75772  0.22835  1.0000
  H   H577      1.0  0.11019  0.75955  0.02801  1.0000
  N   N25       1.0  0.07094  0.75659  0.15710  1.0000
  C   C351      1.0  0.06306  0.73979  0.17153  1.0000
  S   S103      1.0  0.21770  0.72623  0.99710  1.0000
  C   C352      1.0  0.09209  0.76609  0.17823  1.0000
  C   C353      1.0  0.08940  0.75377  0.12706  1.0000
  C   C354      1.0  0.09279  0.73005  0.18377  1.0000
  H   H578      1.0  0.23795  0.99415  0.38326  1.0000
  C   C355      1.0  0.42838  0.73739  0.32835  1.0000
  H   H579      1.0  0.45058  0.88565  0.36072  1.0000
  H   H580      1.0  0.11810  0.77113  0.09758  1.0000
  C   C356      1.0  0.19321  0.98705  0.12673  1.0000
  H   H581      1.0  0.49207  0.79649  0.27089  1.0000
  H   H582      1.0  0.00467  0.74481  0.14248  1.0000
  H   H583      1.0  0.07919  0.76674  0.20108  1.0000
  H   H584      1.0  0.11618  0.75958  0.18135  1.0000
  H   H585      1.0  0.11533  0.74968  0.13057  1.0000
  H   H586      1.0  0.07808  0.74324  0.11505  1.0000
  H   H587      1.0  0.25155  0.97255  0.02597  1.0000
  H   H588      1.0  0.08054  0.78034  0.11222  1.0000
  H   H589      1.0  0.11516  0.73043  0.16813  1.0000
  C   C357      1.0  0.47711  0.94921  0.29339  1.0000
  H   H590      1.0  0.48654  0.97845  0.41902  1.0000
  H   H591      1.0  0.42622  0.73515  0.35316  1.0000
  H   H592      1.0  0.02484  0.76674  0.17664  1.0000
  H   H593      1.0  0.21236  0.76270  0.00146  1.0000
  C   C358      1.0  0.24219  0.97739  0.07397  1.0000
  H   H594      1.0  0.12036  0.78394  0.14892  1.0000
  H   H595      1.0  0.41546  0.92539  0.34029  1.0000
  H   H596      1.0  0.31672  0.71838  0.27010  1.0000
  C   C359      1.0  0.01370  0.75695  0.13318  1.0000
  C   C360      1.0  0.20114  0.75550  0.47373  1.0000
  H   H597      1.0  0.35298  0.90923  0.28645  1.0000
  H   H598      1.0  0.38684  0.87708  0.36867  1.0000
  C   C361      1.0  0.22089  0.74117  0.47520  1.0000
  H   H599      1.0  0.30397  0.76057  0.00520  1.0000
  H   H600      1.0  0.04110  0.77834  0.14571  1.0000
  H   H601      1.0  0.05132  0.73139  0.15529  1.0000
  H   H602      1.0  0.33592  0.71678  0.30524  1.0000
  H   H603      1.0  0.46195  0.96341  0.21355  1.0000
  S   S104      1.0  0.25554  0.98367  0.27941  1.0000
  H   H604      1.0  0.36465  0.76709  0.24289  1.0000
  C   C362      1.0  0.37765  0.91236  0.29507  1.0000
  H   H605      1.0  0.40038  0.89980  0.39172  1.0000
  H   H606      1.0  0.44916  0.87591  0.32505  1.0000
  H   H607      1.0  0.39311  0.88681  0.29619  1.0000
  C   C363      1.0  0.03805  0.76541  0.15404  1.0000
  H   H608      1.0  0.34800  0.98627  0.99227  1.0000
  H   H609      1.0  0.04438  0.74099  0.19091  1.0000
  H   H610      1.0  0.30798  0.73858  0.00463  1.0000
  H   H611      1.0  0.18152  0.98018  0.10855  1.0000
  H   H612      1.0  0.46591  0.72403  0.25474  1.0000
  H   H613      1.0  0.30559  0.98790  0.08737  1.0000
  H   H614      1.0  0.09958  0.73492  0.20599  1.0000
  C   C364      1.0  0.23094  0.98387  0.12792  1.0000
  C   C365      1.0  0.48541  0.90608  0.31416  1.0000
  H   H615      1.0  0.48808  0.97036  0.18101  1.0000
  C   C366      1.0  0.48793  0.96529  0.20437  1.0000
  H   H616      1.0  0.18084  0.98261  0.14836  1.0000
  H   H617      1.0  0.00172  0.74122  0.02389  1.0000
  H   H618      1.0  0.45884  0.97973  0.26158  1.0000
  H   H619      1.0  0.26076  0.99340  0.03586  1.0000
  H   H620      1.0  0.44176  0.98898  0.22938  1.0000
  C   C367      1.0  0.48718  0.79228  0.29396  1.0000
  C   C368      1.0  0.11451  0.76256  0.00364  1.0000
  H   H621      1.0  0.49088  0.84967  0.27890  1.0000
  H   H622      1.0  0.49075  0.98864  0.45405  1.0000
  H   H623      1.0  0.13226  0.77317  0.00248  1.0000
  H   H624      1.0  0.32915  0.98866  0.13456  1.0000
  Fe  Fe53      1.0  0.35900  0.94996  0.85969  1.0000
  S   S105      1.0  0.31318  0.94538  0.88947  1.0000
  S   S106      1.0  0.40792  0.94069  0.87525  1.0000
  Fe  Fe54      1.0  0.32093  0.96526  0.80820  1.0000
  S   S107      1.0  0.27184  0.96147  0.83445  1.0000
  S   S108      1.0  0.33131  0.97233  0.75842  1.0000
  Fe  Fe55      1.0  0.29862  0.97105  0.87464  1.0000
  H   H625      1.0  0.22128  0.91532  0.73130  1.0000
  Fe  Fe56      1.0  0.29154  0.93609  0.84695  1.0000
  S   S109      1.0  0.26263  0.91160  0.84784  1.0000
  S   S110      1.0  0.34653  0.97630  0.84743  1.0000
  S   S111      1.0  0.33847  0.93920  0.81827  1.0000
  Fe  Fe57      1.0  0.14928  0.69311  0.58807  1.0000
  S   S112      1.0  0.11735  0.71145  0.61520  1.0000
  C   C369      1.0  0.13611  0.72976  0.94215  1.0000
  Fe  Fe58      1.0  0.17551  0.72069  0.54355  1.0000
  S   S113      1.0  0.14469  0.74018  0.56775  1.0000
  N   N26       1.0  0.23714  0.93551  0.75903  1.0000
  Fe  Fe59      1.0  0.16165  0.72890  0.61139  1.0000
  S   S114      1.0  0.17444  0.74807  0.64803  1.0000
  Fe  Fe60      1.0  0.10287  0.72133  0.57001  1.0000
  S   S115      1.0  0.05182  0.73097  0.55609  1.0000
  S   S116      1.0  0.19447  0.71007  0.58706  1.0000
  S   S117      1.0  0.13276  0.70231  0.54291  1.0000
  Fe  Fe61      1.0  0.30817  0.81482  0.81212  1.0000
  S   S118      1.0  0.32456  0.80498  0.85656  1.0000
  S   S119      1.0  0.31802  0.84197  0.79751  1.0000
  Fe  Fe62      1.0  0.29255  0.77960  0.78868  1.0000
  S   S120      1.0  0.30872  0.76762  0.83219  1.0000
  S   S121      1.0  0.28099  0.76151  0.74991  1.0000
  Fe  Fe63      1.0  0.27999  0.78785  0.85640  1.0000
  S   S122      1.0  0.24950  0.78550  0.90176  1.0000
  Fe  Fe64      1.0  0.35236  0.78541  0.82983  1.0000
  S   S123      1.0  0.40263  0.77634  0.84634  1.0000
  S   S124      1.0  0.26115  0.79916  0.81323  1.0000
  S   S125      1.0  0.33865  0.79592  0.78500  1.0000
  C   C370      1.0  0.44423  0.78269  0.83547  1.0000
  C   C371      1.0  0.45141  0.79366  0.81125  1.0000
  C   C372      1.0  0.13959  0.71287  0.95841  1.0000
  C   C373      1.0  0.47098  0.77587  0.85085  1.0000
  H   H626      1.0  0.43123  0.79896  0.79906  1.0000
  H   H627      1.0  0.46586  0.76730  0.86950  1.0000
  C   C374      1.0  0.45803  0.97897  0.90810  1.0000
  C   C375      1.0  0.32553  0.78063  0.95962  1.0000
  H   H628      1.0  0.21599  0.96702  0.79031  1.0000
  H   H629      1.0  0.02014  0.70846  0.60207  1.0000
  H   H630      1.0  0.16313  0.76001  0.91905  1.0000
  C   C376      1.0  0.47874  0.98748  0.85656  1.0000
  C   C377      1.0  0.22805  0.77238  0.95711  1.0000
  C   C378      1.0  0.24007  0.76872  0.92750  1.0000
  C   C379      1.0  0.24422  0.75203  0.91950  1.0000
  C   C380      1.0  0.23687  0.73924  0.94099  1.0000
  C   C381      1.0  0.45696  0.89206  0.85525  1.0000
  H   H631      1.0  0.22459  0.78523  0.96357  1.0000
  H   H632      1.0  0.25311  0.74895  0.89677  1.0000
  H   H633      1.0  0.24034  0.72639  0.93456  1.0000
  C   C382      1.0  0.20408  0.75130  0.67663  1.0000
  C   C383      1.0  0.22984  0.74006  0.68217  1.0000
  C   C384      1.0  0.25293  0.74345  0.70449  1.0000
  C   C385      1.0  0.25063  0.75800  0.72204  1.0000
  C   C386      1.0  0.22482  0.76920  0.71655  1.0000
  C   C387      1.0  0.20192  0.76590  0.69402  1.0000
  H   H634      1.0  0.23185  0.72867  0.66949  1.0000
  H   H635      1.0  0.27252  0.73458  0.70844  1.0000
  H   H636      1.0  0.22250  0.78046  0.72963  1.0000
  H   H637      1.0  0.18227  0.77475  0.69014  1.0000
  C   C388      1.0  0.43815  0.94359  0.84595  1.0000
  H   H638      1.0  0.05687  0.73362  0.62003  1.0000
  C   C389      1.0  0.45530  0.95565  0.79723  1.0000
  C   C390      1.0  0.43024  0.95208  0.81954  1.0000
  H   H639      1.0  0.18345  0.77528  0.56479  1.0000
  H   H640      1.0  0.40514  0.95647  0.81671  1.0000
  C   C391      1.0  0.04427  0.76602  0.67058  1.0000
  C   C392      1.0  0.27330  0.73979  0.57369  1.0000
  H   H641      1.0  0.26193  0.73068  0.55840  1.0000
  H   H642      1.0  0.31531  0.79615  0.92020  1.0000
  H   H643      1.0  0.26817  0.95661  0.76971  1.0000
  H   H644      1.0  0.22005  0.90611  0.79660  1.0000
  C   C393      1.0  0.27859  0.89229  0.83413  1.0000
  C   C394      1.0  0.30193  0.89156  0.80964  1.0000
  C   C395      1.0  0.31332  0.87607  0.79863  1.0000
  C   C396      1.0  0.30183  0.86106  0.81210  1.0000
  C   C397      1.0  0.27841  0.86175  0.83658  1.0000
  C   C398      1.0  0.26662  0.87729  0.84729  1.0000
  H   H645      1.0  0.31104  0.90293  0.79897  1.0000
  H   H646      1.0  0.33118  0.87570  0.77951  1.0000
  H   H647      1.0  0.26916  0.85034  0.84711  1.0000
  H   H648      1.0  0.24825  0.87767  0.86603  1.0000
  N   N27       1.0  0.39350  0.88770  0.85094  1.0000
  C   C399      1.0  0.36186  0.88674  0.87093  1.0000
  C   C400      1.0  0.39800  0.87111  0.83560  1.0000
  C   C401      1.0  0.38951  0.90140  0.82765  1.0000
  C   C402      1.0  0.42182  0.89161  0.87078  1.0000
  C   C403      1.0  0.21028  0.77491  0.55727  1.0000
  C   C404      1.0  0.39964  0.85570  0.85654  1.0000
  C   C405      1.0  0.40774  0.89937  0.79633  1.0000
  H   H649      1.0  0.15261  0.77316  0.95097  1.0000
  H   H650      1.0  0.34099  0.88176  0.85814  1.0000
  H   H651      1.0  0.36468  0.87792  0.89015  1.0000
  H   H652      1.0  0.42094  0.87084  0.82056  1.0000
  H   H653      1.0  0.37708  0.86890  0.82054  1.0000
  H   H654      1.0  0.36292  0.90293  0.82250  1.0000
  H   H655      1.0  0.39692  0.91364  0.83658  1.0000
  H   H656      1.0  0.41818  0.90402  0.88133  1.0000
  H   H657      1.0  0.42233  0.88262  0.89001  1.0000
  H   H658      1.0  0.41973  0.85665  0.87263  1.0000
  H   H659      1.0  0.29973  0.74890  0.95357  1.0000
  H   H660      1.0  0.03603  0.73308  0.68826  1.0000
  H   H661      1.0  0.40510  0.84458  0.84244  1.0000
  C   C406      1.0  0.00629  0.75475  0.63412  1.0000
  H   H662      1.0  0.37530  0.85320  0.86879  1.0000
  H   H663      1.0  0.39542  0.88972  0.78303  1.0000
  H   H664      1.0  0.43447  0.89631  0.79744  1.0000
  H   H665      1.0  0.40611  0.91128  0.78351  1.0000
  H   H666      1.0  0.04823  0.77902  0.61310  1.0000
  H   H667      1.0  0.25574  0.95678  0.73217  1.0000
  H   H668      1.0  0.28025  0.74066  0.62261  1.0000
  H   H669      1.0  0.13752  0.77788  0.91482  1.0000
  C   C407      1.0  0.14306  0.76747  0.93049  1.0000
  C   C408      1.0  0.09707  0.76964  0.61703  1.0000
  H   H670      1.0  0.47670  0.93121  0.86968  1.0000
  H   H671      1.0  0.21451  0.75553  0.59047  1.0000
  H   H672      1.0  0.18972  0.94050  0.78355  1.0000
  H   H673      1.0  0.34458  0.91293  0.86824  1.0000
  H   H674      1.0  0.16537  0.97658  0.58784  1.0000
  H   H675      1.0  0.99390  0.77658  0.60624  1.0000
  H   H676      1.0  0.08413  0.73983  0.64740  1.0000
  H   H677      1.0  0.38253  0.74808  0.90194  1.0000
  H   H678      1.0  0.35263  0.74959  0.87386  1.0000
  H   H679      1.0  0.09906  0.76023  0.67468  1.0000
  C   C409      1.0  0.24668  0.95372  0.75578  1.0000
  C   C410      1.0  0.19085  0.93647  0.72067  1.0000
  H   H680      1.0  0.05557  0.73810  0.92345  1.0000
  H   H681      1.0  0.26307  0.91223  0.76711  1.0000
  H   H682      1.0  0.24646  0.98364  0.61060  1.0000
  C   C411      1.0  0.00958  0.72538  0.56586  1.0000
  H   H683      1.0  0.26120  0.75191  0.51793  1.0000
  H   H684      1.0  0.18216  0.91477  0.81132  1.0000
  C   C412      1.0  0.04030  0.72747  0.66569  1.0000
  H   H685      1.0  0.48327  0.84726  0.78565  1.0000
  H   H686      1.0  0.22255  0.78578  0.56702  1.0000
  H   H687      1.0  0.34897  0.77497  0.90132  1.0000
  H   H688      1.0  0.44939  0.96278  0.77734  1.0000
  S   S126      1.0  0.15007  0.66634  0.60743  1.0000
  C   C413      1.0  0.22533  0.74293  0.97075  1.0000
  H   H689      1.0  0.35290  0.98340  0.69904  1.0000
  H   H690      1.0  0.05572  0.76009  0.59354  1.0000
  H   H691      1.0  0.09117  0.76594  0.94597  1.0000
  N   N28       1.0  0.11424  0.74247  0.95831  1.0000
  H   H692      1.0  0.12746  0.72729  0.91916  1.0000
  H   H693      1.0  0.22929  0.97934  0.75825  1.0000
  H   H694      1.0  0.29802  0.77866  0.96211  1.0000
  H   H695      1.0  0.36726  0.90815  0.90145  1.0000
  C   C414      1.0  0.26821  0.92580  0.76553  1.0000
  H   H696      1.0  0.46645  0.73639  0.73253  1.0000
  H   H697      1.0  0.11159  0.75806  0.61955  1.0000
  C   C415      1.0  0.35538  0.74863  0.89860  1.0000
  H   H698      1.0  0.31956  0.80735  0.95405  1.0000
  C   C416      1.0  0.48820  0.95079  0.80142  1.0000
  H   H699      1.0  0.00405  0.74695  0.61373  1.0000
  C   C417      1.0  0.07630  0.76365  0.68828  1.0000
  C   C418      1.0  0.46912  0.98195  0.68000  1.0000
  H   H700      1.0  0.24516  0.76356  0.62594  1.0000
  C   C419      1.0  0.11091  0.75725  0.93737  1.0000
  H   H701      1.0  0.31199  0.76383  0.90887  1.0000
  H   H702      1.0  0.47531  0.89473  0.87250  1.0000
  H   H703      1.0  0.27727  0.92934  0.78791  1.0000
  H   H704      1.0  0.04090  0.77962  0.66675  1.0000
  C   C420      1.0  0.08009  0.73551  0.96674  1.0000
  H   H705      1.0  0.32011  0.92152  0.75109  1.0000
  C   C421      1.0  0.22007  0.96679  0.76533  1.0000
  C   C422      1.0  0.22415  0.92909  0.73008  1.0000
  N   N29       1.0  0.39755  0.74551  0.75320  1.0000
  C   C423      1.0  0.36633  0.75498  0.74605  1.0000
  C   C424      1.0  0.38669  0.73064  0.77234  1.0000
  C   C425      1.0  0.41346  0.73966  0.72361  1.0000
  C   C426      1.0  0.42058  0.75700  0.76904  1.0000
  C   C427      1.0  0.37101  0.76993  0.72407  1.0000
  C   C428      1.0  0.36631  0.73463  0.80187  1.0000
  H   H706      1.0  0.05654  0.71640  0.66832  1.0000
  C   C429      1.0  0.44650  0.74875  0.78917  1.0000
  H   H707      1.0  0.34763  0.74653  0.73645  1.0000
  H   H708      1.0  0.35387  0.76009  0.76697  1.0000
  H   H709      1.0  0.40805  0.72291  0.77881  1.0000
  H   H710      1.0  0.37115  0.72213  0.75917  1.0000
  H   H711      1.0  0.39508  0.73243  0.71099  1.0000
  H   H712      1.0  0.42109  0.75040  0.70881  1.0000
  H   H713      1.0  0.43442  0.76528  0.75243  1.0000
  H   H714      1.0  0.40564  0.76547  0.78417  1.0000
  H   H715      1.0  0.42833  0.77160  0.93809  1.0000
  H   H716      1.0  0.34713  0.77694  0.72381  1.0000
  H   H717      1.0  0.39031  0.77872  0.73115  1.0000
  H   H718      1.0  0.36530  0.72344  0.81684  1.0000
  H   H719      1.0  0.37737  0.74488  0.81452  1.0000
  H   H720      1.0  0.34012  0.73780  0.79721  1.0000
  C   C430      1.0  0.19988  0.91488  0.79119  1.0000
  C   C431      1.0  0.33889  0.76393  0.91388  1.0000
  H   H721      1.0  0.32735  0.76583  0.54022  1.0000
  C   C432      1.0  0.40293  0.77713  0.93982  1.0000
  H   H722      1.0  0.45489  0.73620  0.78245  1.0000
  H   H723      1.0  0.43710  0.74842  0.81318  1.0000
  N   N30       1.0  0.26290  0.75726  0.56566  1.0000
  C   C433      1.0  0.27416  0.76045  0.53301  1.0000
  C   C434      1.0  0.27905  0.76992  0.58516  1.0000
  H   H724      1.0  0.19495  0.99245  0.62505  1.0000
  C   C435      1.0  0.26147  0.77353  0.61638  1.0000
  H   H725      1.0  0.01633  0.72282  0.65760  1.0000
  C   C436      1.0  0.22100  0.75962  0.97866  1.0000
  H   H726      1.0  0.30072  0.73821  0.57038  1.0000
  H   H727      1.0  0.30522  0.76621  0.58911  1.0000
  H   H728      1.0  0.28078  0.78215  0.57306  1.0000
  H   H729      1.0  0.16201  0.73454  0.93835  1.0000
  H   H730      1.0  0.29292  0.92148  0.72057  1.0000
  H   H731      1.0  0.35615  0.79972  0.93417  1.0000
  H   H732      1.0  0.28066  0.77560  0.63314  1.0000
  H   H733      1.0  0.32804  0.97756  0.94267  1.0000
  H   H734      1.0  0.15568  0.70460  0.94398  1.0000
  C   C437      1.0  0.21250  0.93286  0.78561  1.0000
  H   H735      1.0  0.07425  0.71782  0.92945  1.0000
  H   H736      1.0  0.24236  0.93154  0.71075  1.0000
  H   H737      1.0  0.31716  0.76365  0.50167  1.0000
  H   H738      1.0  0.31966  0.74545  0.52445  1.0000
  H   H739      1.0  0.19344  0.94983  0.71475  1.0000
  N   N31       1.0  0.48746  0.98584  0.88917  1.0000
  H   H740      1.0  0.33356  0.78343  0.98270  1.0000
  H   H741      1.0  0.38943  0.75191  0.95265  1.0000
  H   H742      1.0  0.24702  0.78530  0.61563  1.0000
  H   H743      1.0  0.46641  0.97777  0.65646  1.0000
  N   N32       1.0  0.04249  0.75680  0.64120  1.0000
  C   C438      1.0  0.31186  0.75869  0.52495  1.0000
  C   C439      1.0  0.06097  0.72840  0.94049  1.0000
  H   H744      1.0  0.10250  0.75320  0.91507  1.0000
  C   C440      1.0  0.32508  0.75026  0.96214  1.0000
  H   H745      1.0  0.46917  0.75671  0.78875  1.0000
  H   H746      1.0  0.06368  0.74514  0.97752  1.0000
  C   C441      1.0  0.26514  0.73393  0.60642  1.0000
  H   H747      1.0  0.33839  0.73850  0.95629  1.0000
  H   H748      1.0  0.10654  0.77555  0.59548  1.0000
  C   C442      1.0  0.05740  0.73960  0.64253  1.0000
  H   H749      1.0  0.15694  0.74987  0.98255  1.0000
  H   H750      1.0  0.27170  0.72055  0.60845  1.0000
  C   C443      1.0  0.29788  0.92770  0.74208  1.0000
  H   H751      1.0  0.32557  0.90093  0.89824  1.0000
  H   H752      1.0  0.45985  0.99482  0.68241  1.0000
  H   H753      1.0  0.45244  0.72459  0.70206  1.0000
  C   C444      1.0  0.34963  0.90322  0.88530  1.0000
  H   H754      1.0  0.23830  0.73491  0.61315  1.0000
  H   H755      1.0  0.40409  0.78881  0.95286  1.0000
  C   C445      1.0  0.05943  0.76646  0.61534  1.0000
  H   H756      1.0  0.18610  0.91015  0.77203  1.0000
  C   C446      1.0  0.18261  0.98659  0.57935  1.0000
  H   H757      1.0  0.18324  0.93007  0.70002  1.0000
  C   C447      1.0  0.37861  0.76458  0.95577  1.0000
  H   H758      1.0  0.11546  0.70638  0.96277  1.0000
  H   H759      1.0  0.22355  0.93702  0.80684  1.0000
  H   H760      1.0  0.39739  0.78012  0.91622  1.0000
  C   C448      1.0  0.31710  0.98826  0.95395  1.0000
  C   C449      1.0  0.31721  0.98900  0.73555  1.0000
  H   H761      1.0  0.45941  0.90228  0.83832  1.0000
  C   C450      1.0  0.22532  0.75823  0.56749  1.0000
  H   H762      1.0  0.44137  0.71763  0.73943  1.0000
  H   H763      1.0  0.37659  0.76589  0.70051  1.0000
  H   H764      1.0  0.17046  0.93459  0.73819  1.0000
  H   H765      1.0  0.26737  0.77324  0.52569  1.0000
  H   H766      1.0  0.21478  0.74839  0.55334  1.0000
  H   H767      1.0  0.46412  0.88001  0.84497  1.0000
  C   C451      1.0  0.44513  0.72895  0.72518  1.0000
  N   N33       1.0  0.34265  0.76515  0.94750  1.0000
  S   S127      1.0  0.21461  0.72562  0.50430  1.0000
  H   H768      1.0  0.19588  0.96494  0.75510  1.0000
  H   H769      1.0  0.02323  0.76210  0.68648  1.0000
  S   S128      1.0  0.27513  0.99067  0.90597  1.0000
  H   H770      1.0  0.30493  0.94084  0.73748  1.0000
  H   H771      1.0  0.08210  0.77552  0.69951  1.0000
  H   H772      1.0  0.45678  0.96515  0.90615  1.0000
  H   H773      1.0  0.08138  0.72560  0.98443  1.0000
  H   H774      1.0  0.07202  0.75442  0.70691  1.0000
  C   C452      1.0  0.47066  0.93795  0.84941  1.0000
  H   H775      1.0  0.17140  0.99236  0.55941  1.0000
  H   H776      1.0  0.34312  0.73685  0.90619  1.0000
  H   H777      1.0  0.45218  0.97402  0.69465  1.0000
  H   H778      1.0  0.10228  0.77847  0.63523  1.0000
  H   H779      1.0  0.21139  0.77604  0.53224  1.0000
  C   C453      1.0  0.32992  0.79675  0.94069  1.0000
  C   C454      1.0  0.48487  0.79758  0.80244  1.0000
  H   H780      1.0  0.41560  0.98009  0.87856  1.0000
  H   H781      1.0  0.47013  0.97529  0.84840  1.0000
  H   H782      1.0  0.03653  0.72356  0.94970  1.0000
  C   C455      1.0  0.00080  0.71446  0.58978  1.0000
  H   H783      1.0  0.20650  0.98052  0.57220  1.0000
  H   H784      1.0  0.28512  0.99136  0.59504  1.0000
  C   C456      1.0  0.32836  0.99324  0.98210  1.0000
  C   C457      1.0  0.33245  0.99137  0.70651  1.0000
  H   H785      1.0  0.45734  0.99592  0.85358  1.0000
  C   C458      1.0  0.26106  0.99519  0.60643  1.0000
  H   H786      1.0  0.49006  0.80591  0.78345  1.0000
  C   C459      1.0  0.13002  0.74730  0.98705  1.0000
  C   C460      1.0  0.42297  0.98513  0.90048  1.0000
  H   H787      1.0  0.46083  0.98144  0.93252  1.0000
  H   H788      1.0  0.40438  0.98031  0.91789  1.0000
  H   H789      1.0  0.38047  0.76672  0.98037  1.0000
  H   H790      1.0  0.15234  0.71430  0.97972  1.0000
  H   H791      1.0  0.18038  0.75712  0.48997  1.0000
  Fe  Fe65      1.0  0.79354  0.29128  0.35292  1.0000
  S   S129      1.0  0.81042  0.27267  0.31785  1.0000
  S   S130      1.0  0.76058  0.28592  0.39613  1.0000
  Fe  Fe66      1.0  0.82471  0.32107  0.31562  1.0000
  S   S131      1.0  0.84310  0.30403  0.27793  1.0000
  Fe  Fe67      1.0  0.79295  0.29108  0.28310  1.0000
  S   S132      1.0  0.75481  0.28591  0.24662  1.0000
  Fe  Fe68      1.0  0.85922  0.28706  0.31537  1.0000
  S   S133      1.0  0.90878  0.27284  0.31658  1.0000
  S   S134      1.0  0.77372  0.30930  0.31867  1.0000
  S   S135      1.0  0.84318  0.30448  0.35256  1.0000
  Fe  Fe69      1.0  0.60767  0.23421  0.07946  1.0000
  S   S136      1.0  0.61933  0.21619  0.04204  1.0000
  S   S137      1.0  0.55545  0.24431  0.09292  1.0000
  Fe  Fe70      1.0  0.67901  0.23225  0.10340  1.0000
  S   S138      1.0  0.69412  0.21323  0.06793  1.0000
  S   S139      1.0  0.72099  0.23829  0.13568  1.0000
  Fe  Fe71      1.0  0.66847  0.22998  0.03497  1.0000
  C   C461      1.0  0.66944  0.00176  0.40557  1.0000
  Fe  Fe72      1.0  0.64431  0.20087  0.07720  1.0000
  S   S140      1.0  0.62642  0.17409  0.08695  1.0000
  S   S141      1.0  0.65498  0.24941  0.07001  1.0000
  S   S142      1.0  0.63109  0.21855  0.11512  1.0000
  Fe  Fe73      1.0  0.62686  0.05021  0.09866  1.0000
  S   S143      1.0  0.67212  0.05318  0.06656  1.0000
  S   S144      1.0  0.63580  0.04275  0.14768  1.0000
  Fe  Fe74      1.0  0.58185  0.06313  0.05060  1.0000
  S   S145      1.0  0.62353  0.06621  0.01553  1.0000
  S   S146      1.0  0.53284  0.07219  0.03513  1.0000
  Fe  Fe75      1.0  0.64056  0.04131  0.03181  1.0000
  C   C462      1.0  0.61085  0.99702  0.20885  1.0000
  Fe  Fe76      1.0  0.65017  0.07791  0.05339  1.0000
  S   S147      1.0  0.67808  0.10237  0.04371  1.0000
  S   S148      1.0  0.59645  0.03725  0.06461  1.0000
  S   S149      1.0  0.60741  0.07585  0.08765  1.0000
  C   C463      1.0  0.93407  0.27236  0.40460  1.0000
  C   C464      1.0  0.66422  0.02051  0.44887  1.0000
  H   H792      1.0  0.78554  0.27074  0.00885  1.0000
  C   C465      1.0  0.54889  0.00379  0.46813  1.0000
  H   H793      1.0  0.61096  0.13401  0.02621  1.0000
  C   C466      1.0  0.55615  0.11609  0.04740  1.0000
  C   C467      1.0  0.62544  0.02500  0.17068  1.0000
  N   N34       1.0  0.69230  0.26379  0.32302  1.0000
  H   H794      1.0  0.81346  0.30360  0.43475  1.0000
  C   C468      1.0  0.83828  0.29826  0.43933  1.0000
  H   H795      1.0  0.86556  0.25095  0.48687  1.0000
  H   H796      1.0  0.85674  0.23753  0.38291  1.0000
  H   H797      1.0  0.70588  0.09354  0.46058  1.0000
  H   H798      1.0  0.76895  0.02601  0.43157  1.0000
  H   H799      1.0  0.53210  0.06095  0.09748  1.0000
  C   C469      1.0  0.64246  0.15436  0.07539  1.0000
  C   C470      1.0  0.66920  0.15267  0.05409  1.0000
  C   C471      1.0  0.68017  0.13669  0.04504  1.0000
  C   C472      1.0  0.66451  0.12221  0.05703  1.0000
  C   C473      1.0  0.63787  0.12392  0.07843  1.0000
  C   C474      1.0  0.62693  0.13988  0.08748  1.0000
  H   H800      1.0  0.68143  0.16366  0.04457  1.0000
  H   H801      1.0  0.70084  0.13554  0.02854  1.0000
  H   H802      1.0  0.62573  0.11294  0.08807  1.0000
  H   H803      1.0  0.60636  0.14099  0.10407  1.0000
  C   C475      1.0  0.75256  0.26901  0.42213  1.0000
  C   C476      1.0  0.72984  0.27134  0.44704  1.0000
  C   C477      1.0  0.78951  0.25738  0.01419  1.0000
  C   C478      1.0  0.73927  0.24311  0.46571  1.0000
  C   C479      1.0  0.76187  0.24077  0.44067  1.0000
  C   C480      1.0  0.76834  0.25355  0.41897  1.0000
  H   H804      1.0  0.71744  0.28321  0.44984  1.0000
  H   H805      1.0  0.66291  0.01761  0.07269  1.0000
  H   H806      1.0  0.77440  0.22891  0.43805  1.0000
  H   H807      1.0  0.78554  0.25142  0.39986  1.0000
  C   C481      1.0  0.74644  0.27262  0.21547  1.0000
  C   C482      1.0  0.76712  0.25931  0.20665  1.0000
  C   C483      1.0  0.75887  0.24903  0.18234  1.0000
  C   C484      1.0  0.72964  0.25169  0.16656  1.0000
  C   C485      1.0  0.70896  0.26500  0.17537  1.0000
  C   C486      1.0  0.71742  0.27540  0.19944  1.0000
  H   H808      1.0  0.78951  0.25691  0.21854  1.0000
  H   H809      1.0  0.77521  0.23884  0.17584  1.0000
  H   H810      1.0  0.68654  0.26738  0.16352  1.0000
  H   H811      1.0  0.70121  0.28567  0.20575  1.0000
  C   C487      1.0  0.51568  0.23782  0.08110  1.0000
  C   C488      1.0  0.51217  0.22850  0.05497  1.0000
  H   H812      1.0  0.54679  0.16939  0.15306  1.0000
  H   H813      1.0  0.53411  0.22521  0.04110  1.0000
  H   H814      1.0  0.97272  0.25724  0.32196  1.0000
  C   C489      1.0  0.94877  0.28125  0.32328  1.0000
  C   C490      1.0  0.95368  0.29825  0.32770  1.0000
  H   H815      1.0  0.79729  0.27739  0.06031  1.0000
  H   H816      1.0  0.93280  0.30673  0.32667  1.0000
  H   H817      1.0  0.69804  0.05642  0.44548  1.0000
  C   C491      1.0  0.57788  0.01755  0.38709  1.0000
  H   H818      1.0  0.55136  0.02707  0.42677  1.0000
  H   H819      1.0  0.94670  0.27254  0.42623  1.0000
  C   C492      1.0  0.70258  0.25500  0.29402  1.0000
  H   H820      1.0  0.69905  0.23333  0.35179  1.0000
  H   H821      1.0  0.59473  0.16249  0.01690  1.0000
  C   C493      1.0  0.66491  0.00960  0.09317  1.0000
  H   H822      1.0  0.65192  0.24572  0.32588  1.0000
  H   H823      1.0  0.55579  0.01439  0.37428  1.0000
  C   C494      1.0  0.63359  0.00905  0.21730  1.0000
  H   H824      1.0  0.95012  0.27971  0.38823  1.0000
  H   H825      1.0  0.80461  0.27090  0.11390  1.0000
  H   H826      1.0  0.73427  0.23838  0.37311  1.0000
  C   C495      1.0  0.54111  0.18690  0.06651  1.0000
  H   H827      1.0  0.55707  0.16961  0.10035  1.0000
  H   H828      1.0  0.77556  0.05667  0.43166  1.0000
  H   H829      1.0  0.56751  0.21865  0.15773  1.0000
  H   H830      1.0  0.73906  0.28120  0.02722  1.0000
  H   H831      1.0  0.71964  0.01297  0.09585  1.0000
  H   H832      1.0  0.59357  0.02154  0.43173  1.0000
  H   H833      1.0  0.98903  0.31753  0.33696  1.0000
  H   H834      1.0  0.89028  0.28168  0.38387  1.0000
  N   N35       1.0  0.52306  0.18678  0.12350  1.0000
  H   H835      1.0  0.64571  0.00765  0.23843  1.0000
  H   H836      1.0  0.83441  0.28211  0.40162  1.0000
  N   N36       1.0  0.74208  0.06195  0.47021  1.0000
  H   H837      1.0  0.57300  0.10566  0.05275  1.0000
  H   H838      1.0  0.72971  0.03570  0.42685  1.0000
  C   C496      1.0  0.88500  0.27232  0.45981  1.0000
  C   C497      1.0  0.77341  0.22262  0.03111  1.0000
  H   H839      1.0  0.50393  0.15152  0.13125  1.0000
  C   C498      1.0  0.50667  0.06206  0.09075  1.0000
  H   H840      1.0  0.71045  0.26469  0.36845  1.0000
  H   H841      1.0  0.81183  0.23297  0.05742  1.0000
  C   C499      1.0  0.60228  0.01309  0.16246  1.0000
  C   C500      1.0  0.59993  0.13662  0.00429  1.0000
  H   H842      1.0  0.74711  0.22448  0.02578  1.0000
  C   C501      1.0  0.82648  0.25392  0.00510  1.0000
  H   H843      1.0  0.65406  0.25606  0.27226  1.0000
  C   C502      1.0  0.52167  0.17498  0.15023  1.0000
  H   H844      1.0  0.54577  0.21059  0.11167  1.0000
  H   H845      1.0  0.83428  0.24108  0.01063  1.0000
  H   H846      1.0  0.72892  0.25809  0.28677  1.0000
  H   H847      1.0  0.65646  0.02772  0.40262  1.0000
  S   S150      1.0  0.66043  0.01974  0.00249  1.0000
  H   H848      1.0  0.64325  0.01290  0.10846  1.0000
  C   C503      1.0  0.57035  0.01722  0.42167  1.0000
  H   H849      1.0  0.56066  0.19647  0.06870  1.0000
  H   H850      1.0  0.65263  0.27129  0.37748  1.0000
  H   H851      1.0  0.93339  0.25952  0.39584  1.0000
  C   C504      1.0  0.55122  0.11767  0.01315  1.0000
  H   H852      1.0  0.89140  0.24642  0.42480  1.0000
  H   H853      1.0  0.72587  0.07080  0.42678  1.0000
  C   C505      1.0  0.59530  0.99911  0.18128  1.0000
  H   H854      1.0  0.53141  0.12710  0.00988  1.0000
  H   H855      1.0  0.59893  0.00928  0.38015  1.0000
  H   H856      1.0  0.52010  0.00328  0.19242  1.0000
  H   H857      1.0  0.77544  0.20988  0.04080  1.0000
  C   C506      1.0  0.89921  0.28049  0.40718  1.0000
  C   C507      1.0  0.97630  0.27045  0.32491  1.0000
  C   C508      1.0  0.86101  0.26453  0.48451  1.0000
  H   H858      1.0  0.65876  0.29400  0.34890  1.0000
  C   C509      1.0  0.66276  0.01762  0.41762  1.0000
  H   H859      1.0  0.70185  0.24126  0.29724  1.0000
  H   H860      1.0  0.84060  0.25803  0.37841  1.0000
  H   H861      1.0  0.59511  0.00412  0.09305  1.0000
  C   C510      1.0  0.71726  0.25929  0.34607  1.0000
  H   H862      1.0  0.53566  0.00034  0.29935  1.0000
  C   C511      1.0  0.51869  0.00109  0.25346  1.0000
  C   C512      1.0  0.67400  0.00775  0.46825  1.0000
  C   C513      1.0  0.84070  0.28074  0.42558  1.0000
  H   H863      1.0  0.54385  0.00242  0.24177  1.0000
  C   C514      1.0  0.86917  0.25395  0.41937  1.0000
  C   C515      1.0  0.68593  0.29394  0.34302  1.0000
  C   C516      1.0  0.79851  0.26404  0.06708  1.0000
  H   H864      1.0  0.68900  0.25013  0.24806  1.0000
  C   C517      1.0  0.98567  0.30434  0.33354  1.0000
  H   H865      1.0  0.77199  0.23189  0.07627  1.0000
  C   C518      1.0  0.53404  0.17682  0.09603  1.0000
  H   H866      1.0  0.69261  0.30686  0.33586  1.0000
  H   H867      1.0  0.69712  0.00970  0.13220  1.0000
  H   H868      1.0  0.82544  0.26076  0.06495  1.0000
  H   H869      1.0  0.56534  0.12773  0.05718  1.0000
  H   H870      1.0  0.57453  0.19505  0.12199  1.0000
  C   C519      1.0  0.86234  0.25092  0.38592  1.0000
  H   H871      1.0  0.85721  0.30690  0.42900  1.0000
  H   H872      1.0  0.84800  0.24822  0.43307  1.0000
  S   S151      1.0  0.66960  0.99906  0.36585  1.0000
  C   C520      1.0  0.73135  0.27529  0.04914  1.0000
  H   H873      1.0  0.51492  0.16746  0.09070  1.0000
  C   C521      1.0  0.65710  0.25871  0.33285  1.0000
  C   C522      1.0  0.64737  0.25922  0.36707  1.0000
  H   H874      1.0  0.81974  0.27332  0.43597  1.0000
  H   H875      1.0  0.84317  0.26293  0.01559  1.0000
  H   H876      1.0  0.52816  0.01304  0.46986  1.0000
  H   H877      1.0  0.58943  0.01481  0.14186  1.0000
  C   C523      1.0  0.72315  0.25851  0.46862  1.0000
  H   H878      1.0  0.58535  0.02276  0.48131  1.0000
  C   C524      1.0  0.60529  0.10683  0.99461  1.0000
  C   C525      1.0  0.69610  0.01532  0.10929  1.0000
  H   H879      1.0  0.65887  0.03272  0.45779  1.0000
  H   H880      1.0  0.65863  0.03211  0.20501  1.0000
  H   H881      1.0  0.74076  0.28271  0.06782  1.0000
  H   H882      1.0  0.74205  0.26481  0.33957  1.0000
  H   H883      1.0  0.74015  0.23537  0.33335  1.0000
  C   C526      1.0  0.68089  0.25849  0.26687  1.0000
  C   C527      1.0  0.72268  0.24047  0.35119  1.0000
  H   H884      1.0  0.63209  0.99738  0.04821  1.0000
  C   C528      1.0  0.78846  0.26260  0.10113  1.0000
  H   H885      1.0  0.55070  0.17837  0.04862  1.0000
  H   H886      1.0  0.76238  0.26654  0.10646  1.0000
  H   H887      1.0  0.78905  0.22296  0.00976  1.0000
  H   H888      1.0  0.88437  0.25387  0.37070  1.0000
  C   C529      1.0  0.64086  0.02292  0.19827  1.0000
  C   C530      1.0  0.69447  0.28224  0.31649  1.0000
  H   H889      1.0  0.55724  0.15092  0.02417  1.0000
  H   H890      1.0  0.71999  0.28554  0.30728  1.0000
  N   N37       1.0  0.87358  0.27187  0.42799  1.0000
  H   H891      1.0  0.65997  0.24926  0.37973  1.0000
  H   H892      1.0  0.78735  0.04692  0.46506  1.0000
  H   H893      1.0  0.68024  0.07916  0.48299  1.0000
  H   H894      1.0  0.89170  0.28515  0.46654  1.0000
  N   N38       1.0  0.77879  0.25342  0.04660  1.0000
  H   H895      1.0  0.76387  0.08600  0.45858  1.0000
  C   C531      1.0  0.55092  0.20757  0.15935  1.0000
  H   H896      1.0  0.90327  0.29348  0.41447  1.0000
  C   C532      1.0  0.74942  0.03379  0.44316  1.0000
  C   C533      1.0  0.74193  0.25683  0.05106  1.0000
  H   H897      1.0  0.62013  0.25697  0.37052  1.0000
  H   H898      1.0  0.69464  0.02897  0.11271  1.0000
  H   H899      1.0  0.70372  0.27603  0.05129  1.0000
  H   H900      1.0  0.73194  0.25186  0.07326  1.0000
  H   H901      1.0  0.72784  0.25015  0.03400  1.0000
  H   H902      1.0  0.79202  0.24981  0.11004  1.0000
  C   C534      1.0  0.71496  0.06704  0.44950  1.0000
  H   H903      1.0  0.83989  0.29788  0.46423  1.0000
  H   H904      1.0  0.73934  0.02646  0.46294  1.0000
  H   H905      1.0  0.61370  0.10490  0.01787  1.0000
  H   H906      1.0  0.58562  0.03033  0.38000  1.0000
  H   H907      1.0  0.70037  0.99921  0.04914  1.0000
  H   H908      1.0  0.53172  0.11315  0.05919  1.0000
  C   C535      1.0  0.54905  0.20003  0.12763  1.0000
  H   H909      1.0  0.51579  0.18149  0.17177  1.0000
  H   H910      1.0  0.70020  0.29122  0.36319  1.0000
  C   C536      1.0  0.78492  0.23535  0.05420  1.0000
  H   H911      1.0  0.63872  0.26653  0.32114  1.0000
  C   C537      1.0  0.69224  0.08154  0.46036  1.0000
  H   H912      1.0  0.68433  0.27133  0.25795  1.0000
  H   H913      1.0  0.51817  0.19269  0.05834  1.0000
  H   H914      1.0  0.56225  0.19866  0.17516  1.0000
  C   C538      1.0  0.76514  0.05034  0.45259  1.0000
  H   H915      1.0  0.67736  0.28601  0.29874  1.0000
  H   H916      1.0  0.54008  0.10565  0.00660  1.0000
  H   H917      1.0  0.77383  0.25059  0.99834  1.0000
  C   C539      1.0  0.57885  0.15257  0.00785  1.0000
  H   H918      1.0  0.67189  0.08315  0.44452  1.0000
  N   N39       1.0  0.58210  0.12152  0.99343  1.0000
  H   H919      1.0  0.62154  0.13995  0.98864  1.0000
  H   H920      1.0  0.69862  0.26939  0.99044  1.0000
  C   C540      1.0  0.76046  0.07751  0.47858  1.0000
  N   N40       1.0  0.55899  0.00074  0.43535  1.0000
  H   H921      1.0  0.81386  0.07119  0.47254  1.0000
  H   H922      1.0  0.83430  0.26640  0.48050  1.0000
  H   H923      1.0  0.90874  0.26533  0.46148  1.0000
  C   C541      1.0  0.49638  0.16060  0.14897  1.0000
  H   H924      1.0  0.51144  0.01397  0.25920  1.0000
  C   C542      1.0  0.50026  0.06729  0.06139  1.0000
  H   H925      1.0  0.51359  0.00569  0.41221  1.0000
  H   H926      1.0  0.52659  0.21186  0.16902  1.0000
  H   H927      1.0  0.98988  0.27808  0.22361  1.0000
  H   H928      1.0  0.49571  0.15369  0.17085  1.0000
  H   H929      1.0  0.49686  0.02874  0.22045  1.0000
  H   H930      1.0  0.59210  0.09512  0.98934  1.0000
  C   C543      1.0  0.49455  0.00290  0.20361  1.0000
  Fe  Fe77      1.0  0.79192  0.28906  0.85173  1.0000
  S   S152      1.0  0.82824  0.27137  0.82791  1.0000
  S   S153      1.0  0.76276  0.28821  0.89824  1.0000
  Fe  Fe78      1.0  0.80472  0.31640  0.80289  1.0000
  S   S154      1.0  0.84061  0.30038  0.77566  1.0000
  Fe  Fe79      1.0  0.80395  0.27939  0.78461  1.0000
  S   S155      1.0  0.79600  0.26026  0.74673  1.0000
  Fe  Fe80      1.0  0.86261  0.29353  0.81993  1.0000
  S   S156      1.0  0.91861  0.29901  0.82468  1.0000
  S   S157      1.0  0.76622  0.29591  0.80902  1.0000
  S   S158      1.0  0.82796  0.31068  0.84655  1.0000
  Fe  Fe81      1.0  0.62364  0.22484  0.55983  1.0000
  S   S159      1.0  0.65207  0.20598  0.53162  1.0000
  S   S160      1.0  0.57158  0.23228  0.54494  1.0000
  Fe  Fe82      1.0  0.68202  0.22935  0.60267  1.0000
  S   S161      1.0  0.71353  0.21007  0.57753  1.0000
  S   S162      1.0  0.69143  0.24654  0.64327  1.0000
  Fe  Fe83      1.0  0.69681  0.22278  0.53465  1.0000
  H   H931      1.0  0.57693  0.13730  0.51681  1.0000
  Fe  Fe84      1.0  0.66634  0.19458  0.57562  1.0000
  S   S163      1.0  0.65123  0.16767  0.58871  1.0000
  S   S164      1.0  0.66745  0.24254  0.55978  1.0000
  S   S165      1.0  0.63600  0.21301  0.60379  1.0000
  Fe  Fe85      1.0  0.62946  0.04110  0.59913  1.0000
  S   S166      1.0  0.67893  0.04566  0.57365  1.0000
  S   S167      1.0  0.61708  0.03414  0.64896  1.0000
  Fe  Fe86      1.0  0.59113  0.05031  0.54369  1.0000
  S   S168      1.0  0.63686  0.05547  0.51451  1.0000
  S   S169      1.0  0.54275  0.05254  0.52103  1.0000
  Fe  Fe87      1.0  0.65641  0.03216  0.53495  1.0000
  H   H932      1.0  0.56936  0.18011  0.49537  1.0000
  Fe  Fe88      1.0  0.65509  0.06894  0.55489  1.0000
  S   S170      1.0  0.68300  0.09336  0.54340  1.0000
  S   S171      1.0  0.60904  0.02600  0.56183  1.0000
  S   S172      1.0  0.60716  0.06533  0.58271  1.0000
  H   H933      1.0  0.60438  0.03169  0.96826  1.0000
  C   C544      1.0  0.61566  0.02122  0.95645  1.0000
  C   C545      1.0  0.49945  0.00199  0.90176  1.0000
  H   H934      1.0  0.58210  0.22863  0.64517  1.0000
  C   C546      1.0  0.50330  0.01870  0.68811  1.0000
  H   H935      1.0  0.90425  0.30038  0.72461  1.0000
  C   C547      1.0  0.63307  0.01877  0.67365  1.0000
  C   C548      1.0  0.61923  0.01760  0.70344  1.0000
  C   C549      1.0  0.63178  0.02708  0.81749  1.0000
  H   H936      1.0  0.60004  0.02630  0.71092  1.0000
  H   H937      1.0  0.59735  0.18003  0.54644  1.0000
  H   H938      1.0  0.62892  0.02801  0.79278  1.0000
  C   C550      1.0  0.51825  0.03719  0.57264  1.0000
  H   H939      1.0  0.83029  0.25557  0.98021  1.0000
  H   H940      1.0  0.54295  0.03846  0.58090  1.0000
  C   C551      1.0  0.66023  0.14722  0.57506  1.0000
  C   C552      1.0  0.68344  0.14412  0.55111  1.0000
  C   C553      1.0  0.68989  0.12763  0.54163  1.0000
  C   C554      1.0  0.67293  0.11400  0.55558  1.0000
  C   C555      1.0  0.64924  0.11713  0.57913  1.0000
  C   C556      1.0  0.64318  0.13358  0.58892  1.0000
  H   H941      1.0  0.69685  0.15441  0.54022  1.0000
  H   H942      1.0  0.70835  0.12542  0.52346  1.0000
  H   H943      1.0  0.63617  0.10683  0.59031  1.0000
  H   H944      1.0  0.62533  0.13575  0.60758  1.0000
  C   C557      1.0  0.74438  0.27248  0.92280  1.0000
  C   C558      1.0  0.72752  0.27730  0.95006  1.0000
  C   C559      1.0  0.71519  0.99705  0.85373  1.0000
  C   C560      1.0  0.71354  0.24846  0.96323  1.0000
  C   C561      1.0  0.73065  0.24365  0.93614  1.0000
  C   C562      1.0  0.74593  0.25552  0.91607  1.0000
  H   H945      1.0  0.50408  0.00047  0.92617  1.0000
  H   H946      1.0  0.55612  0.01424  0.68167  1.0000
  H   H947      1.0  0.73191  0.23060  0.93046  1.0000
  H   H948      1.0  0.75868  0.25155  0.89529  1.0000
  C   C563      1.0  0.76662  0.25683  0.71799  1.0000
  C   C564      1.0  0.73869  0.26699  0.71435  1.0000
  C   C565      1.0  0.71626  0.26365  0.69146  1.0000
  C   C566      1.0  0.72123  0.25015  0.67159  1.0000
  C   C567      1.0  0.74926  0.24004  0.67513  1.0000
  C   C568      1.0  0.77162  0.24335  0.69811  1.0000
  H   H949      1.0  0.73426  0.27741  0.72927  1.0000
  H   H950      1.0  0.69485  0.27163  0.68916  1.0000
  H   H951      1.0  0.75362  0.22959  0.66030  1.0000
  H   H952      1.0  0.79290  0.23529  0.70059  1.0000
  C   C569      1.0  0.53044  0.22824  0.56039  1.0000
  C   C570      1.0  0.52411  0.22288  0.59029  1.0000
  H   H953      1.0  0.86483  0.27060  0.50646  1.0000
  H   H954      1.0  0.54467  0.22083  0.60466  1.0000
  C   C571      1.0  0.96445  0.27261  0.82547  1.0000
  C   C572      1.0  0.95924  0.28984  0.82549  1.0000
  H   H955      1.0  0.59796  0.15680  0.51736  1.0000
  H   H956      1.0  0.94330  0.26430  0.82581  1.0000
  H   H957      1.0  0.53751  0.00542  0.71449  1.0000
  H   H958      1.0  0.51183  0.03183  0.68892  1.0000
  C   C573      1.0  0.98730  0.30036  0.82555  1.0000
  H   H959      1.0  0.54350  0.19729  0.50917  1.0000
  H   H960      1.0  0.58144  0.16216  0.58787  1.0000
  C   C574      1.0  0.69229  0.01990  0.77948  1.0000
  H   H961      1.0  0.69136  0.04375  0.82228  1.0000
  H   H962      1.0  0.89240  0.25946  0.79768  1.0000
  H   H963      1.0  0.77192  0.04006  0.50994  1.0000
  H   H964      1.0  0.65739  0.01374  0.85114  1.0000
  C   C575      1.0  0.52320  0.26099  0.63505  1.0000
  C   C576      1.0  0.62984  0.00527  0.72367  1.0000
  C   C577      1.0  0.54615  0.15686  0.53743  1.0000
  H   H965      1.0  0.64952  0.00180  0.81880  1.0000
  H   H966      1.0  0.60721  0.02303  0.82775  1.0000
  H   H967      1.0  0.55356  0.01586  0.63097  1.0000
  H   H968      1.0  0.53471  0.08062  0.57209  1.0000
  H   H969      1.0  0.79605  0.06686  0.51030  1.0000
  H   H970      1.0  0.51820  0.00535  0.84110  1.0000
  H   H971      1.0  0.58157  0.02213  0.92038  1.0000
  C   C578      1.0  0.92748  0.29695  0.73565  1.0000
  H   H972      1.0  0.65441  0.11782  0.98152  1.0000
  C   C579      1.0  0.74286  0.03734  0.82086  1.0000
  C   C580      1.0  0.56725  0.19047  0.51161  1.0000
  H   H973      1.0  0.74688  0.02023  0.76675  1.0000
  C   C581      1.0  0.60275  0.01575  0.92924  1.0000
  H   H974      1.0  0.63256  0.10976  0.94989  1.0000
  H   H975      1.0  0.61868  0.00457  0.74635  1.0000
  H   H976      1.0  0.55007  0.11403  0.92251  1.0000
  H   H977      1.0  0.49843  0.26207  0.62506  1.0000
  C   C582      1.0  0.70622  0.03264  0.82832  1.0000
  H   H978      1.0  0.72500  0.00714  0.86760  1.0000
  H   H979      1.0  0.66942  0.00839  0.64181  1.0000
  C   C583      1.0  0.79559  0.07533  0.49057  1.0000
  C   C584      1.0  0.72333  0.01485  0.75956  1.0000
  H   H980      1.0  0.72593  0.29035  0.95554  1.0000
  H   H981      1.0  0.54644  0.00331  0.59909  1.0000
  H   H982      1.0  0.78489  0.32193  0.89981  1.0000
  H   H983      1.0  0.98373  0.31370  0.82553  1.0000
  C   C585      1.0  0.57197  0.12487  0.96165  1.0000
  C   C586      1.0  0.55551  0.16699  0.58824  1.0000
  H   H984      1.0  0.53526  0.15972  0.51536  1.0000
  H   H985      1.0  0.56634  0.01104  0.51164  1.0000
  H   H986      1.0  0.72595  0.00111  0.75874  1.0000
  H   H987      1.0  0.51229  0.19243  0.56755  1.0000
  C   C587      1.0  0.52607  0.09311  0.56485  1.0000
  N   N41       1.0  0.69349  0.01732  0.81331  1.0000
  H   H988      1.0  0.74359  0.32205  0.86707  1.0000
  H   H989      1.0  0.52078  0.26710  0.65732  1.0000
  C   C588      1.0  0.51207  0.17990  0.55737  1.0000
  H   H990      1.0  0.76035  0.02730  0.82675  1.0000
  S   S173      1.0  0.73269  0.22652  0.49262  1.0000
  H   H991      1.0  0.55227  0.13461  0.96149  1.0000
  H   H992      1.0  0.57317  0.19051  0.60701  1.0000
  C   C589      1.0  0.88952  0.24950  0.78094  1.0000
  H   H993      1.0  0.74918  0.04830  0.83453  1.0000
  S   S174      1.0  0.68057  0.01135  0.50699  1.0000
  C   C590      1.0  0.65838  0.00764  0.66459  1.0000
  H   H994      1.0  0.59217  0.14440  0.55141  1.0000
  H   H995      1.0  0.70292  0.03140  0.85335  1.0000
  H   H996      1.0  0.63496  0.26724  0.66583  1.0000
  C   C591      1.0  0.74837  0.04496  0.52017  1.0000
  H   H997      1.0  0.52982  0.14706  0.54819  1.0000
  H   H998      1.0  0.52823  0.10198  0.58348  1.0000
  C   C592      1.0  0.71390  0.00208  0.82008  1.0000
  H   H999      1.0  0.74017  0.00345  0.81136  1.0000
  N   N42       1.0  0.58507  0.26932  0.62274  1.0000
  C   C593      1.0  0.60561  0.27948  0.59960  1.0000
  C   C594      1.0  0.58708  0.27808  0.65254  1.0000
  C   C595      1.0  0.54948  0.26930  0.61328  1.0000
  C   C596      1.0  0.59893  0.25187  0.62327  1.0000
  C   C597      1.0  0.60244  0.27476  0.56624  1.0000
  C   C598      1.0  0.62241  0.27947  0.66450  1.0000
  H   H1000     1.0  0.50776  0.23503  0.51898  1.0000
  C   C599      1.0  0.59079  0.24108  0.65195  1.0000
  H   H1001     1.0  0.59925  0.29295  0.60129  1.0000
  H   H1002     1.0  0.63270  0.27857  0.60377  1.0000
  H   H1003     1.0  0.57129  0.27218  0.67080  1.0000
  H   H1004     1.0  0.57689  0.29094  0.65083  1.0000
  H   H1005     1.0  0.54092  0.28229  0.60916  1.0000
  H   H1006     1.0  0.54751  0.26265  0.59151  1.0000
  H   H1007     1.0  0.59082  0.24479  0.60353  1.0000
  H   H1008     1.0  0.62663  0.25217  0.62034  1.0000
  H   H1009     1.0  0.60575  0.26127  0.56267  1.0000
  H   H1010     1.0  0.57815  0.27876  0.55773  1.0000
  C   C600      1.0  0.61697  0.00217  0.91346  1.0000
  H   H1011     1.0  0.57851  0.99744  0.62334  1.0000
  H   H1012     1.0  0.62058  0.28453  0.68775  1.0000
  C   C601      1.0  0.55814  0.10981  0.94495  1.0000
  C   C602      1.0  0.63748  0.10795  0.97404  1.0000
  H   H1013     1.0  0.73528  0.03382  0.52999  1.0000
  C   C603      1.0  0.55310  0.00282  0.62310  1.0000
  H   H1014     1.0  0.57139  0.24594  0.66801  1.0000
  H   H1015     1.0  0.61385  0.23881  0.66425  1.0000
  N   N43       1.0  0.91789  0.26513  0.73521  1.0000
  C   C604      1.0  0.88500  0.26705  0.72055  1.0000
  C   C605      1.0  0.92375  0.28043  0.75351  1.0000
  C   C606      1.0  0.91765  0.25008  0.75586  1.0000
  C   C607      1.0  0.94513  0.26296  0.71086  1.0000
  C   C608      1.0  0.87223  0.25155  0.70449  1.0000
  H   H1016     1.0  0.70647  0.04456  0.49161  1.0000
  H   H1017     1.0  0.71994  0.01909  0.73594  1.0000
  H   H1018     1.0  0.75387  0.05337  0.53902  1.0000
  H   H1019     1.0  0.86503  0.27107  0.73725  1.0000
  H   H1020     1.0  0.88635  0.27717  0.70320  1.0000
  C   C609      1.0  0.65738  0.99960  0.95250  1.0000
  H   H1021     1.0  0.90281  0.28232  0.77043  1.0000
  H   H1022     1.0  0.91634  0.23839  0.74275  1.0000
  H   H1023     1.0  0.94133  0.24912  0.76770  1.0000
  H   H1024     1.0  0.94259  0.25075  0.69962  1.0000
  H   H1025     1.0  0.80441  0.08762  0.49817  1.0000
  H   H1026     1.0  0.84877  0.25487  0.69357  1.0000
  H   H1027     1.0  0.89008  0.24714  0.68643  1.0000
  H   H1028     1.0  0.86575  0.24126  0.72062  1.0000
  H   H1029     1.0  0.53978  0.15644  0.59706  1.0000
  C   C610      1.0  0.55401  0.18082  0.61214  1.0000
  C   C611      1.0  0.71214  0.26541  0.97007  1.0000
  H   H1030     1.0  0.94885  0.29683  0.71882  1.0000
  C   C612      1.0  0.53372  0.00709  0.68998  1.0000
  C   C613      1.0  0.50323  0.23081  0.54210  1.0000
  H   H1031     1.0  0.59323  0.13006  0.94737  1.0000
  H   H1032     1.0  0.71097  0.06297  0.51148  1.0000
  H   H1033     1.0  0.54373  0.09718  0.54608  1.0000
  H   H1034     1.0  0.52446  0.00560  0.89166  1.0000
  H   H1035     1.0  0.94612  0.27901  0.76698  1.0000
  H   H1036     1.0  0.50409  0.18212  0.53399  1.0000
  H   H1037     1.0  0.74700  0.04115  0.79689  1.0000
  H   H1038     1.0  0.52778  0.24749  0.63766  1.0000
  H   H1039     1.0  0.65143  0.09607  0.97594  1.0000
  C   C614      1.0  0.65838  0.01418  0.82599  1.0000
  H   H1040     1.0  0.52907  0.18666  0.61498  1.0000
  H   H1041     1.0  0.57026  0.19620  0.55823  1.0000
  H   H1042     1.0  0.94263  0.27251  0.69270  1.0000
  C   C615      1.0  0.57141  0.18470  0.54455  1.0000
  H   H1043     1.0  0.67179  0.01240  0.77052  1.0000
  H   H1044     1.0  0.62223  0.28121  0.55208  1.0000
  N   N44       1.0  0.54628  0.17212  0.55692  1.0000
  H   H1045     1.0  0.53606  0.10420  0.95721  1.0000
  H   H1046     1.0  0.49726  0.02725  0.61469  1.0000
  H   H1047     1.0  0.58742  0.19943  0.50499  1.0000
  H   H1048     1.0  0.63845  0.28816  0.65062  1.0000
  C   C616      1.0  0.98135  0.26399  0.72130  1.0000
  H   H1049     1.0  0.68631  0.03308  0.77388  1.0000
  C   C617      1.0  0.64314  0.01321  0.96826  1.0000
  C   C618      1.0  0.51156  0.04275  0.54358  1.0000
  C   C619      1.0  0.58039  0.14856  0.53060  1.0000
  S   S175      1.0  0.69464  0.23274  0.98747  1.0000
  H   H1050     1.0  0.89095  0.23751  0.79350  1.0000
  H   H1051     1.0  0.57734  0.10008  0.94068  1.0000
  H   H1052     1.0  0.63678  0.03953  0.82670  1.0000
  H   H1053     1.0  0.86428  0.25015  0.77199  1.0000
  H   H1054     1.0  0.49418  0.08087  0.61200  1.0000
  H   H1055     1.0  0.55981  0.17529  0.63435  1.0000
  H   H1056     1.0  0.74548  0.08465  0.49598  1.0000
  H   H1057     1.0  0.93232  0.30704  0.75183  1.0000
  C   C620      1.0  0.72562  0.05372  0.49786  1.0000
  H   H1058     1.0  0.75495  0.32649  0.93066  1.0000
  H   H1059     1.0  0.72498  0.32493  0.81583  1.0000
  H   H1060     1.0  0.57034  0.15717  0.98587  1.0000
  H   H1061     1.0  0.98406  0.26196  0.74580  1.0000
  H   H1062     1.0  0.99281  0.27612  0.71448  1.0000
  H   H1063     1.0  0.70682  0.32926  0.90687  1.0000
  H   H1064     1.0  0.50230  0.99779  0.63691  1.0000
  H   H1065     1.0  0.70577  0.26058  0.48769  1.0000
  H   H1066     1.0  0.59814  0.00142  0.48825  1.0000
  C   C621      1.0  0.57666  0.01009  0.48797  1.0000
  Fe  Fe89      1.0  0.87799  0.46322  0.36403  1.0000
  S   S176      1.0  0.82832  0.45786  0.38733  1.0000
  S   S177      1.0  0.92374  0.46232  0.39086  1.0000
  Fe  Fe90      1.0  0.84844  0.47488  0.30465  1.0000
  S   S178      1.0  0.79628  0.47070  0.32433  1.0000
  S   S179      1.0  0.86735  0.48266  0.25677  1.0000
  Fe  Fe91      1.0  0.81379  0.48239  0.36715  1.0000
  S   S180      1.0  0.79072  0.50448  0.39251  1.0000
  Fe  Fe92      1.0  0.81631  0.44641  0.34282  1.0000
  S   S181      1.0  0.78787  0.42194  0.33765  1.0000
  S   S182      1.0  0.86444  0.48819  0.34578  1.0000
  S   S183      1.0  0.86750  0.45015  0.32110  1.0000
  Fe  Fe93      1.0  0.88284  0.53952  0.07402  1.0000
  S   S184      1.0  0.86507  0.55300  0.11578  1.0000
  S   S185      1.0  0.93075  0.52531  0.06940  1.0000
  Fe  Fe94      1.0  0.81712  0.54204  0.04461  1.0000
  S   S186      1.0  0.79313  0.55569  0.08463  1.0000
  H   H1067     1.0  0.97618  0.51609  0.15662  1.0000
  Fe  Fe95      1.0  0.84056  0.57087  0.08371  1.0000
  S   S187      1.0  0.84598  0.59843  0.09678  1.0000
  Fe  Fe96      1.0  0.81946  0.53712  0.11393  1.0000
  S   S188      1.0  0.79369  0.52369  0.15466  1.0000
  S   S189      1.0  0.86281  0.55835  0.04176  1.0000
  S   S190      1.0  0.83902  0.52255  0.07408  1.0000
  S   S191      1.0  0.84390  0.34811  0.31452  1.0000
  C   C622      1.0  0.83074  0.61806  0.08414  1.0000
  C   C623      1.0  0.83637  0.63228  0.10147  1.0000
  C   C624      1.0  0.82580  0.64821  0.09218  1.0000
  C   C625      1.0  0.80974  0.65024  0.06509  1.0000
  C   C626      1.0  0.80376  0.63601  0.04792  1.0000
  C   C627      1.0  0.81416  0.62004  0.05732  1.0000
  H   H1068     1.0  0.84899  0.63092  0.12235  1.0000
  H   H1069     1.0  0.92533  0.51013  0.28220  1.0000
  H   H1070     1.0  0.79122  0.63734  0.02700  1.0000
  H   H1071     1.0  0.80961  0.60928  0.04367  1.0000
  C   C628      1.0  0.79238  0.50842  0.43183  1.0000
  C   C629      1.0  0.79646  0.49564  0.45307  1.0000
  H   H1072     1.0  0.91134  0.62272  0.05786  1.0000
  H   H1073     1.0  0.91721  0.62994  0.09577  1.0000
  H   H1074     1.0  0.92924  0.50426  0.24286  1.0000
  C   C630      1.0  0.78795  0.52480  0.44216  1.0000
  H   H1075     1.0  0.79949  0.48296  0.44549  1.0000
  C   C631      1.0  0.97680  0.50329  0.26597  1.0000
  H   H1076     1.0  0.86822  0.49255  0.47421  1.0000
  H   H1077     1.0  0.78450  0.53475  0.42597  1.0000
  C   C632      1.0  0.84639  0.49440  0.22910  1.0000
  C   C633      1.0  0.81250  0.49843  0.23262  1.0000
  C   C634      1.0  0.79681  0.50741  0.20971  1.0000
  C   C635      1.0  0.81481  0.51269  0.18319  1.0000
  C   C636      1.0  0.84872  0.50868  0.17970  1.0000
  C   C637      1.0  0.86431  0.49951  0.20241  1.0000
  H   H1078     1.0  0.79833  0.49463  0.25297  1.0000
  H   H1079     1.0  0.77060  0.51045  0.21272  1.0000
  H   H1080     1.0  0.86283  0.51251  0.15934  1.0000
  H   H1081     1.0  0.89043  0.49637  0.19924  1.0000
  C   C638      1.0  0.80397  0.40133  0.33324  1.0000
  C   C639      1.0  0.78158  0.38793  0.33127  1.0000
  C   C640      1.0  0.79318  0.37152  0.32628  1.0000
  C   C641      1.0  0.82745  0.36830  0.32281  1.0000
  C   C642      1.0  0.84980  0.38171  0.32482  1.0000
  C   C643      1.0  0.83823  0.39806  0.33029  1.0000
  H   H1082     1.0  0.75503  0.39026  0.33353  1.0000
  H   H1083     1.0  0.77562  0.36140  0.32472  1.0000
  H   H1084     1.0  0.87634  0.37940  0.32229  1.0000
  H   H1085     1.0  0.85585  0.40813  0.33207  1.0000
  H   H1086     1.0  0.69993  0.66299  0.18155  1.0000
  C   C644      1.0  0.95170  0.44110  0.34880  1.0000
  C   C645      1.0  0.95719  0.45307  0.37066  1.0000
  H   H1087     1.0  0.98355  0.39860  0.35518  1.0000
  S   S192      1.0  0.78865  0.53396  0.00381  1.0000
  H   H1088     1.0  0.92679  0.43653  0.34591  1.0000
  C   C646      1.0  0.77935  0.48358  0.02369  1.0000
  H   H1089     1.0  0.90843  0.48663  0.48388  1.0000
  C   C647      1.0  0.89947  0.50420  0.41985  1.0000
  C   C648      1.0  0.96446  0.53843  0.06065  1.0000
  C   C649      1.0  0.95982  0.55563  0.05863  1.0000
  C   C650      1.0  0.78746  0.52841  0.47327  1.0000
  C   C651      1.0  0.94796  0.64340  0.06023  1.0000
  H   H1090     1.0  0.93501  0.56086  0.06096  1.0000
  H   H1091     1.0  0.80100  0.49382  0.11488  1.0000
  C   C652      1.0  0.79939  0.48405  0.09755  1.0000
  C   C653      1.0  0.87357  0.52479  0.47238  1.0000
  H   H1092     1.0  0.74968  0.44196  0.25987  1.0000
  C   C654      1.0  0.96544  0.45556  0.25989  1.0000
  H   H1093     1.0  0.81528  0.48748  0.07726  1.0000
  H   H1094     1.0  0.97727  0.52517  0.11996  1.0000
  N   N45       1.0  0.97793  0.48548  0.27692  1.0000
  C   C655      1.0  0.89918  0.65267  0.03396  1.0000
  H   H1095     1.0  0.87915  0.64594  0.04740  1.0000
  H   H1096     1.0  0.80703  0.48370  0.02384  1.0000
  H   H1097     1.0  0.71409  0.47483  0.02574  1.0000
  H   H1098     1.0  0.97423  0.42602  0.31334  1.0000
  H   H1099     1.0  0.81021  0.47261  0.10737  1.0000
  H   H1100     1.0  0.96211  0.63951  0.03914  1.0000
  H   H1101     1.0  0.69805  0.65769  0.13136  1.0000
  C   C656      1.0  0.92970  0.62773  0.07328  1.0000
  C   C657      1.0  0.97853  0.43507  0.33058  1.0000
  H   H1102     1.0  0.99108  0.50474  0.24392  1.0000
  H   H1103     1.0  0.76679  0.46226  0.26275  1.0000
  C   C658      1.0  0.79490  0.49918  0.48426  1.0000
  H   H1104     1.0  0.98412  0.57949  0.05398  1.0000
  H   H1105     1.0  0.93852  0.47737  0.24912  1.0000
  H   H1106     1.0  0.94833  0.61771  0.07643  1.0000
  H   H1107     1.0  0.94271  0.45176  0.27365  1.0000
  C   C659      1.0  0.95631  0.48293  0.30541  1.0000
  C   C660      1.0  0.96502  0.47443  0.25292  1.0000
  C   C661      1.0  0.94177  0.51054  0.26131  1.0000
  H   H1108     1.0  0.71585  0.46210  0.06001  1.0000
  H   H1109     1.0  0.85447  0.51859  0.99681  1.0000
  C   C662      1.0  0.70502  0.47334  0.04968  1.0000
  H   H1110     1.0  0.89744  0.54960  0.47096  1.0000
  H   H1111     1.0  0.77018  0.47108  0.03034  1.0000
  H   H1112     1.0  0.97828  0.54699  0.19519  1.0000
  C   C663      1.0  0.98755  0.56614  0.05470  1.0000
  C   C664      1.0  0.88118  0.54186  0.45733  1.0000
  N   N46       1.0  0.74629  0.49412  0.07228  1.0000
  C   C665      1.0  0.74550  0.50950  0.09166  1.0000
  C   C666      1.0  0.76297  0.48060  0.08997  1.0000
  C   C667      1.0  0.71063  0.48926  0.06771  1.0000
  C   C668      1.0  0.76451  0.49822  0.04246  1.0000
  C   C669      1.0  0.72633  0.52463  0.07963  1.0000
  H   H1113     1.0  0.89394  0.65490  0.09426  1.0000
  H   H1114     1.0  0.97691  0.56348  0.15171  1.0000
  H   H1115     1.0  0.73477  0.50667  0.11489  1.0000
  H   H1116     1.0  0.77113  0.51411  0.09483  1.0000
  H   H1117     1.0  0.76314  0.46852  0.07836  1.0000
  H   H1118     1.0  0.74863  0.47820  0.11182  1.0000
  H   H1119     1.0  0.69659  0.48784  0.08998  1.0000
  H   H1120     1.0  0.69766  0.49919  0.05516  1.0000
  H   H1121     1.0  0.74808  0.50545  0.02763  1.0000
  H   H1122     1.0  0.78582  0.50663  0.04615  1.0000
  H   H1123     1.0  0.73530  0.52834  0.05643  1.0000
  H   H1124     1.0  0.69900  0.52255  0.08068  1.0000
  H   H1125     1.0  0.73054  0.53541  0.09445  1.0000
  H   H1126     1.0  0.97781  0.47682  0.23040  1.0000
  H   H1127     1.0  0.92117  0.52504  0.14357  1.0000
  H   H1128     1.0  0.90928  0.64349  0.01715  1.0000
  H   H1129     1.0  0.77363  0.48548  0.99961  1.0000
  H   H1130     1.0  0.67774  0.47105  0.04931  1.0000
  H   H1131     1.0  0.92936  0.48416  0.30098  1.0000
  N   N47       1.0  0.81436  0.42670  0.24376  1.0000
  C   C670      1.0  0.80488  0.44313  0.25812  1.0000
  C   C671      1.0  0.84671  0.42130  0.25675  1.0000
  C   C672      1.0  0.78687  0.41438  0.25225  1.0000
  C   C673      1.0  0.81766  0.42943  0.21004  1.0000
  C   C674      1.0  0.77027  0.45016  0.25110  1.0000
  C   C675      1.0  0.87757  0.43201  0.24751  1.0000
  C   C676      1.0  0.79543  0.39568  0.25054  1.0000
  C   C677      1.0  0.83154  0.41486  0.19083  1.0000
  H   H1132     1.0  0.80530  0.44209  0.28318  1.0000
  H   H1133     1.0  0.82310  0.45305  0.25129  1.0000
  H   H1134     1.0  0.85365  0.40839  0.25062  1.0000
  H   H1135     1.0  0.84396  0.42100  0.28189  1.0000
  H   H1136     1.0  0.77720  0.41632  0.27597  1.0000
  H   H1137     1.0  0.76506  0.41642  0.23813  1.0000
  H   H1138     1.0  0.79298  0.43241  0.20107  1.0000
  H   H1139     1.0  0.83288  0.44071  0.20406  1.0000
  H   H1140     1.0  0.76803  0.45276  0.22669  1.0000
  H   H1141     1.0  0.89940  0.42700  0.25908  1.0000
  H   H1142     1.0  0.88379  0.43152  0.22287  1.0000
  H   H1143     1.0  0.87472  0.44513  0.25445  1.0000
  H   H1144     1.0  0.81251  0.39191  0.26828  1.0000
  H   H1145     1.0  0.80592  0.39186  0.22819  1.0000
  H   H1146     1.0  0.77221  0.38837  0.25523  1.0000
  H   H1147     1.0  0.81095  0.40695  0.18325  1.0000
  H   H1148     1.0  0.84960  0.40695  0.20233  1.0000
  H   H1149     1.0  0.84563  0.41991  0.17050  1.0000
  H   H1150     1.0  0.88776  0.49199  0.42557  1.0000
  H   H1151     1.0  0.91571  0.50230  0.39912  1.0000
  H   H1152     1.0  0.93402  0.52202  0.43698  1.0000
  H   H1153     1.0  0.95885  0.46999  0.31399  1.0000
  H   H1154     1.0  0.96667  0.44859  0.23837  1.0000
  H   H1155     1.0  0.85732  0.54877  0.45581  1.0000
  H   H1156     1.0  0.85400  0.51883  0.45941  1.0000
  H   H1157     1.0  0.94429  0.52384  0.25455  1.0000
  C   C678      1.0  0.92105  0.51049  0.44524  1.0000
  N   N48       1.0  0.90280  0.51323  0.47535  1.0000
  H   H1158     1.0  0.83024  0.65888  0.10601  1.0000
  C   C679      1.0  0.93894  0.53466  0.15067  1.0000
  H   H1159     1.0  0.93304  0.53699  0.17495  1.0000
  N   N49       1.0  0.92621  0.65829  0.05409  1.0000
  C   C680      1.0  0.97487  0.52821  0.14443  1.0000
  H   H1160     1.0  0.78356  0.54105  0.48081  1.0000
  H   H1161     1.0  0.89204  0.54074  0.43396  1.0000
  H   H1162     1.0  0.87992  0.51323  0.41389  1.0000
  H   H1163     1.0  0.96712  0.64648  0.07655  1.0000
  H   H1164     1.0  0.93386  0.54597  0.13711  1.0000
  H   H1165     1.0  0.98697  0.55499  0.11560  1.0000
  H   H1166     1.0  0.93661  0.53285  0.48678  1.0000
  H   H1167     1.0  0.94137  0.50117  0.44749  1.0000
  H   H1168     1.0  0.85993  0.66048  0.00491  1.0000
  H   H1169     1.0  0.98762  0.45155  0.27181  1.0000
  C   C681      1.0  0.98957  0.45860  0.37501  1.0000
  C   C682      1.0  0.96386  0.49437  0.33189  1.0000
  H   H1170     1.0  0.97865  0.51331  0.48686  1.0000
  H   H1171     1.0  0.94660  0.49115  0.35147  1.0000
  H   H1172     1.0  0.95965  0.50767  0.32650  1.0000
  H   H1173     1.0  0.99165  0.37685  0.35323  1.0000
  H   H1174     1.0  0.98942  0.51169  0.28161  1.0000
  H   H1175     1.0  0.98953  0.49250  0.33942  1.0000
  C   C683      1.0  0.88962  0.49670  0.48728  1.0000
  Fe  Fe97      1.0  0.88609  0.46031  0.80538  1.0000
  S   S193      1.0  0.87188  0.44916  0.85066  1.0000
  S   S194      1.0  0.93756  0.45996  0.78262  1.0000
  Fe  Fe98      1.0  0.81701  0.47302  0.79674  1.0000
  S   S195      1.0  0.79650  0.46251  0.84184  1.0000
  S   S196      1.0  0.78760  0.48919  0.76490  1.0000
  Fe  Fe99      1.0  0.84343  0.47274  0.86037  1.0000
  S   S197      1.0  0.85480  0.48458  0.90554  1.0000
  Fe  Fe100     1.0  0.82642  0.43939  0.82930  1.0000
  S   S198      1.0  0.81650  0.41266  0.84655  1.0000
  S   S199      1.0  0.86172  0.48459  0.81629  1.0000
  S   S200      1.0  0.84274  0.44914  0.78290  1.0000
  Fe  Fe101     1.0  0.87596  0.55918  0.55717  1.0000
  S   S201      1.0  0.86647  0.56906  0.60372  1.0000
  S   S202      1.0  0.92483  0.56212  0.53073  1.0000
  Fe  Fe102     1.0  0.80917  0.54170  0.55665  1.0000
  S   S203      1.0  0.79341  0.55084  0.60354  1.0000
  S   S204      1.0  0.78643  0.51934  0.53401  1.0000
  Fe  Fe103     1.0  0.81583  0.57560  0.58765  1.0000
  S   S205      1.0  0.80011  0.60100  0.60642  1.0000
  Fe  Fe104     1.0  0.84500  0.54396  0.61635  1.0000
  S   S206      1.0  0.86364  0.52895  0.65624  1.0000
  S   S207      1.0  0.82692  0.56700  0.53966  1.0000
  S   S208      1.0  0.85935  0.53366  0.57072  1.0000
  S   S209      1.0  0.79281  0.34251  0.78511  1.0000
  C   C684      1.0  0.79680  0.62053  0.58775  1.0000
  C   C685      1.0  0.80228  0.63515  0.60397  1.0000
  C   C686      1.0  0.79686  0.65096  0.59106  1.0000
  C   C687      1.0  0.78471  0.65231  0.56210  1.0000
  C   C688      1.0  0.77965  0.63771  0.54575  1.0000
  C   C689      1.0  0.78613  0.62191  0.55829  1.0000
  H   H1176     1.0  0.81033  0.63419  0.62686  1.0000
  H   H1177     1.0  0.88680  0.39338  0.83701  1.0000
  H   H1178     1.0  0.77020  0.63860  0.52335  1.0000
  H   H1179     1.0  0.78140  0.61078  0.54570  1.0000
  C   C690      1.0  0.83490  0.49780  0.93296  1.0000
  C   C691      1.0  0.80179  0.50313  0.93139  1.0000
  H   H1180     1.0  0.85693  0.50540  0.52547  1.0000
  H   H1181     1.0  0.76756  0.38132  0.88809  1.0000
  C   C692      1.0  0.78793  0.51424  0.95313  1.0000
  C   C693      1.0  0.85353  0.50340  0.95686  1.0000
  H   H1182     1.0  0.78696  0.49874  0.91347  1.0000
  C   C694      1.0  0.74045  0.38011  0.88478  1.0000
  H   H1183     1.0  0.96392  0.53420  0.62045  1.0000
  H   H1184     1.0  0.87910  0.49935  0.95839  1.0000
  C   C695      1.0  0.80875  0.50024  0.73466  1.0000
  C   C696      1.0  0.84328  0.49891  0.72935  1.0000
  C   C697      1.0  0.85952  0.50790  0.70540  1.0000
  C   C698      1.0  0.84156  0.51835  0.68645  1.0000
  C   C699      1.0  0.80700  0.51978  0.69181  1.0000
  C   C700      1.0  0.79068  0.51069  0.71573  1.0000
  H   H1185     1.0  0.85754  0.49091  0.74364  1.0000
  H   H1186     1.0  0.88624  0.50670  0.70148  1.0000
  H   H1187     1.0  0.79292  0.52790  0.67760  1.0000
  H   H1188     1.0  0.76397  0.51187  0.71973  1.0000
  C   C701      1.0  0.81366  0.39348  0.82715  1.0000
  C   C702      1.0  0.82252  0.37867  0.84199  1.0000
  C   C703      1.0  0.81820  0.36303  0.82860  1.0000
  C   C704      1.0  0.80351  0.36196  0.80076  1.0000
  C   C705      1.0  0.79515  0.37678  0.78569  1.0000
  C   C706      1.0  0.80059  0.39246  0.79859  1.0000
  H   H1189     1.0  0.83256  0.37927  0.86412  1.0000
  H   H1190     1.0  0.82539  0.35177  0.84012  1.0000
  H   H1191     1.0  0.78385  0.37610  0.76409  1.0000
  H   H1192     1.0  0.79338  0.40371  0.78698  1.0000
  C   C707      1.0  0.83961  0.51435  0.97870  1.0000
  H   H1193     1.0  0.79679  0.48912  0.50048  1.0000
  C   C708      1.0  0.96825  0.46033  0.80929  1.0000
  C   C709      1.0  0.95915  0.46180  0.84000  1.0000
  N   N50       1.0  0.73734  0.34770  0.88172  1.0000
  H   H1194     1.0  0.96261  0.59615  0.62293  1.0000
  H   H1195     1.0  0.93356  0.46405  0.84725  1.0000
  H   H1196     1.0  0.97958  0.60289  0.56737  1.0000
  C   C710      1.0  0.95923  0.37503  0.83706  1.0000
  C   C711      1.0  0.95508  0.55216  0.55149  1.0000
  C   C712      1.0  0.94646  0.54587  0.58035  1.0000
  C   C713      1.0  0.97076  0.53878  0.59791  1.0000
  C   C714      1.0  0.96152  0.41274  0.84789  1.0000
  H   H1197     1.0  0.92121  0.54675  0.58966  1.0000
  H   H1198     1.0  0.85126  0.64264  0.55258  1.0000
  C   C715      1.0  0.81893  0.55572  0.88299  1.0000
  C   C716      1.0  0.87719  0.49630  0.52080  1.0000
  C   C717      1.0  0.75856  0.50682  0.61785  1.0000
  H   H1199     1.0  0.82516  0.49996  0.58016  1.0000
  H   H1200     1.0  0.76144  0.53533  0.84659  1.0000
  N   N51       1.0  0.93549  0.40480  0.82931  1.0000
  C   C718      1.0  0.92857  0.41684  0.80395  1.0000
  C   C719      1.0  0.98805  0.55095  0.53982  1.0000
  H   H1201     1.0  0.93812  0.36700  0.84544  1.0000
  C   C720      1.0  0.94716  0.38865  0.81541  1.0000
  H   H1202     1.0  0.96373  0.49823  0.73681  1.0000
  C   C721      1.0  0.80681  0.51996  0.97685  1.0000
  C   C722      1.0  0.76780  0.34791  0.90028  1.0000
  H   H1203     1.0  0.68140  0.36391  0.92243  1.0000
  C   C723      1.0  0.89961  0.41223  0.78397  1.0000
  H   H1204     1.0  0.95084  0.41855  0.78824  1.0000
  H   H1205     1.0  0.98443  0.48112  0.92624  1.0000
  C   C724      1.0  0.77617  0.33144  0.91627  1.0000
  H   H1206     1.0  0.92272  0.42938  0.81320  1.0000
  C   C725      1.0  0.95759  0.51048  0.50339  1.0000
  H   H1207     1.0  0.92670  0.38276  0.80331  1.0000
  H   H1208     1.0  0.96697  0.39073  0.79721  1.0000
  H   H1209     1.0  0.89725  0.42215  0.76654  1.0000
  H   H1210     1.0  0.72639  0.38055  0.90683  1.0000
  H   H1211     1.0  0.86137  0.52747  0.49494  1.0000
  H   H1212     1.0  0.94247  0.58421  0.59565  1.0000
  H   H1213     1.0  0.86846  0.65915  0.60883  1.0000
  H   H1214     1.0  0.72750  0.64390  0.61367  1.0000
  C   C726      1.0  0.73288  0.36445  0.86650  1.0000
  H   H1215     1.0  0.82297  0.50799  0.61739  1.0000
  H   H1216     1.0  0.76244  0.51841  0.95163  1.0000
  H   H1217     1.0  0.87924  0.61607  0.54276  1.0000
  H   H1218     1.0  0.93344  0.65384  0.57619  1.0000
  C   C727      1.0  0.85549  0.66265  0.50122  1.0000
  N   N52       1.0  0.81510  0.53166  0.84500  1.0000
  C   C728      1.0  0.81921  0.55008  0.84976  1.0000
  C   C729      1.0  0.82144  0.52804  0.81188  1.0000
  C   C730      1.0  0.83947  0.52186  0.86286  1.0000
  C   C731      1.0  0.78020  0.52669  0.85577  1.0000
  C   C732      1.0  0.79685  0.53607  0.79039  1.0000
  C   C733      1.0  0.87671  0.52593  0.85632  1.0000
  C   C734      1.0  0.76950  0.50883  0.84816  1.0000
  H   H1219     1.0  0.84267  0.55475  0.83811  1.0000
  H   H1220     1.0  0.82162  0.51442  0.80778  1.0000
  H   H1221     1.0  0.84663  0.53244  0.80376  1.0000
  H   H1222     1.0  0.83399  0.52324  0.88754  1.0000
  H   H1223     1.0  0.83692  0.50837  0.85884  1.0000
  H   H1224     1.0  0.77695  0.52768  0.88078  1.0000
  H   H1225     1.0  0.82035  0.56952  0.88349  1.0000
  H   H1226     1.0  0.80408  0.53232  0.76689  1.0000
  H   H1227     1.0  0.89154  0.51846  0.87210  1.0000
  H   H1228     1.0  0.88260  0.53917  0.86011  1.0000
  H   H1229     1.0  0.88541  0.52230  0.83317  1.0000
  H   H1230     1.0  0.74411  0.50646  0.85849  1.0000
  H   H1231     1.0  0.78609  0.49926  0.85742  1.0000
  H   H1232     1.0  0.96574  0.40561  0.86886  1.0000
  H   H1233     1.0  0.77086  0.53177  0.79507  1.0000
  C   C735      1.0  0.96702  0.58667  0.60525  1.0000
  H   H1234     1.0  0.79570  0.55207  0.89599  1.0000
  H   H1235     1.0  0.79886  0.55715  0.83929  1.0000
  C   C736      1.0  0.99163  0.59245  0.57948  1.0000
  H   H1236     1.0  0.76803  0.50695  0.82353  1.0000
  H   H1237     1.0  0.91882  0.62580  0.53530  1.0000
  C   C737      1.0  0.71769  0.33467  0.83242  1.0000
  H   H1238     1.0  0.74806  0.48084  0.61325  1.0000
  H   H1239     1.0  0.97231  0.37989  0.85641  1.0000
  H   H1240     1.0  0.88314  0.63872  0.57761  1.0000
  H   H1241     1.0  0.88004  0.39378  0.89068  1.0000
  C   C738      1.0  0.76830  0.48951  0.60559  1.0000
  C   C739      1.0  0.69670  0.35295  0.92837  1.0000
  H   H1242     1.0  0.74947  0.36551  0.84561  1.0000
  H   H1243     1.0  0.79016  0.35152  0.88578  1.0000
  H   H1244     1.0  0.79713  0.33353  0.93119  1.0000
  H   H1245     1.0  0.88890  0.41418  0.84944  1.0000
  H   H1246     1.0  0.79789  0.54983  0.79071  1.0000
  H   H1247     1.0  0.76565  0.50859  0.64142  1.0000
  H   H1248     1.0  0.91364  0.52480  0.51806  1.0000
  H   H1249     1.0  0.90423  0.40046  0.77168  1.0000
  H   H1250     1.0  0.70796  0.65549  0.58520  1.0000
  C   C740      1.0  0.70624  0.34266  0.90009  1.0000
  C   C741      1.0  0.70959  0.65419  0.61004  1.0000
  N   N53       1.0  0.80210  0.48322  0.61386  1.0000
  C   C742      1.0  0.82748  0.49638  0.60435  1.0000
  H   H1251     1.0  0.76017  0.46313  0.65513  1.0000
  C   C743      1.0  0.81047  0.46790  0.59562  1.0000
  C   C744      1.0  0.80427  0.47973  0.64733  1.0000
  C   C745      1.0  0.86436  0.49183  0.60860  1.0000
  H   H1252     1.0  0.71742  0.34649  0.81930  1.0000
  C   C746      1.0  0.78704  0.45287  0.60075  1.0000
  C   C747      1.0  0.77211  0.47400  0.66511  1.0000
  H   H1253     1.0  0.87526  0.41160  0.79697  1.0000
  H   H1254     1.0  0.77044  0.51668  0.60327  1.0000
  C   C748      1.0  0.90326  0.40235  0.84803  1.0000
  H   H1255     1.0  0.97794  0.36709  0.82471  1.0000
  H   H1256     1.0  0.81136  0.47100  0.57097  1.0000
  H   H1257     1.0  0.83566  0.46312  0.60043  1.0000
  H   H1258     1.0  0.82384  0.47025  0.65137  1.0000
  H   H1259     1.0  0.81265  0.49094  0.65924  1.0000
  H   H1260     1.0  0.86843  0.48707  0.63170  1.0000
  H   H1261     1.0  0.87391  0.48283  0.59147  1.0000
  H   H1262     1.0  0.87991  0.50320  0.60539  1.0000
  H   H1263     1.0  0.73340  0.39131  0.87161  1.0000
  C   C749      1.0  0.79043  0.51557  0.49453  1.0000
  C   C750      1.0  0.89159  0.62771  0.53418  1.0000
  H   H1264     1.0  0.79444  0.44315  0.58408  1.0000
  H   H1265     1.0  0.76060  0.45586  0.59715  1.0000
  H   H1266     1.0  0.78978  0.44717  0.62338  1.0000
  H   H1267     1.0  0.75366  0.48422  0.66759  1.0000
  H   H1268     1.0  0.77847  0.47038  0.68843  1.0000
  C   C751      1.0  0.87875  0.64233  0.55384  1.0000
  H   H1269     1.0  0.71822  0.35702  0.94093  1.0000
  H   H1270     1.0  0.84079  0.55099  0.89478  1.0000
  H   H1271     1.0  0.73117  0.50858  0.61707  1.0000
  H   H1272     1.0  0.92056  0.38514  0.88354  1.0000
  C   C752      1.0  0.90561  0.39655  0.88113  1.0000
  H   H1273     1.0  0.68417  0.34337  0.88598  1.0000
  H   H1274     1.0  0.86669  0.48380  0.52639  1.0000
  H   H1275     1.0  0.76689  0.49029  0.58051  1.0000
  C   C753      1.0  0.74330  0.33489  0.85733  1.0000
  H   H1276     1.0  0.91546  0.40661  0.89516  1.0000
  H   H1277     1.0  0.96532  0.51343  0.52647  1.0000
  H   H1278     1.0  0.76615  0.35750  0.91803  1.0000
  H   H1279     1.0  0.70704  0.36582  0.85880  1.0000
  H   H1280     1.0  0.68181  0.34501  0.94474  1.0000
  H   H1281     1.0  0.95309  0.49692  0.50346  1.0000
  H   H1282     1.0  0.97584  0.46099  0.88534  1.0000
  H   H1283     1.0  0.68528  0.65021  0.62068  1.0000
  H   H1284     1.0  0.95279  0.42520  0.85588  1.0000
  H   H1285     1.0  0.84356  0.65029  0.50444  1.0000
  H   H1286     1.0  0.88510  0.62919  0.51029  1.0000
  H   H1287     1.0  0.89771  0.49844  0.53613  1.0000
  H   H1288     1.0  0.94418  0.65020  0.53762  1.0000
  H   H1289     1.0  0.99068  0.49060  0.96155  1.0000
  H   H1290     1.0  0.76833  0.33666  0.84577  1.0000
  C   C754      1.0  0.98324  0.46034  0.86157  1.0000
  H   H1291     1.0  0.97492  0.57468  0.61522  1.0000
  C   C755      1.0  0.93008  0.65883  0.55300  1.0000
  H   H1292     1.0  0.80119  0.66204  0.60388  1.0000
  H   H1293     1.0  0.97483  0.51814  0.72099  1.0000
  C   C756      1.0  0.92656  0.52093  0.49640  1.0000
  C   C757      1.0  0.98523  0.50647  0.73030  1.0000
  H   H1294     1.0  0.90734  0.65518  0.49869  1.0000
  N   N54       1.0  0.89369  0.65916  0.54613  1.0000
  H   H1295     1.0  0.69223  0.33150  0.84148  1.0000
  H   H1296     1.0  0.99281  0.58193  0.56352  1.0000
  Fe  Fe105     1.0  0.64558  0.94176  0.31408  1.0000
  S   S210      1.0  0.59630  0.94688  0.29434  1.0000
  S   S211      1.0  0.66832  0.91659  0.30004  1.0000
  Fe  Fe106     1.0  0.64812  0.97710  0.34070  1.0000
  H   H1297     1.0  0.57120  0.96267  0.42992  1.0000
  H   H1298     1.0  0.64681  0.98602  0.13126  1.0000
  Fe  Fe107     1.0  0.58269  0.95898  0.33844  1.0000
  S   S212      1.0  0.53339  0.95754  0.36480  1.0000
  Fe  Fe108     1.0  0.61697  0.97178  0.27897  1.0000
  C   C758      1.0  0.73717  0.68882  0.13507  1.0000
  S   S213      1.0  0.63040  0.95237  0.35991  1.0000
  S   S214      1.0  0.66769  0.96618  0.29609  1.0000
  Fe  Fe109     1.0  0.80639  0.69747  0.06353  1.0000
  S   S215      1.0  0.82273  0.70739  0.10747  1.0000
  H   H1299     1.0  0.74240  0.70917  0.36253  1.0000
  Fe  Fe110     1.0  0.80348  0.73285  0.03444  1.0000
  S   S216      1.0  0.82141  0.74500  0.07688  1.0000
  H   H1300     1.0  0.59979  0.85917  0.25403  1.0000
  Fe  Fe111     1.0  0.85846  0.72363  0.07891  1.0000
  S   S217      1.0  0.91138  0.72258  0.09712  1.0000
  Fe  Fe112     1.0  0.78498  0.72796  0.10275  1.0000
  S   S218      1.0  0.74396  0.73332  0.14010  1.0000
  S   S219      1.0  0.84334  0.71274  0.03506  1.0000
  S   S220      1.0  0.76579  0.71683  0.06019  1.0000
  Fe  Fe113     1.0  0.65902  0.81636  0.33491  1.0000
  S   S221      1.0  0.62211  0.79945  0.36028  1.0000
  S   S222      1.0  0.65932  0.84254  0.35509  1.0000
  Fe  Fe114     1.0  0.68226  0.78794  0.29158  1.0000
  S   S223      1.0  0.64616  0.76970  0.31418  1.0000
  S   S224      1.0  0.72335  0.78141  0.25514  1.0000
  Fe  Fe115     1.0  0.60830  0.79066  0.31464  1.0000
  S   S225      1.0  0.55575  0.79095  0.29585  1.0000
  Fe  Fe116     1.0  0.66306  0.78010  0.35828  1.0000
  S   S226      1.0  0.67299  0.76202  0.39772  1.0000
  S   S227      1.0  0.64370  0.80839  0.28917  1.0000
  S   S228      1.0  0.70066  0.79748  0.33580  1.0000
  C   C759      1.0  0.75888  0.75267  0.46214  1.0000
  C   C760      1.0  0.76077  0.76599  0.44113  1.0000
  C   C761      1.0  0.73449  0.76936  0.42188  1.0000
  C   C762      1.0  0.70603  0.75927  0.42296  1.0000
  C   C763      1.0  0.70402  0.74605  0.44416  1.0000
  C   C764      1.0  0.73011  0.74280  0.46367  1.0000
  H   H1301     1.0  0.78281  0.77376  0.43968  1.0000
  H   H1302     1.0  0.73646  0.77966  0.40594  1.0000
  H   H1303     1.0  0.68220  0.73813  0.44528  1.0000
  H   H1304     1.0  0.55121  0.84117  0.25439  1.0000
  C   C765      1.0  0.73879  0.74705  0.17170  1.0000
  C   C766      1.0  0.76456  0.75713  0.18125  1.0000
  C   C767      1.0  0.75926  0.76752  0.20666  1.0000
  C   C768      1.0  0.72815  0.76811  0.22294  1.0000
  C   C769      1.0  0.70235  0.75804  0.21338  1.0000
  C   C770      1.0  0.70770  0.74758  0.18808  1.0000
  H   H1305     1.0  0.78862  0.75695  0.16906  1.0000
  H   H1306     1.0  0.77946  0.77525  0.21365  1.0000
  H   H1307     1.0  0.67823  0.75834  0.22543  1.0000
  H   H1308     1.0  0.68743  0.73996  0.18099  1.0000
  H   H1309     1.0  0.64901  0.95741  0.13270  1.0000
  H   H1310     1.0  0.60256  0.84621  0.32282  1.0000
  C   C771      1.0  0.57811  0.84017  0.32673  1.0000
  H   H1311     1.0  0.52786  0.78007  0.35579  1.0000
  C   C772      1.0  0.96185  0.73240  0.05459  1.0000
  C   C773      1.0  0.95349  0.72462  0.08235  1.0000
  H   H1312     1.0  0.60766  0.96613  0.45111  1.0000
  C   C774      1.0  0.58282  0.97122  0.44590  1.0000
  H   H1313     1.0  0.94224  0.73704  0.04090  1.0000
  H   H1314     1.0  0.97342  0.71274  0.12137  1.0000
  H   H1315     1.0  0.72421  0.73687  0.37571  1.0000
  H   H1316     1.0  0.52707  0.82229  0.31453  1.0000
  H   H1317     1.0  0.69593  0.73836  0.34689  1.0000
  N   N55       1.0  0.66406  0.99148  0.08470  1.0000
  C   C775      1.0  0.59948  0.99100  0.08683  1.0000
  H   H1318     1.0  0.57601  0.87967  0.33004  1.0000
  H   H1319     1.0  0.57432  0.88659  0.29219  1.0000
  H   H1320     1.0  0.72203  0.75081  0.00371  1.0000
  H   H1321     1.0  0.71310  0.73539  0.26106  1.0000
  C   C776      1.0  0.66321  0.89602  0.31515  1.0000
  C   C777      1.0  0.64985  0.89286  0.34446  1.0000
  C   C778      1.0  0.64865  0.87643  0.35614  1.0000
  C   C779      1.0  0.66010  0.86289  0.33855  1.0000
  C   C780      1.0  0.67239  0.86597  0.30889  1.0000
  C   C781      1.0  0.67420  0.88244  0.29742  1.0000
  H   H1322     1.0  0.64153  0.90314  0.35847  1.0000
  H   H1323     1.0  0.63922  0.87423  0.37914  1.0000
  H   H1324     1.0  0.68156  0.85576  0.29513  1.0000
  H   H1325     1.0  0.68477  0.88472  0.27480  1.0000
  H   H1326     1.0  0.68216  0.68253  0.05583  1.0000
  H   H1327     1.0  0.58718  0.84275  0.37442  1.0000
  H   H1328     1.0  0.52828  0.94579  0.30376  1.0000
  C   C782      1.0  0.56857  0.83857  0.27258  1.0000
  N   N56       1.0  0.74749  0.74237  0.33111  1.0000
  C   C783      1.0  0.73397  0.74601  0.30059  1.0000
  C   C784      1.0  0.75407  0.75891  0.34554  1.0000
  C   C785      1.0  0.72136  0.73370  0.35156  1.0000
  C   C786      1.0  0.77934  0.73257  0.32717  1.0000
  C   C787      1.0  0.77828  0.77083  0.32785  1.0000
  C   C788      1.0  0.72070  0.71449  0.35127  1.0000
  C   C789      1.0  0.79818  0.72993  0.35641  1.0000
  H   H1329     1.0  0.71404  0.75564  0.30250  1.0000
  H   H1330     1.0  0.75375  0.75132  0.28475  1.0000
  H   H1331     1.0  0.76389  0.75720  0.36835  1.0000
  H   H1332     1.0  0.73016  0.76575  0.34970  1.0000
  H   H1333     1.0  0.77484  0.72021  0.31724  1.0000
  H   H1334     1.0  0.79672  0.73890  0.31035  1.0000
  H   H1335     1.0  0.80335  0.76532  0.32356  1.0000
  H   H1336     1.0  0.76816  0.77518  0.30633  1.0000
  H   H1337     1.0  0.78158  0.78213  0.34158  1.0000
  H   H1338     1.0  0.71987  0.70920  0.32844  1.0000
  H   H1339     1.0  0.69801  0.71012  0.36446  1.0000
  H   H1340     1.0  0.81006  0.71745  0.35603  1.0000
  H   H1341     1.0  0.78191  0.73056  0.37738  1.0000
  H   H1342     1.0  0.81887  0.73906  0.35740  1.0000
  C   C790      1.0  0.50423  0.95022  0.31191  1.0000
  C   C791      1.0  0.68669  0.67017  0.13561  1.0000
  H   H1343     1.0  0.89873  0.67072  0.99619  1.0000
  C   C792      1.0  0.65975  0.96234  0.11076  1.0000
  C   C793      1.0  0.68278  0.67171  0.17044  1.0000
  H   H1344     1.0  0.57761  0.98992  0.17453  1.0000
  C   C794      1.0  0.69453  0.98819  0.06408  1.0000
  H   H1345     1.0  0.59791  0.98297  0.10735  1.0000
  H   H1346     1.0  0.68864  0.98199  0.47092  1.0000
  H   H1347     1.0  0.57151  0.82477  0.27348  1.0000
  H   H1348     1.0  0.72818  0.73246  0.47949  1.0000
  H   H1349     1.0  0.53727  0.86670  0.27909  1.0000
  H   H1350     1.0  0.73043  0.69476  0.15693  1.0000
  N   N57       1.0  0.55458  0.84483  0.30262  1.0000
  H   H1351     1.0  0.67630  0.97630  0.02367  1.0000
  H   H1352     1.0  0.71699  0.98628  0.07744  1.0000
  H   H1353     1.0  0.53421  0.97706  0.21439  1.0000
  H   H1354     1.0  0.68604  0.68433  0.17934  1.0000
  C   C795      1.0  0.58760  0.98867  0.43166  1.0000
  S   S229      1.0  0.59903  0.98416  0.32197  1.0000
  C   C796      1.0  0.52941  0.99491  0.41852  1.0000
  H   H1355     1.0  0.85701  0.66529  0.47653  1.0000
  H   H1356     1.0  0.71817  0.97124  0.03161  1.0000
  H   H1357     1.0  0.63151  0.97621  0.05834  1.0000
  H   H1358     1.0  0.65772  0.71905  0.13139  1.0000
  C   C797      1.0  0.51424  0.78851  0.31190  1.0000
  H   H1359     1.0  0.51746  0.97127  0.44320  1.0000
  C   C798      1.0  0.66967  0.70746  0.13948  1.0000
  C   C799      1.0  0.89184  0.68073  0.08392  1.0000
  C   C800      1.0  0.63262  0.98879  0.06810  1.0000
  C   C801      1.0  0.76278  0.67506  0.14129  1.0000
  H   H1360     1.0  0.60197  0.87025  0.30053  1.0000
  N   N58       1.0  0.70706  0.68339  0.11869  1.0000
  H   H1361     1.0  0.61083  0.99399  0.43998  1.0000
  H   H1362     1.0  0.55656  0.85703  0.36183  1.0000
  H   H1363     1.0  0.50995  0.84039  0.33150  1.0000
  C   C802      1.0  0.66485  0.98125  0.11339  1.0000
  H   H1364     1.0  0.86532  0.67859  0.07930  1.0000
  H   H1365     1.0  0.68775  0.71141  0.15597  1.0000
  C   C803      1.0  0.69331  0.67144  0.06650  1.0000
  C   C804      1.0  0.97600  0.67858  0.05651  1.0000
  C   C805      1.0  0.97951  0.71880  0.09988  1.0000
  H   H1366     1.0  0.68489  0.96170  0.05381  1.0000
  C   C806      1.0  0.56594  0.84414  0.35946  1.0000
  H   H1367     1.0  0.64961  0.69979  0.15073  1.0000
  C   C807      1.0  0.57691  0.87522  0.30637  1.0000
  S   S230      1.0  0.79438  0.74634  0.98882  1.0000
  H   H1368     1.0  0.93348  0.68205  0.03027  1.0000
  H   H1369     1.0  0.61058  0.83919  0.23978  1.0000
  H   H1370     1.0  0.56837  0.97113  0.46777  1.0000
  H   H1371     1.0  0.64159  0.95883  0.09408  1.0000
  H   H1372     1.0  0.78064  0.67971  0.15756  1.0000
  H   H1373     1.0  0.73726  0.72085  0.28115  1.0000
  H   H1374     1.0  0.52781  0.86655  0.31879  1.0000
  H   H1375     1.0  0.54037  0.98102  0.28040  1.0000
  H   H1376     1.0  0.62235  0.84426  0.27656  1.0000
  H   H1377     1.0  0.68379  0.97667  0.41614  1.0000
  H   H1378     1.0  0.95993  0.66603  0.01689  1.0000
  H   H1379     1.0  0.69549  0.72696  0.29549  1.0000
  H   H1380     1.0  0.75085  0.69875  0.12184  1.0000
  H   H1381     1.0  0.90237  0.69018  0.06789  1.0000
  C   C808      1.0  0.50745  0.78303  0.34166  1.0000
  C   C809      1.0  0.69292  0.97340  0.04233  1.0000
  C   C810      1.0  0.60223  0.84589  0.26062  1.0000
  H   H1382     1.0  0.58375  0.82659  0.32599  1.0000
  S   S231      1.0  0.79672  0.67011  0.05150  1.0000
  H   H1383     1.0  0.59403  0.98642  0.40732  1.0000
  S   S232      1.0  0.79324  0.74889  0.48551  1.0000
  C   C811      1.0  0.54749  0.86328  0.30121  1.0000
  H   H1384     1.0  0.54655  0.83518  0.36798  1.0000
  S   S233      1.0  0.60053  0.97929  0.23182  1.0000
  H   H1385     1.0  0.96599  0.68446  0.07761  1.0000
  C   C812      1.0  0.67805  0.98886  0.42513  1.0000
  C   C813      1.0  0.71926  0.73123  0.28408  1.0000
  H   H1386     1.0  0.77771  0.67198  0.12035  1.0000
  C   C814      1.0  0.94806  0.67125  0.03802  1.0000
  H   H1387     1.0  0.66518  0.69524  0.09792  1.0000
  C   C815      1.0  0.68619  0.69849  0.11208  1.0000
  H   H1388     1.0  0.70578  0.66429  0.04777  1.0000
  H   H1389     1.0  0.70146  0.70789  0.09881  1.0000
  H   H1390     1.0  0.89287  0.68657  0.10645  1.0000
  H   H1391     1.0  0.68387  0.95596  0.10550  1.0000
  H   H1392     1.0  0.73688  0.68537  0.07657  1.0000
  C   C816      1.0  0.71981  0.67638  0.08876  1.0000
  C   C817      1.0  0.52225  0.83571  0.31018  1.0000
  H   H1393     1.0  0.87250  0.67669  0.02865  1.0000
  H   H1394     1.0  0.68930  0.98267  0.12380  1.0000
  H   H1395     1.0  0.53788  0.98905  0.39677  1.0000
  H   H1396     1.0  0.50225  0.90922  0.29421  1.0000
  H   H1397     1.0  0.53862  0.99247  0.47962  1.0000
  H   H1398     1.0  0.50250  0.82885  0.26655  1.0000
  C   C818      1.0  0.50862  0.97603  0.22519  1.0000
  H   H1399     1.0  0.57855  0.98743  0.07279  1.0000
  H   H1400     1.0  0.51125  0.96837  0.24594  1.0000
  H   H1401     1.0  0.75109  0.66360  0.15099  1.0000
  H   H1402     1.0  0.66121  0.66954  0.12688  1.0000
  H   H1403     1.0  0.65724  0.66767  0.17814  1.0000
  H   H1404     1.0  0.49951  0.95275  0.20272  1.0000
  C   C819      1.0  0.88193  0.66610  0.01514  1.0000
  H   H1405     1.0  0.73493  0.66496  0.09216  1.0000
  C   C820      1.0  0.68081  0.99192  0.45620  1.0000
  C   C821      1.0  0.50509  0.98260  0.43507  1.0000
  H   H1406     1.0  0.49969  0.98763  0.29501  1.0000
  C   C822      1.0  0.91149  0.66428  0.08402  1.0000
  C   C823      1.0  0.49982  0.95643  0.34120  1.0000
  C   C824      1.0  0.52347  0.99186  0.28367  1.0000
  H   H1407     1.0  0.93076  0.66527  0.10111  1.0000
  H   H1408     1.0  0.98899  0.68858  0.04297  1.0000
  C   C825      1.0  0.49562  0.83672  0.28634  1.0000
  H   H1409     1.0  0.99130  0.76493  0.13119  1.0000
  H   H1410     1.0  0.67356  0.66336  0.07712  1.0000
  N   N59       1.0  0.49481  0.99306  0.23281  1.0000
  H   H1411     1.0  0.49455  0.89427  0.32383  1.0000
  Fe  Fe117     1.0  0.62588  0.93898  0.82523  1.0000
  S   S234      1.0  0.61294  0.94394  0.77706  1.0000
  S   S235      1.0  0.63022  0.91329  0.84831  1.0000
  Fe  Fe118     1.0  0.61051  0.97540  0.84469  1.0000
  H   H1412     1.0  0.56627  0.89619  0.80424  1.0000
  C   C826      1.0  0.72705  0.75439  0.98032  1.0000
  Fe  Fe119     1.0  0.56948  0.95806  0.79720  1.0000
  S   S236      1.0  0.52004  0.95753  0.77578  1.0000
  Fe  Fe120     1.0  0.64013  0.96833  0.78072  1.0000
  S   S237      1.0  0.67096  0.97920  0.74043  1.0000
  S   S238      1.0  0.58006  0.95200  0.84516  1.0000
  S   S239      1.0  0.65757  0.96240  0.82768  1.0000
  Fe  Fe121     1.0  0.79046  0.69783  0.55815  1.0000
  S   S240      1.0  0.80608  0.70681  0.60295  1.0000
  H   H1413     1.0  0.76070  0.68995  0.65918  1.0000
  Fe  Fe122     1.0  0.79845  0.73240  0.52793  1.0000
  S   S241      1.0  0.81679  0.74369  0.57071  1.0000
  C   C827      1.0  0.75032  0.84926  0.89630  1.0000
  Fe  Fe123     1.0  0.84745  0.72017  0.57544  1.0000
  S   S242      1.0  0.89880  0.71503  0.59448  1.0000
  Fe  Fe124     1.0  0.77469  0.72961  0.59512  1.0000
  S   S243      1.0  0.73248  0.74199  0.62400  1.0000
  S   S244      1.0  0.83261  0.71008  0.53085  1.0000
  S   S245      1.0  0.75551  0.71937  0.55206  1.0000
  Fe  Fe125     1.0  0.66786  0.81425  0.82206  1.0000
  S   S246      1.0  0.62945  0.80536  0.85715  1.0000
  S   S247      1.0  0.68729  0.84095  0.81437  1.0000
  Fe  Fe126     1.0  0.67668  0.77898  0.79437  1.0000
  S   S248      1.0  0.63784  0.76797  0.82781  1.0000
  S   S249      1.0  0.71244  0.76379  0.76289  1.0000
  Fe  Fe127     1.0  0.60711  0.79114  0.81941  1.0000
  S   S250      1.0  0.55333  0.79590  0.80483  1.0000
  Fe  Fe128     1.0  0.66323  0.78292  0.86325  1.0000
  S   S251      1.0  0.67238  0.77342  0.91187  1.0000
  S   S252      1.0  0.64478  0.80105  0.78383  1.0000
  S   S253      1.0  0.70290  0.79289  0.83027  1.0000
  C   C828      1.0  0.75966  0.75316  0.96760  1.0000
  C   C829      1.0  0.76533  0.75804  0.93705  1.0000
  C   C830      1.0  0.73909  0.76393  0.91951  1.0000
  C   C831      1.0  0.70656  0.76527  0.93232  1.0000
  C   C832      1.0  0.70089  0.76047  0.96290  1.0000
  H   H1414     1.0  0.94977  0.68055  0.52650  1.0000
  H   H1415     1.0  0.79030  0.75716  0.92677  1.0000
  H   H1416     1.0  0.74412  0.76742  0.89609  1.0000
  C   C833      1.0  0.50355  0.85572  0.79207  1.0000
  H   H1417     1.0  0.76514  0.79527  0.87103  1.0000
  C   C834      1.0  0.72780  0.74818  0.66263  1.0000
  C   C835      1.0  0.75236  0.74524  0.68330  1.0000
  C   C836      1.0  0.74713  0.75013  0.71373  1.0000
  C   C837      1.0  0.71753  0.75821  0.72395  1.0000
  C   C838      1.0  0.69305  0.76124  0.70319  1.0000
  C   C839      1.0  0.69810  0.75616  0.67283  1.0000
  H   H1418     1.0  0.77537  0.73915  0.67597  1.0000
  H   H1419     1.0  0.76626  0.74770  0.72953  1.0000
  H   H1420     1.0  0.67010  0.76735  0.71063  1.0000
  H   H1421     1.0  0.67878  0.75844  0.65719  1.0000
  H   H1422     1.0  0.53052  0.88342  0.81251  1.0000
  H   H1423     1.0  0.66651  0.81060  0.95421  1.0000
  H   H1424     1.0  0.74873  0.84368  0.87365  1.0000
  H   H1425     1.0  0.52467  0.77442  0.85410  1.0000
  C   C840      1.0  0.94996  0.72984  0.55822  1.0000
  C   C841      1.0  0.94117  0.71919  0.58249  1.0000
  C   C842      1.0  0.96684  0.71156  0.59822  1.0000
  H   H1426     1.0  0.50632  0.96361  0.93712  1.0000
  H   H1427     1.0  0.93064  0.73583  0.54588  1.0000
  H   H1428     1.0  0.96040  0.70328  0.61704  1.0000
  H   H1429     1.0  0.66450  0.80865  0.91366  1.0000
  H   H1430     1.0  0.73237  0.75153  0.52844  1.0000
  H   H1431     1.0  0.54037  0.83280  0.87289  1.0000
  H   H1432     1.0  0.99209  0.74806  0.65277  1.0000
  C   C843      1.0  0.50696  0.99351  0.83414  1.0000
  H   H1433     1.0  0.76728  0.81564  0.85521  1.0000
  H   H1434     1.0  0.58022  0.85349  0.85035  1.0000
  H   H1435     1.0  0.78998  0.81170  0.95169  1.0000
  C   C844      1.0  0.72354  0.80385  0.54082  1.0000
  C   C845      1.0  0.64547  0.89324  0.83758  1.0000
  C   C846      1.0  0.63777  0.87951  0.85675  1.0000
  C   C847      1.0  0.64966  0.86340  0.84967  1.0000
  C   C848      1.0  0.66989  0.86082  0.82346  1.0000
  C   C849      1.0  0.67768  0.87454  0.80434  1.0000
  C   C850      1.0  0.66526  0.89061  0.81113  1.0000
  H   H1436     1.0  0.62269  0.88140  0.87737  1.0000
  H   H1437     1.0  0.64382  0.85305  0.86484  1.0000
  H   H1438     1.0  0.69356  0.87275  0.78415  1.0000
  H   H1439     1.0  0.67163  0.90101  0.79623  1.0000
  C   C851      1.0  0.76987  0.80243  0.94958  1.0000
  C   C852      1.0  0.69374  0.68925  0.59173  1.0000
  H   H1440     1.0  0.52073  0.93710  0.82973  1.0000
  C   C853      1.0  0.66640  0.68138  0.64028  1.0000
  C   C854      1.0  0.94860  0.67564  0.55001  1.0000
  H   H1441     1.0  0.74694  0.77018  0.58303  1.0000
  H   H1442     1.0  0.93750  0.68514  0.56534  1.0000
  H   H1443     1.0  0.72354  0.68977  0.68419  1.0000
  H   H1444     1.0  0.61480  0.84206  0.81227  1.0000
  H   H1445     1.0  0.67597  0.76142  0.97325  1.0000
  H   H1446     1.0  0.67955  0.67922  0.58100  1.0000
  H   H1447     1.0  0.69907  0.80670  0.55254  1.0000
  H   H1448     1.0  0.64196  0.82464  0.93330  1.0000
  H   H1449     1.0  0.67254  0.70736  0.56140  1.0000
  H   H1450     1.0  0.50885  0.96163  0.87920  1.0000
  H   H1451     1.0  0.59475  0.84131  0.74579  1.0000
  C   C855      1.0  0.54679  0.83262  0.84821  1.0000
  H   H1452     1.0  0.78959  0.80604  0.52216  1.0000
  C   C856      1.0  0.67434  0.70552  0.58615  1.0000
  H   H1453     1.0  0.53827  0.85876  0.84601  1.0000
  H   H1454     1.0  0.74674  0.67349  0.61162  1.0000
  H   H1455     1.0  0.78026  0.83162  0.91924  1.0000
  C   C857      1.0  0.51557  0.97340  0.89039  1.0000
  H   H1456     1.0  0.56703  0.82337  0.84478  1.0000
  N   N60       1.0  0.72930  0.82199  0.92202  1.0000
  C   C858      1.0  0.76417  0.80867  0.87698  1.0000
  H   H1457     1.0  0.68815  0.74987  0.52852  1.0000
  H   H1458     1.0  0.60321  0.87178  0.80175  1.0000
  C   C859      1.0  0.50445  0.77987  0.84215  1.0000
  C   C860      1.0  0.52689  0.96871  0.92215  1.0000
  C   C861      1.0  0.72971  0.81261  0.89271  1.0000
  H   H1459     1.0  0.71789  0.69020  0.57822  1.0000
  H   H1460     1.0  0.72822  0.85730  0.90102  1.0000
  H   H1461     1.0  0.76242  0.78015  0.50459  1.0000
  H   H1462     1.0  0.77545  0.79411  0.93027  1.0000
  C   C862      1.0  0.73506  0.81037  0.94826  1.0000
  H   H1463     1.0  0.97477  0.67390  0.55644  1.0000
  H   H1464     1.0  0.84782  0.67147  0.56100  1.0000
  C   C863      1.0  0.75420  0.83605  0.92148  1.0000
  N   N61       1.0  0.73257  0.78587  0.54561  1.0000
  C   C864      1.0  0.73618  0.78273  0.57892  1.0000
  C   C865      1.0  0.79422  0.79384  0.53309  1.0000
  C   C866      1.0  0.70547  0.77526  0.53350  1.0000
  H   H1465     1.0  0.63285  0.83457  0.76084  1.0000
  C   C867      1.0  0.70404  0.78416  0.59940  1.0000
  H   H1466     1.0  0.54371  0.84945  0.76105  1.0000
  C   C868      1.0  0.70887  0.75640  0.53909  1.0000
  H   H1467     1.0  0.65128  0.67266  0.62724  1.0000
  H   H1468     1.0  0.52426  0.82839  0.83703  1.0000
  H   H1469     1.0  0.83904  0.67231  0.51159  1.0000
  H   H1470     1.0  0.88240  0.68491  0.55702  1.0000
  C   C869      1.0  0.98391  0.73303  0.55020  1.0000
  H   H1471     1.0  0.68042  0.77917  0.54279  1.0000
  H   H1472     1.0  0.70456  0.77696  0.50855  1.0000
  H   H1473     1.0  0.54625  0.95886  0.91977  1.0000
  H   H1474     1.0  0.86335  0.68113  0.60991  1.0000
  H   H1475     1.0  0.95967  0.76778  0.62786  1.0000
  H   H1476     1.0  0.55636  0.96431  0.71638  1.0000
  C   C870      1.0  0.76528  0.78159  0.52924  1.0000
  H   H1477     1.0  0.81719  0.78866  0.52167  1.0000
  H   H1478     1.0  0.65556  0.98358  0.91355  1.0000
  C   C871      1.0  0.66655  0.67495  0.67319  1.0000
  S   S254      1.0  0.77390  0.67175  0.54595  1.0000
  H   H1479     1.0  0.73365  0.70595  0.62104  1.0000
  H   H1480     1.0  0.69331  0.79685  0.59913  1.0000
  S   S255      1.0  0.59555  0.98253  0.79796  1.0000
  H   H1481     1.0  0.52636  0.97974  0.63082  1.0000
  C   C872      1.0  0.51166  0.79068  0.81771  1.0000
  H   H1482     1.0  0.53327  0.83337  0.78648  1.0000
  H   H1483     1.0  0.50193  0.86748  0.77880  1.0000
  H   H1484     1.0  0.56946  0.98475  0.72751  1.0000
  H   H1485     1.0  0.56429  0.88419  0.83814  1.0000
  H   H1486     1.0  0.68495  0.77490  0.59384  1.0000
  C   C873      1.0  0.89094  0.66337  0.51311  1.0000
  C   C874      1.0  0.57233  0.97515  0.70986  1.0000
  H   H1487     1.0  0.66667  0.68547  0.68923  1.0000
  H   H1488     1.0  0.71038  0.78150  0.62310  1.0000
  C   C875      1.0  0.87497  0.67213  0.56457  1.0000
  H   H1489     1.0  0.71629  0.80058  0.89602  1.0000
  C   C876      1.0  0.71620  0.69982  0.63804  1.0000
  C   C877      1.0  0.72285  0.67020  0.62412  1.0000
  H   H1490     1.0  0.72999  0.81689  0.97010  1.0000
  H   H1491     1.0  0.75274  0.84264  0.94352  1.0000
  H   H1492     1.0  0.62358  0.85607  0.76110  1.0000
  H   H1493     1.0  0.71745  0.79967  0.94844  1.0000
  H   H1494     1.0  0.56786  0.97105  0.66249  1.0000
  H   H1495     1.0  0.53831  0.97808  0.87774  1.0000
  H   H1496     1.0  0.57507  0.87271  0.77226  1.0000
  H   H1497     1.0  0.70735  0.75306  0.56345  1.0000
  H   H1498     1.0  0.72704  0.82277  0.50498  1.0000
  H   H1499     1.0  0.71541  0.81959  0.87574  1.0000
  H   H1500     1.0  0.53884  0.97936  0.93307  1.0000
  H   H1501     1.0  0.49800  0.85817  0.81625  1.0000
  N   N62       1.0  0.56596  0.85223  0.80408  1.0000
  C   C878      1.0  0.59504  0.84091  0.79580  1.0000
  C   C879      1.0  0.55804  0.85013  0.83757  1.0000
  C   C880      1.0  0.57655  0.86995  0.79684  1.0000
  C   C881      1.0  0.53740  0.84710  0.78545  1.0000
  H   H1502     1.0  0.69740  0.70950  0.64469  1.0000
  H   H1503     1.0  0.78612  0.81102  0.89023  1.0000
  C   C882      1.0  0.55785  0.88402  0.81406  1.0000
  H   H1504     1.0  0.69391  0.80784  0.50091  1.0000
  C   C883      1.0  0.56527  0.98186  0.67797  1.0000
  H   H1505     1.0  0.75435  0.79156  0.58803  1.0000
  H   H1506     1.0  0.79950  0.79558  0.55714  1.0000
  H   H1507     1.0  0.74109  0.81239  0.55167  1.0000
  C   C884      1.0  0.69517  0.82971  0.92749  1.0000
  H   H1508     1.0  0.58745  0.82761  0.79710  1.0000
  H   H1509     1.0  0.77432  0.76923  0.53687  1.0000
  H   H1510     1.0  0.69471  0.83799  0.94754  1.0000
  C   C885      1.0  0.73721  0.69660  0.66570  1.0000
  C   C886      1.0  0.61203  0.84358  0.76398  1.0000
  H   H1511     1.0  0.64848  0.70500  0.59614  1.0000
  H   H1512     1.0  0.50460  0.98099  0.71491  1.0000
  C   C887      1.0  0.72000  0.80945  0.50762  1.0000
  H   H1513     1.0  0.68725  0.71665  0.59443  1.0000
  H   H1514     1.0  0.59854  0.97068  0.70982  1.0000
  N   N63       1.0  0.69972  0.68499  0.62431  1.0000
  H   H1515     1.0  0.98911  0.78007  0.64676  1.0000
  H   H1516     1.0  0.77245  0.85759  0.89526  1.0000
  H   H1517     1.0  0.74464  0.70876  0.67494  1.0000
  H   H1518     1.0  0.65087  0.69284  0.64130  1.0000
  H   H1519     1.0  0.68959  0.98719  0.67803  1.0000
  H   H1520     1.0  0.89999  0.67624  0.50811  1.0000
  H   H1521     1.0  0.70416  0.99115  0.80799  1.0000
  C   C888      1.0  0.87835  0.67101  0.59908  1.0000
  H   H1522     1.0  0.77014  0.79432  0.97008  1.0000
  H   H1523     1.0  0.52653  0.98389  0.83063  1.0000
  C   C889      1.0  0.66570  0.81751  0.93245  1.0000
  H   H1524     1.0  0.68872  0.83776  0.90802  1.0000
  N   N64       1.0  0.53205  0.99046  0.67477  1.0000
  H   H1525     1.0  0.73234  0.98628  0.85567  1.0000
  H   H1526     1.0  0.90436  0.67292  0.60553  1.0000
  H   H1527     1.0  0.51080  0.96619  0.68564  1.0000
  C   C890      1.0  0.50517  0.97958  0.68987  1.0000
  H   H1528     1.0  0.58637  0.99033  0.67124  1.0000
  H   H1529     1.0  0.99034  0.74155  0.53173  1.0000
  C   C891      1.0  0.49566  0.94147  0.82704  1.0000
  C   C892      1.0  0.52686  0.99225  0.64140  1.0000
  H   H1530     1.0  0.73023  0.66667  0.64706  1.0000
  H   H1531     1.0  0.67862  0.99329  0.96139  1.0000
  C   C893      1.0  0.64439  0.99408  0.92528  1.0000
  C   C894      1.0  0.98661  0.77089  0.62855  1.0000
  S   S256      1.0  0.59953  0.99611  0.87905  1.0000
  C   C895      1.0  0.65531  0.99420  0.71476  1.0000
  H   H1532     1.0  0.69054  0.99284  0.86343  1.0000
  C   C896      1.0  0.66970  0.99558  0.68518  1.0000
  H   H1533     1.0  0.64369  0.66743  0.67833  1.0000
  H   H1534     1.0  0.68733  0.66641  0.67757  1.0000
  H   H1535     1.0  0.49651  0.99568  0.81169  1.0000
  H   H1536     1.0  0.73661  0.80272  0.49123  1.0000
