data_image0
_chemical_formula_structural       HCHFeCSH2CHCHC2FeH3CNSCFeSHCFeHCHSC2SH3CH2C3H2SH3CH3CH7CHNFeH2CH2SCH2C2NH2C2HC2S2HSH2CFeSH6FeHC2H3CH5SH2CH2SHCHS2H2SC2H2C2HC2H4SH2SH2CHCHNHCHCH4NH9FeH3CH6SHCSHCH3C2HC4HCFe2H3CHFeCHCHCH2NC2HFeSH2CH2SHNC2NC4H2CHCH2CH6C4H2CHC2H3CHCHC2H3CHNCHSHSC3HSC2SHC2H5CFeH3SFeHC2SHFeH3CFeHC3H3CHSCHCHCH3SH4FeHC2H6CH3C2SHSFeH5CH3C2HCHC2H2C2HC2H3CHC2H2NH2C2H2CHCHFeH3SH2C4HCHCH3CHNCSCH3CH3SHCHCHCHC3H4CH3CH4CS2CH3FeHCHCSCH3CH4CS2CHCSH3SHFeCH4C2HCFeCHSH5C2H2FeHCH3CHFeH2C2H3CSHC2HC2SCSCHCH6CSHFeC2HCH2NSH2CHCH3CH3CHCH4N2SFeH3CHNH5CHC2HCH2CHC3HCH3CHCH4C2H2C2H5SH3CH2CNCHC3H2CH2CNH2SHC2H8CHSHC4H5C2FeCH2CHSCHCHCH2CH2SCHS2H2FeS2FeS2FeSFeHS2FeCSFeCSFeSH2SCH4SHC2SH2NH4FeH3CHSH2SCH5FeHCHFeHCH4C2H4SH2Fe3HC2HCSC6H7CHCH2CHC6HCH3C2H3S2H2C3H2CHCH6CHCH2SHCH2C6H4C6H5CHCH3C3HSCH3SHC2SCH5SH2CH2CNH5NCSHFeC2SH2C2H11CH4CHCHCH6CHCHCNH4FeH3CHSH6C3H2NFeH3CHC2H6SFeSHSHC2H5SFeHCHC3H2C3H2CSCH2CH2SH2NCSCNC8H9CH3CH6C2HCHCHCFeH2CHCHCHC2H4NCHSHFeNC4H2C3H2C2NSCHCH2SH5C2HFeHCSCHCHC2HCHCH5CH2CH2CHCSCHC2H2FeSCNSH2CSCHC2H3FeH3C2HCHC3H4CSHFeHCHSH2CH2FeHFeCHC2SH8CH2CH4NH3CH4CH2C2H2C2HSHCH4CHCH8C2HSC2HCHCHCFeHCHCHCHCSC3Fe2S2HFeSCHCSH2NCH2CHCHSCH4CHCHSHSHFeSCSC6H6CSNH4NHCH2CHC2H4SH4FeHCH6CH4SHFe2H2CH2CHNCHC2H3C2H4CHCH3C4SCH2FeCHCSHCH2CH4SFeH3CHFeCHNHNH2CSH4CH2CH2SHC2H3CH2CHNHCH2C2H2SH2NC2HFeHSHSHCH4C2NCHCHCSCH2CH2SHC2HCHCH5C3FeHCH2CHCSH4CHCFeH2NCHNC3HC3HCH2CH4CNH6SCHCH2CHCHCHC2HCH3CH2CHCH2C3H2CSH13C2H3C3H3CH2CH2CHC2HCH2SCHCH2CHCH2C2HC2HC2HCH8SH2NHCH5CH2CH3CHCH2CH2C2H2CHCHCH5FeHC2HCSHSH2CH7CHCH2CH2SH2SC2HC3SHFeSHFeSHFeHFeSCSHFeCHSCH4C2H4C6H3CHC2HCHCH4CH2NC3H2C2HSHCH2C6H2SH3SH3C2HFe2H7SH2SH2C3H2FeC2HC2SCS2FeC2HC2H2FeCHC2H2CH3CH3CH6CS2HCNCHC2H2CSH8SC2H2FeHSH2CNSH2CH5SHCH2CH3SNCHCH2C3SC3H2C2SH2FeCHFeC3H3SFeH3C2H5C2H2C2H2CH2CH3SHSCHCSH10NH5FeS2CFeSFeHSFeS2CHFeS3FeS2FeS2NSC2S2H5CH3CHSH3CHCH4CHCHS2H2CHCH6C2HSCHNHSCSC2H4C6H4SC6H4CH3CH3FeC4HFeC4SH2CHCFeH3CH3SCH5SFeH2C2HCH3CH7CH3CH3CH4CH2C2H2C2HCSC3HCHFe2H2C3HCNHC2H2SCH4CHFeHSHCH2CH2CH3C3H3CH2CHC3H4CSH2C2H2NH2C2H2C2H5C4FeHCFeHC2HCH2C4H2CSH5SC2HNCHC3HCHCH8C2H4NHCH3C2NFeH3NH5CH2CH2SCH3NCH4CHCH10SH4CFeHCFeSCHSHFeSFeSH6FeS2FeSFeS2CHCH3FeHSFeS2C2HCS2CH2SC3NHNCHC2H3SC2H3CHFeH3C2HCSCHSFeHNHC2H2CHC2HFeCH2C7H4C6H2FeHC3FeCH8CSHCH5C3H5SH4C4H5CH2C2H3SH5S2H2CH4SCS2C2SHCFeCHC2HC2H4C2H3CHNH2FeHCHCH3CSH3CH2SHCH3SCHC3HC2SH2NCNC3HCH5CSCHC2H6CH2SCHCHCH5SCHFeCHCH6CHFeHCFeH4SH2CH5CH4CHCH2FeH3C3HC2HC2HC2HCSHCH2CH3FeC2HC2HC2H2CHCHNC2H3C2H3CHFeHCH4CH6SC2HCH3NC2SCHC2H4SHSHFeCHCH3FeCFeHSH2CSHCHSHNC3H4C3HS2CH3CH3C2HC2H2C3S2HCH2NSCHSH4CH8SHFeH2C2H2C3HCH2C2HFeCH3C2HCH5CH2CSH2FeHCH2NCH3SHCFeHSH2C2H3CH4CFeCSCH3CH2SHNH4SH2FeSC2FeS2FeS2FeHFeCS2CSFeSFeSFeS3CFeC2FeHSCFeH2SH3CH2FeSC3H4CHCHC2H5C2H3NH2C6H7C2HNH2C6H4CHCHCH2C2FeSH2CFeHCHCSH5SCH5C4H5CSH3CHCHSH4C2H3CSH3CHFeH4CH4FeCHCH2C2HCH2CH4NCHCH2CSH3CH5C2H2C2FeH3C4NCHCHNC2H2CH2CH2CH3CHSH4SCHCHNH2CHSCH2C3H11SHSCHSH5SNSHC2H2CNHCSH3CHC3H5C3HCFeS2HCH3Fe2CSH5CHC6H3SHFeHCHSH2FeHSC2HCSHCH3C2HC2SHC2HCHCHSH4C2HCH4C2HC2HFeHCNH2C3H2CHSH2CH4NCSHC2S2HCHCHCH4CHC2H6C2H7CH4CS3FeS2FeSHFeSFeS4CHFeS2CHFeHSH7CNSH2FeS2FeS2FeSFeS3C6H4C6H14C6H4C6H4C6H4CFeH3C4H2C4H6CH4SH3C5HCH4C3H2CH2C2H2C2HCH2NH5CH3CH3SH5CH2CHC2H10C3SCHSCH2NC2HSCHCH3C2FeHC2HC2H3C2H3SH2NSH4FeH6CH2NC2HC3H4CHFeHCHC3H2CHCHCH2C2H2NH2SHCHC2FeC4H7CHNC8H21NH9SH2C2HCHFeC2H3CH2CH2CHCH2C2H3C2H4CH2NH3CHS2CH5CFeHCFeS2FeHFeHS2H4NCHSCHSC2H2C2HCH2SFeC2HCH8C2HCHC4H2CH2NC2H2SH2C2H5CH2CNSHC2H2NCH4CHCSCFeHC7H3SHCH6SCH4FeC3HCHFeC2SH3SFeCH3CHCH4NC2HC2HCH4CHNHCHSHC4FeSHSC3H4CH6CH4FeHSH2NH5CHCH2CFeCSH2C2FeH2C2HCHCH4CH3CH4CS2CHC3H3CHSNHS2CH2CH3CH2CHSC2FeSC2HSH3CHCH3FeH2CSH2CSH2CFeHCHC2HC2H2CH2CH9CFeHCHC2H2SH7CHSHC3HCH2CH4FeCSHSCHFeSH3FeHSFeSHC2SNSH3CSFeSCHFeS2FeS2FeSFeS5HFeS2FeS2FeSFeHS2HSCHSH2CH2FeHSC2H2CSH4CSHCH2CH2CNH2CHCHC2H12C4H2CHC2H2C5H5C6H4SC2SHSH2SCH3CHC6H4C2HCH2C6H4C4HCH4C2SHC2H4CSH5C6H5SHCH2CHC2HSHCHCH4CH2CHC3HNC6HSH6CHCHCH3CH2CH2NHC6H9CHSH5SC6HFeH5NSCSFeH2SHSFeH3CH2C2H6CFeHNHCH2FeHCHCN2H5CH2CH3CH2SCNC3H3CH2CHSCFeC2H3CHFeSHC2HCH4CSH2NCFeCHCHCHCHCNC8H20NC5HC2H20CH2CHSCH2CSCNSH2CH3CH2CH3CFeH2CH3CH4CFeH2FeCHSH2C2SHCH2CHNH3SCHCHFeHFeHCH6CH6SH2CHC3HFeC2HCHC2H3C3H2C2H2CH3CHFeH2CH2CH4CH4NHCH7SHCH3CH2SH5S2CHFeCH3CH2CH2FeH4FeH2CHC2FeCHCHCSH5CNH2C3HCH3CHSHFeHSHSC3H3C2H4NC2HSH2FeHFeC4H2CSC2HCHFeCH4CH2C2H3CHSFeSH2CHFeSFeHCFeHSFeCSC2SFeH2SH2SH6CSFeH2SHFeHSHCHSCHSHSFeS2FeHSFeS2CHC2SC2H2SH2S3HC2H3CHSH2S2H2SHSHSHFeH3C2H2SH2C2HCHFeH3CHFeCHCH4C4HCHC2H2CHCSFeHC7H4CHFeH2CNSH2C2H2C3HCNH3C4SH4C3H2CHC2SHCH2SHFeH3CHC6H4C2HC3NH3C4H2CH4C6H4CNSHSH3C3H2S2H2CH2CH7NH2CH2CH4CH3CSCSHFeSNC2H5CH2CH3CHCH6CH3CH2FeH4CNCHCH3CNCHFeH5SCH10C2HC2SCH3CHC3SHNC2H2CHCHSNC8H22CHCH4C2H2CFeSH2CHSC2HCH2S2CNCHSH2CS2H4C3SFeCH6CH3CHCH4CHCHFeSCH6CHC3HFeCH2FeCHCH4CH2FeH2CSHCH2C2H2C2NC2H7C2HCH4FeH7CHCHFeCH2C2H6C5HFeHC3H6CHC2SCHC4HCH2CH5NSH2SCFeSFeSCHSHSC2HFeCHCH2C2FeS2FeS2FeSFeS3FeH5CHC2FeS2FeS2FeSFeHS2HS2H2CHCH3FeHC2SCH5CFeH7CH2NSCSFeCHCSH3CHFeHNC2H2SCHSHC2HCSCHNCH2FeH3NHFeH2SH2C4H2C2HFeCHNH2CHCHC6H3C2HFeH2CH2CHC7H3C6H4C2H3CHSNH4CFeSHCH3CH3C4H2CHCH3C2H7C2SCHSHC6H5SHC2HFeHC5H4CHCHCHSH3NHCS2H3CH2CH5C5HCHCHCH2CHC2H3CHSHSC2SH3CH2SH7C3H4SC4H2CH3FeHCHCH4CHC3H4CHNH3CH3CH3C2H2C2H3NH3CH3SHNH2NC2H6CFeCH2C2H3CHCHCH2CH3CHSHCNFeCHCH2C2SCH3CSH3CH3C2H4CH3CH2CNH7CH3CH4SC2H3C2H4FeSH3SH5CHCHSHSHCH2CHSHCH4CHSCHCH2FeHCHSCHCHC2H2C2HSCSHSFeHSCH2FeHSCHSCH4C2HCHFeH12CH8C6H5CHCHSHCHC2SCH2CHSHSCHCHNH2SHCH3SCFe2CHCHCHSH2CNHNH2CH2C2H2SFeHC2H2C2HSC3NSHCHCHC3H3CHCHC2H2CHCH2C3H4FeH3CHCHCH3SFeHNFeSCHFeS2FeCSHSCS2FeSH2SFeSFeS3C4FeHC2HC2HSC2SH9C6H4C2HC3H4C6H2SHNC4H4SC4HSH3CHC4H4SH3NHCS2C2H2CNFe2C3H3C3HCHCFeC3H2SHCFeCHCHCHCHCH4FeHNH2SH5CHNC6H3CH13SNC8H20C3S2HCHCH2SH3CHFeH4CHFeH2NC5H2CHCH8C3H3CH5C2HCH2CH7SH5CHCH8C2H3C3H4SHCSCHCHCHCSCH3SCH2FeH3CH5SFeS2FeHSFeCFeCS2FeS2FeS2FeHFeS3H2CHCFeHSHCH3C2SH2CHCSHCH2CHCH2FeH2FeH2CSHCHSCH4C7H4CHCHC6H4CHC3S2HCH3C4FeCH5CH5CNHC3HFeH4C2HCFeHCHCSCH3C2HCH3FeHCH2SH3CH3CHCH2CHC2H4NH4SHCH2SFeH2CH2CH2NCH2C2HCH3CH15CH4C2SHC2FeSCSH2FeH3C2SH4CH4CHSC2HCSC3H2C2HCH2CH4CHCSH2S2CHC2HCHCH4CHCH3SHS3H3C2HFeNHNHNH2CH3NHCHSCHSH4CHCH3C2HCH4C4H3CHSH4C2HFeSH5C2H3SH3S2HCFeS2FeS2FeSFeCSH4FeSFeHFeCSFeHSFeSHFeS2FeSH3NSHCSHSCHSHCSHCFeNCH3C2SHSH3C2HC2H2SH2CSFeH2C2H3CH2C3H3C6H4C2H3CH3C3H3C6H4C6H9CH4C3SC3H7FeH3CHC2H3C3HCHSHC2HC5NH9CH6CHC2HCH5CH2SC3H3NCH3CHC2H2CHSFeHCH2CHCSH5FeC7HCHNCH2CS2CHC2NCNH2CHC2HNCHSH4C4H3C2H2FeC2H2SCHC2HNSH2CH2CH3CHFeS2CHSHCSH3FeC2NSHCH2C4H6SH8NH5C2H3FeH6CH7CSCH5CHCH2CH2CH3CH2CHC2FeH5CH3FeH2CH2C2SHC2H2FeCH4SCFeS2FeHFeS3FeS2HFeSFeCH3FeS2HFeSCSHCH2C3H3C6H4SC3HC2HNH2C2FeH2C6H6C3H2CHCHCHCH4CH2C2HCHNH5FeHCHCHCHN2C8H19CHSHCH6SH3CS2H3C2HCH3CSFeSH3CH2SH9C2HSCH2SC2H2FeCHC4H8CHC2H4CHSH4NCFeCHC2HCFeCHSCNH4CHCHC3HCHC4H2C2NCH2C2HSCHFeCH2C2HCHCHC2HFeSH3C2H5CH2CH5C3SCH5FeCH3SHCH2CSH2CH2SCHCHCS2HSHNHSCH5CH3CH3NH2C3H3CH12SH2CHCH2CSC3HCH2CHC2SHFeCH3C2FeCH4CHSHCHC2HFeS2H2CH6CFeS2FeS2FeHFeS3H3C2SHCHFeCH2CH4FeS2FeS2FeSFeS3NH3SC2SHSCSH4FeS2FeSFeHSHSC2HFeHC2H3C2H3FeC2H2CH2CH2C5HCH3FeC6H5CH5CHNH2CH3C2HFeSHSC2NH4CH3CH2CH2C6H2CHC6H4CHCH6C2HC2H2FeH3C6H4CH2C2H2C3H3FeSCHCHCHC2H6NH2NCH2SHFeHCH2CH6SH7SH5C5H2C3HC2HN2H4CHC2H8C2S2CH4CH2FeH5CHCH2SH2NHSHC2FeSC2HCH2CHSCHC3H2CH6NC8H11CH6NC4SHC2H6CHCH4SCNH2CHNHSCH2CH2C2H3CH9C2H2SCH4C2H17CHCS2CHCH3CHCHSHC2H5CHCHSCHCHCH4FeH2C2H2CH2CH5FeH5SH2SHSNHCH2C2H4CH7CFeCHC2SCFeS2FeS2FeS2FeCFeHS2C2H2C2H2C2H2NHCH4SH2C7H4SNFeH3CH2CH2C7H4CH3FeH3SH2CH2NSH2C3HCHSHC2H5CH3CSH2SH3C5HCH7CSCH3C2HNH2C3H3C2H5Fe2H2FeH2C2HC2FeC2H2CH2CH2S2C2SCNCHSH3CSCH2C2H3CHC2H9CH3C2SH2CHCHFeHCH4SCNHFeH3SNC3HSHSCSHCFeSC2SC2H2CH6CH2SHNSCHCH3CH2CH3CH2CH8C3SH2C2H2FeHCH2C2SH2CHC2SHCH3SHFeCSCSHFeS2FeS2FeSFeHS2H2SCHCHC2HCH4CFeHSHSFeSH2NH5C5HCSCH3CHCHS2FeH2CH2SH2FeHC3SHCH2CH4C2HC3HCHFeCH2SCH5CHC2H2NHCHSCH4CHC2SHSH2C4H5C2H2FeH2CHCHC4H2SH2C2H4CHC2H2C7H4CH2SHCH2CH2SNCHFeH3CFe2HCNH4CHCHCHC2H4C2HCH2CSCHCH3CH4FeHCHCHCH2FeHCH2CSC3SH2SHCHSH3CSHC2H3CSFeH2SCH2FeCH3C2SHNCH2CSH2C2H2SNH3CNH4CH2C2H2C2H2SH4CH3CSHCHCH2CHCHCHC2H3SH2FeC2HC3HCHCH4CSH5SCHCH3C3HCHFeSH2FeSH2CH2CHC2H2CH2CH2N2CHNHC3HSH2CHFeH7CH2NHCH3C2H3CFeHCHCH2FeHCHCH4SHCH2C5HSHCHSC2FeCHC2HNHC2SC2HC2HCH6CH3C3HCFeH5SH3C5HSNHCHFeH3CHNH2SCH6CHCH3C2H8SCHSHCH2C4HSHC2S2HC3H2S2FeSFeHC2H2SFeH5SH2NCSFeH2CH2SFeSHSHFe2HNC2HSC3HC6H4CSHCSC2H3C4HCH2CHC3SHCH2CHC6H2CHC2NH2CH4Fe2NH2CH6FeCHNHC3HC2H2CH3CHC2HCH6C5HCHCH2SCH4SCH6CHCSH3C4H8NC8H20CSH3CHC2HSC2H8CHCSCH9CSFeH2C4H2NH2CHC3HCH3SCHCHCFeH3CH2CFeH2CH2CH2C2SCH4C2HC2SH3SC2H2C2SHCSHCHFeH3CHC4HFeH3CH2C2H3SCSH4NHSH4FeH3SC2HCHNH4C2H2SCHNCH4NCHC2H5CH2CHSH3C3SCSH2SH3SH3C2HCSHSCSHCSH2C2HCHCH2CHCFeH2FeCFeH2CH2CSCHC2HSC2Fe2CHFeCSCHFeSHSH4C2HCFeHSHC2HC2H2NHCHCFeH2FeC2HSH6CHCH2NH3SCH2FeHSHCSHCNHC2H2CH2CHCH5CSH6C4SH7SCHCH4C3H3CH4CH2CSHCH3SCH6C2HCHCNCHNFeHS2H2SC3H4C3HSHSH2FeH2CHCSC2HCHC2H2C4H2FeNCSC2HNHCFeCH2CH7CH2CH11C4H4C2S2H2CH2CHC2HC2HFeH6CHCHCSC2HC2HCH11C3FeC2H3FeC2HCH2S2HSH3SH2FeS2H3FeH3SCSFeSHFeS2Fe3CS3FeSFeSHFeSFeS3FeHSCHCHS2HFeH2FeCH5SH4CHSHCH2C4SC2H3FeCHCH3C6H5CHC6H3C7H4SHSH2C6H4C2SH3C3SC2H2CH9CHNH3CH4CHCHC2H3CHCH4NH3NC2SH4CHCFeHCH3C4FeCFeH3SNCH2CH6CH4C2H2CHCSH3CHCHSH2SH2CFeH5CH2CSC2H6NHCHSH3C3H3CH3CFeH2CHC2SHC2NSH2C2H2CH3CHCH2SHNH7C2H2FeHCHCFeCHNH3CSC4H2CH3CH4CHC2H2CHCHFeHCHCH5SH2C2NH7CH3SH4C2SHCHCHC2HC3NFeCH2CHC2HCH2CHC2NH2CH3SC2H2NH2C2H2C2HCH2CH8S2CH7CHCH4CHC2HCHCH2C2H4C2HS2CHSFeS2FeS2FeSFeS3FeHFeHSFeH2SH2SCFeS2FeSFeSHSC2FeHSFeH2SH3CH2CH3NH3CHC6HNH2CH3SCHSH2C3N2H3C8H4CHC2H3CH6SC6H4C6HSH2C6H7CH3C2H5CHCHCH3CHCH2CH2CNC7H23C2HSH2CH2CH2CSHSH2SCH5NHC4HCH2SH7C2HC2H2CHCSHFeHCFeCH3CH2FeHSHSH4CH3CSHC4HC2H9C4H3CH7CH2SHSHSHCHCH4CH3NC2SH2C3SC2H2CH8C2H2C2H2CH3CHFe2H2NSH2SH2SHSHCFeH5C2HC2HCSCHCH3CHC2HCHC2SNCH2SH2C4SH3SCH2CH2SH2CH2FeHNH3C2HSH2SHFeSFeSHSCHCFeS2H4SFeSFe2S2FeSFeHS2HFeS2FeS2FeSFeS3FeSFeH3SHSHCFeS2FeS2FeSFeHS2H6CHCH2C3H4C2H7NSHC10H4C6H6C5H3CH2SHC6H8SCSHC6H4C2HC3HSH2C6H6CNH3C5H3CH2C3NCHCH3C2H4C5H3FeC5H5FeCNHCH3NC2H5C2HCNC7H18FeH2FeH2C2FeH3C2H2CHC4H2CHC2H6C2H5C2H4CH2CSHCHCH3CH3NC8H20CH2SHC4HNCSCH4CHC2H3CHCFeH3CH2NH4SC3HCN2C2H4C2H4CH3C2H5NH2CH4CHN2CH2C4H2C3HCH3C2H3C3H8CHCHC2H2SFeH6CH4C6NC2H5CH4CHCSHC2HCH6CHCH3CH3CH3SHCH8C2HCH7CH2SCHCSC3H4CH4SH2C3SCH2NSHCH2CH6FeH4C2HCH3CH3C2H2CHCH2CH3FeCH9C2HSHCHSH3CH2CSHC3FeHSHCSCHS3C2H2FeCSFeS3CHCH4FeHC3H2C3H2CH2C2SHC3H4CHSHCHCFeH2CH2C5H2FeH3CH2FeCHC3SFeH3CSC3HNHFe2HCHFeCH3C2H3C2SH2SHCSHC3H3FeCSHCH3CFeSH3SH2C3H2NC2H2CNCHSHC2HCHCHC2H8CH2CH3SH2CH3CHCFeH5C2H2C3HCH3SC2HFeCH4SH2CSH3FeH2NC2HCH6CH4CSH6CH2SHCH6C3HCNFeHSFeSHC2H4SCH7C2H2NHS2FeC2H5C2H2C2FeCFeC2H2CH5C2HC2FeH5C2SCH2SHCNSC2SCH2C2H3CH2C2HCNH5CH4CH6NC2H3CFeCH3S2CHCHCSH2NCHCHCH3CNCH7CSH3C3SHCH2SH2NCH2SCHSH12FeSH4C2HCHCH5CHCSHC3HCH4CH2C2SH2C3H5CHC2H4C2HCHCHNH3CH2CH2C4H2C3HCH2C2HCH3CHCH6FeS2H6CS3HSHFeSFeH2FeHSFeHSFeH2S2C3FeS2HCHS2HC2H5C2HFeHS2H3C5H3C2H2CHCHC2FeC2HC3HNH2SC3SNH4C6H6FeCH3SH4CH3S2FeCH3CH2FeHCH2S2FeH4CH5NC2NC4HCHCH4SH8CH7C2HC2HC2H4C2HCH2CH3FeHCH2CH4C5H3C3HCHC2HCFeCHCHCH3SH2CSH6CHCS2H4SHFe2HCHSHC2H5NC8H10CH2CH2C2SHCHCFeHSCNH2CH4CH3CH6CH5CH4CH3SCNSH2C3H
_chemical_formula_sum              "H6912 C4032 Fe576 S1152 N288"
_cell_length_a       121.65
_cell_length_b       121.577
_cell_length_c       121.533
_cell_angle_alpha    73.77
_cell_angle_beta     73.5487
_cell_angle_gamma    73.3583

_space_group_name_H-M_alt    "P 1"
_space_group_IT_number       1

loop_
  _space_group_symop_operation_xyz
  'x, y, z'

loop_
  _atom_site_type_symbol
  _atom_site_label
  _atom_site_symmetry_multiplicity
  _atom_site_fract_x
  _atom_site_fract_y
  _atom_site_fract_z
  _atom_site_occupancy
  H   H1        1.0  0.45441  0.07582  0.17840  1.0000
  C   C1        1.0  0.44433  0.21484  0.99756  1.0000
  H   H2        1.0  0.48090  0.00274  0.22528  1.0000
  Fe  Fe1       1.0  0.47879  0.20470  0.04435  1.0000
  C   C2        1.0  0.46128  0.04107  0.23094  1.0000
  S   S1        1.0  0.47418  0.20944  0.06196  1.0000
  H   H3        1.0  0.47004  0.23077  0.04389  1.0000
  H   H4        1.0  0.44646  0.16103  0.00445  1.0000
  C   C3        1.0  0.48532  0.24123  0.99733  1.0000
  H   H5        1.0  0.46057  0.06317  0.18862  1.0000
  C   C4        1.0  0.45969  0.00971  0.21654  1.0000
  H   H6        1.0  0.44567  0.17442  0.00832  1.0000
  C   C5        1.0  0.43690  0.05842  0.18874  1.0000
  C   C6        1.0  0.46330  0.05973  0.17110  1.0000
  Fe  Fe2       1.0  0.47008  0.20570  0.02296  1.0000
  H   H7        1.0  0.46841  0.05113  0.17513  1.0000
  H   H8        1.0  0.45302  0.07358  0.14536  1.0000
  H   H9        1.0  0.43676  0.06816  0.16235  1.0000
  C   C7        1.0  0.44963  0.16490  0.00991  1.0000
  N   N1        1.0  0.45234  0.05817  0.16882  1.0000
  S   S2        1.0  0.47564  0.02601  0.18878  1.0000
  C   C8        1.0  0.48877  0.15502  0.00027  1.0000
  Fe  Fe3       1.0  0.47279  0.03707  0.20179  1.0000
  S   S3        1.0  0.45418  0.04433  0.21035  1.0000
  H   H10       1.0  0.47025  0.18786  0.00556  1.0000
  C   C9        1.0  0.45204  0.04524  0.22505  1.0000
  Fe  Fe4       1.0  0.48577  0.18324  0.03356  1.0000
  H   H11       1.0  0.42906  0.06395  0.18536  1.0000
  C   C10       1.0  0.46435  0.18162  0.00854  1.0000
  H   H12       1.0  0.45824  0.07971  0.15442  1.0000
  S   S4        1.0  0.49382  0.99482  0.20508  1.0000
  C   C11       1.0  0.44552  0.05139  0.17976  1.0000
  C   C12       1.0  0.48222  0.16686  0.00385  1.0000
  S   S5        1.0  0.48546  0.04819  0.19061  1.0000
  H   H13       1.0  0.43365  0.05354  0.22647  1.0000
  H   H14       1.0  0.47373  0.01319  0.23413  1.0000
  H   H15       1.0  0.48161  0.99833  0.18636  1.0000
  C   C13       1.0  0.47584  0.00362  0.23425  1.0000
  H   H16       1.0  0.46630  0.15525  0.00153  1.0000
  H   H17       1.0  0.43589  0.21659  0.00358  1.0000
  C   C14       1.0  0.46515  0.23941  0.99959  1.0000
  C   C15       1.0  0.46710  0.22767  0.07314  1.0000
  C   C16       1.0  0.49351  0.02416  0.15400  1.0000
  H   H18       1.0  0.46959  0.06252  0.16277  1.0000
  H   H19       1.0  0.48762  0.17346  0.99883  1.0000
  S   S6        1.0  0.48665  0.19396  0.01511  1.0000
  H   H20       1.0  0.44834  0.05108  0.15621  1.0000
  H   H21       1.0  0.49001  0.02110  0.16325  1.0000
  H   H22       1.0  0.46970  0.07159  0.17696  1.0000
  C   C17       1.0  0.46170  0.06800  0.17929  1.0000
  H   H23       1.0  0.44004  0.04683  0.17739  1.0000
  H   H24       1.0  0.47000  0.03753  0.22644  1.0000
  H   H25       1.0  0.45608  0.17207  0.02601  1.0000
  C   C18       1.0  0.45048  0.07757  0.15314  1.0000
  H   H26       1.0  0.44411  0.08605  0.15104  1.0000
  H   H27       1.0  0.46787  0.23169  0.00654  1.0000
  H   H28       1.0  0.47066  0.03730  0.16554  1.0000
  H   H29       1.0  0.45678  0.03286  0.16993  1.0000
  H   H30       1.0  0.46569  0.15635  0.01591  1.0000
  H   H31       1.0  0.47357  0.20966  0.99636  1.0000
  H   H32       1.0  0.44730  0.00671  0.23300  1.0000
  C   C19       1.0  0.44456  0.06973  0.16428  1.0000
  H   H33       1.0  0.46730  0.22098  0.08116  1.0000
  N   N2        1.0  0.46963  0.17146  0.00243  1.0000
  Fe  Fe5       1.0  0.48948  0.03610  0.17836  1.0000
  H   H34       1.0  0.46991  0.17510  0.02550  1.0000
  H   H35       1.0  0.45604  0.18704  0.00610  1.0000
  C   C20       1.0  0.46178  0.17844  0.02210  1.0000
  H   H36       1.0  0.46895  0.01036  0.21280  1.0000
  H   H37       1.0  0.43366  0.05214  0.19682  1.0000
  S   S7        1.0  0.48803  0.16358  0.03886  1.0000
  C   C21       1.0  0.45608  0.05110  0.15939  1.0000
  H   H38       1.0  0.45409  0.01788  0.21237  1.0000
  H   H39       1.0  0.45525  0.01744  0.23142  1.0000
  C   C22       1.0  0.46326  0.16157  0.00746  1.0000
  C   C23       1.0  0.46245  0.03812  0.16288  1.0000
  N   N3        1.0  0.46467  0.99939  0.23694  1.0000
  H   H40       1.0  0.49328  0.99401  0.23731  1.0000
  H   H41       1.0  0.44075  0.07522  0.17093  1.0000
  C   C24       1.0  0.44084  0.05026  0.23095  1.0000
  C   C25       1.0  0.45629  0.00850  0.23000  1.0000
  H   H42       1.0  0.46220  0.05507  0.15156  1.0000
  C   C26       1.0  0.46875  0.23314  0.05213  1.0000
  C   C27       1.0  0.46927  0.22442  0.06241  1.0000
  S   S8        1.0  0.45373  0.21348  0.01584  1.0000
  S   S9        1.0  0.47919  0.21727  0.02691  1.0000
  H   H43       1.0  0.48276  0.16542  0.01312  1.0000
  S   S10       1.0  0.46836  0.19406  0.04096  1.0000
  H   H44       1.0  0.45701  0.18655  0.02542  1.0000
  H   H45       1.0  0.45163  0.04429  0.18464  1.0000
  C   C28       1.0  0.45468  0.21302  0.00134  1.0000
  Fe  Fe6       1.0  0.48981  0.01424  0.19788  1.0000
  S   S11       1.0  0.48591  0.02459  0.21164  1.0000
  H   H46       1.0  0.44101  0.06390  0.19151  1.0000
  H   H47       1.0  0.44592  0.16113  0.01923  1.0000
  H   H48       1.0  0.46505  0.03406  0.15511  1.0000
  H   H49       1.0  0.46403  0.24219  0.02159  1.0000
  H   H50       1.0  0.48569  0.14754  0.00690  1.0000
  H   H51       1.0  0.49129  0.06875  0.00609  1.0000
  Fe  Fe7       1.0  0.49567  0.20456  0.02067  1.0000
  H   H52       1.0  0.49456  0.13891  0.03940  1.0000
  C   C29       1.0  0.46556  0.21085  0.99354  1.0000
  C   C30       1.0  0.49563  0.03548  0.14980  1.0000
  H   H53       1.0  0.46645  0.23573  0.99178  1.0000
  H   H54       1.0  0.44897  0.24028  0.01346  1.0000
  H   H55       1.0  0.49396  0.00814  0.14932  1.0000
  C   C31       1.0  0.46546  0.23950  0.07343  1.0000
  H   H56       1.0  0.45812  0.00229  0.21401  1.0000
  H   H57       1.0  0.48574  0.23512  0.00599  1.0000
  H   H58       1.0  0.48938  0.22904  0.06453  1.0000
  H   H59       1.0  0.44694  0.24045  0.99960  1.0000
  H   H60       1.0  0.49019  0.23693  0.04437  1.0000
  S   S12       1.0  0.49262  0.04496  0.15932  1.0000
  H   H61       1.0  0.46435  0.24190  0.08168  1.0000
  H   H62       1.0  0.49542  0.06247  0.02492  1.0000
  C   C32       1.0  0.49575  0.01684  0.14613  1.0000
  H   H63       1.0  0.09953  0.01243  0.45630  1.0000
  H   H64       1.0  0.36200  0.04975  0.42342  1.0000
  S   S13       1.0  0.05888  0.20333  0.39389  1.0000
  H   H65       1.0  0.28570  0.99370  0.46024  1.0000
  C   C33       1.0  0.02555  0.10154  0.48556  1.0000
  H   H66       1.0  0.33452  0.07114  0.42910  1.0000
  S   S14       1.0  0.03628  0.15817  0.42974  1.0000
  S   S15       1.0  0.06393  0.17038  0.41173  1.0000
  H   H67       1.0  0.47198  0.04353  0.33756  1.0000
  H   H68       1.0  0.02286  0.21176  0.41824  1.0000
  S   S16       1.0  0.25705  0.99974  0.43193  1.0000
  C   C34       1.0  0.06250  0.21596  0.39485  1.0000
  C   C35       1.0  0.06882  0.22239  0.38489  1.0000
  H   H69       1.0  0.26401  0.01032  0.40143  1.0000
  H   H70       1.0  0.36453  0.00015  0.41083  1.0000
  C   C36       1.0  0.06168  0.23005  0.40599  1.0000
  C   C37       1.0  0.05907  0.21971  0.40546  1.0000
  H   H71       1.0  0.07152  0.21950  0.37668  1.0000
  C   C38       1.0  0.28836  0.05909  0.48578  1.0000
  C   C39       1.0  0.37143  0.01123  0.47191  1.0000
  H   H72       1.0  0.26148  0.99608  0.40605  1.0000
  H   H73       1.0  0.05354  0.11096  0.43306  1.0000
  H   H74       1.0  0.48734  0.06688  0.30214  1.0000
  H   H75       1.0  0.30117  0.09078  0.46899  1.0000
  S   S17       1.0  0.44560  0.04874  0.26297  1.0000
  H   H76       1.0  0.30480  0.05914  0.45204  1.0000
  H   H77       1.0  0.38219  0.03745  0.42258  1.0000
  S   S18       1.0  0.30810  0.04377  0.42784  1.0000
  H   H78       1.0  0.07448  0.14476  0.42261  1.0000
  H   H79       1.0  0.45046  0.02503  0.35415  1.0000
  C   C40       1.0  0.10703  0.00711  0.46038  1.0000
  H   H80       1.0  0.45657  0.04325  0.31463  1.0000
  C   C41       1.0  0.45849  0.99814  0.24973  1.0000
  H   H81       1.0  0.07948  0.12144  0.41462  1.0000
  N   N4        1.0  0.48382  0.03984  0.32127  1.0000
  H   H82       1.0  0.01714  0.12132  0.45437  1.0000
  C   C42       1.0  0.45382  0.01697  0.32849  1.0000
  H   H83       1.0  0.29484  0.06559  0.43558  1.0000
  C   C43       1.0  0.38101  0.01130  0.46044  1.0000
  H   H84       1.0  0.46386  0.01199  0.25424  1.0000
  H   H85       1.0  0.02545  0.19452  0.45764  1.0000
  H   H86       1.0  0.01119  0.16152  0.43553  1.0000
  H   H87       1.0  0.35345  0.02250  0.48594  1.0000
  N   N5        1.0  0.43986  0.00320  0.39306  1.0000
  H   H88       1.0  0.11018  0.13744  0.42306  1.0000
  H   H89       1.0  0.32201  0.07327  0.42284  1.0000
  H   H90       1.0  0.08047  0.12346  0.42792  1.0000
  H   H91       1.0  0.47792  0.03825  0.30660  1.0000
  H   H92       1.0  0.07909  0.10494  0.43652  1.0000
  H   H93       1.0  0.31492  0.06009  0.43848  1.0000
  H   H94       1.0  0.31961  0.04865  0.46301  1.0000
  H   H95       1.0  0.29776  0.08665  0.45208  1.0000
  H   H96       1.0  0.05754  0.14023  0.43519  1.0000
  Fe  Fe8       1.0  0.05877  0.18983  0.41076  1.0000
  H   H97       1.0  0.31359  0.09278  0.45715  1.0000
  H   H98       1.0  0.32923  0.07099  0.45455  1.0000
  H   H99       1.0  0.30043  0.07855  0.43002  1.0000
  C   C44       1.0  0.45439  0.02045  0.34703  1.0000
  H   H100      1.0  0.03896  0.13288  0.44072  1.0000
  H   H101      1.0  0.03400  0.22323  0.46350  1.0000
  H   H102      1.0  0.05091  0.20114  0.47283  1.0000
  H   H103      1.0  0.00354  0.10741  0.43351  1.0000
  H   H104      1.0  0.00164  0.11842  0.47112  1.0000
  H   H105      1.0  0.06464  0.12709  0.44341  1.0000
  S   S19       1.0  0.09514  0.10548  0.45247  1.0000
  H   H106      1.0  0.42778  0.01955  0.39611  1.0000
  C   C45       1.0  0.07632  0.13962  0.41582  1.0000
  S   S20       1.0  0.45371  0.01936  0.28394  1.0000
  H   H107      1.0  0.03242  0.10457  0.48706  1.0000
  C   C46       1.0  0.04616  0.12865  0.44544  1.0000
  H   H108      1.0  0.04615  0.11923  0.44914  1.0000
  H   H109      1.0  0.04409  0.13288  0.45302  1.0000
  H   H110      1.0  0.43305  0.99350  0.42382  1.0000
  C   C47       1.0  0.05825  0.12843  0.40648  1.0000
  C   C48       1.0  0.26634  0.00185  0.39858  1.0000
  H   H111      1.0  0.99634  0.16582  0.45341  1.0000
  C   C49       1.0  0.32646  0.07744  0.42684  1.0000
  C   C50       1.0  0.37479  0.03331  0.42538  1.0000
  C   C51       1.0  0.32380  0.06570  0.45320  1.0000
  C   C52       1.0  0.30820  0.06561  0.44428  1.0000
  H   H112      1.0  0.08179  0.13573  0.48306  1.0000
  C   C53       1.0  0.19544  0.03494  0.45285  1.0000
  Fe  Fe9       1.0  0.32502  0.03483  0.43360  1.0000
  Fe  Fe10      1.0  0.08008  0.10114  0.46735  1.0000
  H   H113      1.0  0.34137  0.99734  0.47249  1.0000
  H   H114      1.0  0.19260  0.04459  0.45142  1.0000
  H   H115      1.0  0.01103  0.13436  0.42774  1.0000
  C   C54       1.0  0.42896  0.01265  0.39120  1.0000
  H   H116      1.0  0.07733  0.12673  0.45572  1.0000
  Fe  Fe11      1.0  0.31646  0.01289  0.44688  1.0000
  C   C55       1.0  0.29788  0.07208  0.43817  1.0000
  H   H117      1.0  0.04130  0.21636  0.48239  1.0000
  C   C56       1.0  0.02593  0.15982  0.44282  1.0000
  H   H118      1.0  0.06798  0.15398  0.46943  1.0000
  C   C57       1.0  0.19781  0.00264  0.45424  1.0000
  H   H119      1.0  0.20467  0.03292  0.44776  1.0000
  H   H120      1.0  0.01201  0.14108  0.43834  1.0000
  N   N6        1.0  0.09676  0.22794  0.47769  1.0000
  C   C58       1.0  0.36336  0.04027  0.42587  1.0000
  C   C59       1.0  0.08438  0.12898  0.44848  1.0000
  H   H121      1.0  0.44483  0.02577  0.38863  1.0000
  Fe  Fe12      1.0  0.05468  0.18711  0.43683  1.0000
  S   S21       1.0  0.47709  0.01416  0.29470  1.0000
  H   H122      1.0  0.00298  0.22923  0.47434  1.0000
  H   H123      1.0  0.03344  0.21819  0.42784  1.0000
  C   C60       1.0  0.08359  0.14067  0.44221  1.0000
  H   H124      1.0  0.02220  0.18937  0.48316  1.0000
  H   H125      1.0  0.00402  0.12190  0.42424  1.0000
  S   S22       1.0  0.05909  0.16749  0.44049  1.0000
  H   H126      1.0  0.45622  0.01609  0.39612  1.0000
  N   N7        1.0  0.11653  0.00900  0.47624  1.0000
  C   C61       1.0  0.09722  0.20920  0.43051  1.0000
  C   C62       1.0  0.08039  0.22586  0.42667  1.0000
  N   N8        1.0  0.31362  0.07335  0.44790  1.0000
  C   C63       1.0  0.10177  0.05975  0.48399  1.0000
  C   C64       1.0  0.07228  0.21741  0.43386  1.0000
  C   C65       1.0  0.41713  0.00876  0.39460  1.0000
  C   C66       1.0  0.28192  0.02348  0.41984  1.0000
  H   H127      1.0  0.09230  0.20253  0.43121  1.0000
  H   H128      1.0  0.09523  0.21070  0.43958  1.0000
  C   C67       1.0  0.45933  0.04181  0.24270  1.0000
  H   H129      1.0  0.05094  0.05635  0.47975  1.0000
  C   C68       1.0  0.48911  0.03658  0.34133  1.0000
  H   H130      1.0  0.05431  0.21471  0.41323  1.0000
  H   H131      1.0  0.31450  0.07986  0.46904  1.0000
  C   C69       1.0  0.09428  0.12028  0.44534  1.0000
  H   H132      1.0  0.06294  0.22226  0.43489  1.0000
  H   H133      1.0  0.07391  0.21389  0.44285  1.0000
  H   H134      1.0  0.07315  0.21007  0.42978  1.0000
  H   H135      1.0  0.99607  0.21610  0.45981  1.0000
  H   H136      1.0  0.32936  0.08484  0.41991  1.0000
  H   H137      1.0  0.02771  0.12285  0.43387  1.0000
  C   C70       1.0  0.01328  0.11831  0.44871  1.0000
  C   C71       1.0  0.31816  0.08232  0.43748  1.0000
  C   C72       1.0  0.05822  0.13056  0.43767  1.0000
  C   C73       1.0  0.10294  0.13511  0.43012  1.0000
  H   H138      1.0  0.06701  0.13013  0.40164  1.0000
  H   H139      1.0  0.05187  0.13404  0.40106  1.0000
  C   C74       1.0  0.00558  0.16432  0.45319  1.0000
  H   H140      1.0  0.32774  0.05443  0.46968  1.0000
  C   C75       1.0  0.06963  0.10478  0.43934  1.0000
  C   C76       1.0  0.29382  0.04545  0.47294  1.0000
  H   H141      1.0  0.28602  0.01738  0.37118  1.0000
  H   H142      1.0  0.05820  0.11917  0.40711  1.0000
  H   H143      1.0  0.20543  0.99377  0.48078  1.0000
  C   C77       1.0  0.05436  0.13159  0.41866  1.0000
  H   H144      1.0  0.06908  0.09549  0.44084  1.0000
  C   C78       1.0  0.06264  0.11243  0.43001  1.0000
  H   H145      1.0  0.48499  0.03493  0.35088  1.0000
  C   C79       1.0  0.30434  0.07980  0.45656  1.0000
  C   C80       1.0  0.07491  0.12688  0.42130  1.0000
  H   H146      1.0  0.07593  0.14728  0.44473  1.0000
  H   H147      1.0  0.02003  0.22824  0.43348  1.0000
  H   H148      1.0  0.19033  0.03164  0.44870  1.0000
  C   C81       1.0  0.10029  0.22908  0.42177  1.0000
  H   H149      1.0  0.02107  0.11210  0.43205  1.0000
  N   N9        1.0  0.06253  0.12536  0.42690  1.0000
  C   C82       1.0  0.18790  0.99650  0.47833  1.0000
  H   H150      1.0  0.34505  0.99735  0.43745  1.0000
  S   S23       1.0  0.09221  0.15837  0.42512  1.0000
  H   H151      1.0  0.45746  0.99638  0.28379  1.0000
  S   S24       1.0  0.07048  0.18918  0.42223  1.0000
  C   C83       1.0  0.44868  0.02269  0.33784  1.0000
  C   C84       1.0  0.46459  0.00878  0.32844  1.0000
  C   C85       1.0  0.27965  0.06607  0.47975  1.0000
  H   H152      1.0  0.08545  0.13946  0.41057  1.0000
  S   S25       1.0  0.48209  0.99519  0.27259  1.0000
  C   C86       1.0  0.26790  0.03390  0.48671  1.0000
  C   C87       1.0  0.16779  0.03472  0.47022  1.0000
  S   S26       1.0  0.04256  0.18927  0.42517  1.0000
  H   H153      1.0  0.11268  0.15686  0.47247  1.0000
  C   C88       1.0  0.43062  0.99625  0.41513  1.0000
  C   C89       1.0  0.01399  0.16156  0.44321  1.0000
  H   H154      1.0  0.10756  0.22700  0.46032  1.0000
  H   H155      1.0  0.34196  0.02795  0.45530  1.0000
  H   H156      1.0  0.43032  0.05534  0.24705  1.0000
  H   H157      1.0  0.44034  0.02902  0.33788  1.0000
  H   H158      1.0  0.43005  0.01729  0.38177  1.0000
  C   C90       1.0  0.29012  0.01671  0.47608  1.0000
  Fe  Fe13      1.0  0.22332  0.00474  0.43590  1.0000
  H   H159      1.0  0.11318  0.20149  0.41849  1.0000
  H   H160      1.0  0.00294  0.20441  0.48371  1.0000
  H   H161      1.0  0.45839  0.04532  0.32784  1.0000
  S   S27       1.0  0.33956  0.04418  0.42981  1.0000
  Fe  Fe14      1.0  0.04867  0.16969  0.42720  1.0000
  H   H162      1.0  0.27101  0.01944  0.46872  1.0000
  C   C91       1.0  0.07393  0.23313  0.48233  1.0000
  C   C92       1.0  0.45054  0.00768  0.38540  1.0000
  S   S28       1.0  0.32328  0.99500  0.45701  1.0000
  H   H163      1.0  0.44193  0.00801  0.40817  1.0000
  Fe  Fe15      1.0  0.45819  0.03652  0.27380  1.0000
  H   H164      1.0  0.45967  0.02185  0.38073  1.0000
  H   H165      1.0  0.49205  0.05376  0.32042  1.0000
  H   H166      1.0  0.17151  0.00013  0.47309  1.0000
  C   C93       1.0  0.02881  0.22753  0.42741  1.0000
  Fe  Fe16      1.0  0.07391  0.08150  0.48785  1.0000
  H   H167      1.0  0.07445  0.18780  0.44346  1.0000
  C   C94       1.0  0.01825  0.20218  0.45539  1.0000
  C   C95       1.0  0.35653  0.00567  0.46587  1.0000
  C   C96       1.0  0.09287  0.14377  0.43300  1.0000
  H   H168      1.0  0.03873  0.15848  0.45255  1.0000
  H   H169      1.0  0.38972  0.00719  0.46271  1.0000
  H   H170      1.0  0.00483  0.19227  0.45751  1.0000
  C   C97       1.0  0.11342  0.05334  0.48093  1.0000
  H   H171      1.0  0.44911  0.99330  0.40686  1.0000
  S   S29       1.0  0.49546  0.03703  0.28480  1.0000
  C   C98       1.0  0.45575  0.00924  0.25474  1.0000
  H   H172      1.0  0.07070  0.14438  0.40945  1.0000
  C   C99       1.0  0.28595  0.00085  0.38430  1.0000
  H   H173      1.0  0.33007  0.06036  0.44698  1.0000
  C   C100      1.0  0.26057  0.00463  0.38801  1.0000
  H   H174      1.0  0.29019  0.07637  0.44420  1.0000
  H   H175      1.0  0.04549  0.12971  0.42256  1.0000
  H   H176      1.0  0.17675  0.04882  0.46441  1.0000
  S   S30       1.0  0.44656  0.02010  0.31706  1.0000
  H   H177      1.0  0.04079  0.07771  0.49123  1.0000
  H   H178      1.0  0.11916  0.05666  0.47282  1.0000
  H   H179      1.0  0.11131  0.11668  0.43377  1.0000
  H   H180      1.0  0.05283  0.14130  0.41729  1.0000
  Fe  Fe17      1.0  0.07400  0.16960  0.42490  1.0000
  H   H181      1.0  0.32310  0.08725  0.44006  1.0000
  C   C101      1.0  0.09730  0.21541  0.48449  1.0000
  C   C102      1.0  0.29698  0.99580  0.40539  1.0000
  H   H182      1.0  0.06658  0.10854  0.42211  1.0000
  H   H183      1.0  0.31078  0.08913  0.43423  1.0000
  H   H184      1.0  0.11329  0.02962  0.45719  1.0000
  H   H185      1.0  0.28730  0.02514  0.47012  1.0000
  H   H186      1.0  0.26435  0.02124  0.42845  1.0000
  H   H187      1.0  0.29333  0.01593  0.38277  1.0000
  C   C103      1.0  0.17556  0.04168  0.47231  1.0000
  H   H188      1.0  0.06592  0.10733  0.44791  1.0000
  H   H189      1.0  0.45400  0.99432  0.31437  1.0000
  H   H190      1.0  0.02848  0.20162  0.40261  1.0000
  C   C104      1.0  0.10358  0.12337  0.43619  1.0000
  C   C105      1.0  0.30884  0.08611  0.46321  1.0000
  S   S31       1.0  0.46102  0.04109  0.28933  1.0000
  H   H191      1.0  0.02043  0.23011  0.45910  1.0000
  S   S32       1.0  0.29857  0.01981  0.44281  1.0000
  Fe  Fe18      1.0  0.45812  0.02316  0.29896  1.0000
  H   H192      1.0  0.31268  0.06030  0.47086  1.0000
  H   H193      1.0  0.01970  0.23327  0.39053  1.0000
  H   H194      1.0  0.01557  0.19255  0.44410  1.0000
  H   H195      1.0  0.27120  0.06799  0.46571  1.0000
  H   H196      1.0  0.43513  0.00008  0.32312  1.0000
  C   C106      1.0  0.06838  0.23626  0.39613  1.0000
  H   H197      1.0  0.25601  0.02619  0.47453  1.0000
  H   H198      1.0  0.00078  0.13820  0.45779  1.0000
  H   H199      1.0  0.03144  0.21954  0.45151  1.0000
  C   C107      1.0  0.34483  0.03269  0.46016  1.0000
  C   C108      1.0  0.02707  0.22172  0.46018  1.0000
  H   H200      1.0  0.17019  0.04632  0.47947  1.0000
  C   C109      1.0  0.48484  0.05248  0.31729  1.0000
  H   H201      1.0  0.37987  0.00616  0.45480  1.0000
  C   C110      1.0  0.47014  0.00628  0.33781  1.0000
  C   C111      1.0  0.02950  0.16015  0.45268  1.0000
  H   H202      1.0  0.35328  0.00840  0.40318  1.0000
  H   H203      1.0  0.00742  0.22686  0.42388  1.0000
  C   C112      1.0  0.35373  0.03504  0.42933  1.0000
  C   C113      1.0  0.28378  0.00030  0.40531  1.0000
  H   H204      1.0  0.11638  0.03393  0.46891  1.0000
  C   C114      1.0  0.35728  0.02668  0.46222  1.0000
  C   C115      1.0  0.08785  0.13685  0.47424  1.0000
  H   H205      1.0  0.00069  0.09071  0.48039  1.0000
  H   H206      1.0  0.42209  0.99462  0.32953  1.0000
  H   H207      1.0  0.03704  0.23456  0.40966  1.0000
  C   C116      1.0  0.09808  0.22935  0.46466  1.0000
  H   H208      1.0  0.41033  0.01466  0.39996  1.0000
  C   C117      1.0  0.10891  0.20653  0.48106  1.0000
  C   C118      1.0  0.32069  0.05673  0.46475  1.0000
  H   H209      1.0  0.16040  0.04099  0.46653  1.0000
  H   H210      1.0  0.09997  0.01953  0.47179  1.0000
  N   N10       1.0  0.35881  0.01484  0.47061  1.0000
  H   H211      1.0  0.07789  0.15610  0.48338  1.0000
  H   H212      1.0  0.34207  0.00639  0.45811  1.0000
  C   C119      1.0  0.20487  0.99938  0.46245  1.0000
  C   C120      1.0  0.34352  0.00572  0.46691  1.0000
  H   H213      1.0  0.09487  0.23874  0.46052  1.0000
  H   H214      1.0  0.11604  0.20822  0.42871  1.0000
  C   C121      1.0  0.10675  0.23179  0.47956  1.0000
  H   H215      1.0  0.38145  0.02035  0.45535  1.0000
  C   C122      1.0  0.00596  0.13648  0.48501  1.0000
  H   H216      1.0  0.09589  0.14712  0.45360  1.0000
  Fe  Fe19      1.0  0.47974  0.03168  0.28365  1.0000
  H   H217      1.0  0.00144  0.15250  0.49082  1.0000
  H   H218      1.0  0.09615  0.16643  0.44744  1.0000
  H   H219      1.0  0.09018  0.21185  0.48382  1.0000
  S   S33       1.0  0.09274  0.19090  0.47283  1.0000
  H   H220      1.0  0.16373  0.02934  0.47855  1.0000
  H   H221      1.0  0.28276  0.99862  0.37768  1.0000
  C   C123      1.0  0.02178  0.21165  0.46898  1.0000
  C   C124      1.0  0.01010  0.19793  0.45060  1.0000
  C   C125      1.0  0.35120  0.01594  0.48262  1.0000
  C   C126      1.0  0.37668  0.02105  0.42847  1.0000
  H   H222      1.0  0.01960  0.09065  0.46554  1.0000
  C   C127      1.0  0.07199  0.23234  0.38561  1.0000
  H   H223      1.0  0.28191  0.01000  0.40384  1.0000
  C   C128      1.0  0.02792  0.23440  0.41481  1.0000
  H   H224      1.0  0.44960  0.01674  0.25044  1.0000
  H   H225      1.0  0.33820  0.03402  0.46832  1.0000
  H   H226      1.0  0.12727  0.03251  0.45582  1.0000
  C   C129      1.0  0.11036  0.20315  0.42750  1.0000
  H   H227      1.0  0.22411  0.03657  0.47078  1.0000
  N   N11       1.0  0.09323  0.22052  0.42216  1.0000
  C   C130      1.0  0.02360  0.11527  0.43844  1.0000
  S   S34       1.0  0.04944  0.19648  0.45159  1.0000
  C   C131      1.0  0.18577  0.00287  0.45812  1.0000
  H   H228      1.0  0.31607  0.99781  0.48046  1.0000
  H   H229      1.0  0.34181  0.01948  0.48248  1.0000
  H   H230      1.0  0.28548  0.01880  0.42747  1.0000
  C   C132      1.0  0.02109  0.16298  0.46264  1.0000
  H   H231      1.0  0.07641  0.23167  0.41931  1.0000
  H   H232      1.0  0.10894  0.14308  0.45888  1.0000
  H   H233      1.0  0.99900  0.19820  0.47429  1.0000
  S   S35       1.0  0.28340  0.04846  0.45480  1.0000
  H   H234      1.0  0.49194  0.04497  0.33906  1.0000
  C   C133      1.0  0.07298  0.19061  0.45148  1.0000
  H   H235      1.0  0.02935  0.20402  0.47014  1.0000
  C   C134      1.0  0.27261  0.03510  0.40000  1.0000
  H   H236      1.0  0.02263  0.20810  0.44777  1.0000
  C   C135      1.0  0.28516  0.05239  0.46687  1.0000
  H   H237      1.0  0.09145  0.18691  0.45117  1.0000
  C   C136      1.0  0.47479  0.03776  0.31621  1.0000
  C   C137      1.0  0.12005  0.02862  0.46211  1.0000
  C   C138      1.0  0.27796  0.06263  0.47036  1.0000
  H   H238      1.0  0.33689  0.01291  0.47048  1.0000
  H   H239      1.0  0.09249  0.20892  0.39896  1.0000
  H   H240      1.0  0.29978  0.01523  0.47491  1.0000
  H   H241      1.0  0.09977  0.22987  0.43084  1.0000
  C   C139      1.0  0.10017  0.14929  0.45941  1.0000
  H   H242      1.0  0.11188  0.19446  0.43366  1.0000
  H   H243      1.0  0.48571  0.00416  0.24656  1.0000
  H   H244      1.0  0.21406  0.99962  0.45961  1.0000
  C   C140      1.0  0.10221  0.16179  0.45347  1.0000
  H   H245      1.0  0.41723  0.99973  0.39981  1.0000
  H   H246      1.0  0.41387  0.00983  0.38662  1.0000
  H   H247      1.0  0.06648  0.23923  0.48683  1.0000
  H   H248      1.0  0.01845  0.21414  0.47767  1.0000
  C   C141      1.0  0.46246  0.04598  0.31836  1.0000
  S   S36       1.0  0.20380  0.00695  0.43923  1.0000
  S   S37       1.0  0.25096  0.03032  0.41028  1.0000
  C   C142      1.0  0.09053  0.20902  0.40844  1.0000
  H   H249      1.0  0.29934  0.03751  0.47040  1.0000
  H   H250      1.0  0.03050  0.10808  0.44206  1.0000
  H   H251      1.0  0.08467  0.21862  0.46755  1.0000
  Fe  Fe20      1.0  0.24284  0.00073  0.44824  1.0000
  H   H252      1.0  0.01612  0.21301  0.39931  1.0000
  C   C143      1.0  0.44099  0.00027  0.40566  1.0000
  H   H253      1.0  0.07758  0.16136  0.45699  1.0000
  C   C144      1.0  0.09534  0.21883  0.40983  1.0000
  S   S38       1.0  0.07377  0.08505  0.46878  1.0000
  C   C145      1.0  0.06153  0.19492  0.45743  1.0000
  H   H254      1.0  0.09466  0.20017  0.41297  1.0000
  H   H255      1.0  0.02389  0.16366  0.47006  1.0000
  H   H256      1.0  0.33934  0.99650  0.42069  1.0000
  C   C146      1.0  0.19333  0.04221  0.47794  1.0000
  H   H257      1.0  0.42268  0.00353  0.41588  1.0000
  H   H258      1.0  0.09862  0.06796  0.47826  1.0000
  H   H259      1.0  0.26297  0.01243  0.38141  1.0000
  H   H260      1.0  0.46256  0.05526  0.31392  1.0000
  C   C147      1.0  0.18080  0.99988  0.47016  1.0000
  S   S39       1.0  0.04104  0.09633  0.46542  1.0000
  S   S40       1.0  0.23109  0.01713  0.44030  1.0000
  C   C148      1.0  0.22717  0.02756  0.47511  1.0000
  H   H261      1.0  0.26905  0.03954  0.39229  1.0000
  C   C149      1.0  0.35556  0.02274  0.43250  1.0000
  S   S41       1.0  0.23563  0.00435  0.41827  1.0000
  H   H262      1.0  0.00421  0.20539  0.44592  1.0000
  H   H263      1.0  0.06736  0.16914  0.46761  1.0000
  H   H264      1.0  0.10491  0.21707  0.40571  1.0000
  S   S42       1.0  0.30450  0.02518  0.40816  1.0000
  H   H265      1.0  0.09138  0.22702  0.40408  1.0000
  Fe  Fe21      1.0  0.29949  0.03659  0.44635  1.0000
  C   C150      1.0  0.00755  0.09387  0.48177  1.0000
  H   H266      1.0  0.00261  0.14085  0.47691  1.0000
  H   H267      1.0  0.11494  0.00915  0.45378  1.0000
  H   H268      1.0  0.08088  0.21068  0.41141  1.0000
  H   H269      1.0  0.00679  0.22454  0.45350  1.0000
  C   C151      1.0  0.26536  0.03030  0.41035  1.0000
  C   C152      1.0  0.08262  0.19003  0.45589  1.0000
  H   H270      1.0  0.30269  0.99869  0.39676  1.0000
  C   C153      1.0  0.19492  0.02820  0.46579  1.0000
  Fe  Fe22      1.0  0.05568  0.09626  0.47350  1.0000
  C   C154      1.0  0.46504  0.01215  0.34709  1.0000
  H   H271      1.0  0.45004  0.99552  0.25126  1.0000
  S   S43       1.0  0.06196  0.11266  0.47035  1.0000
  H   H272      1.0  0.01790  0.18278  0.47386  1.0000
  H   H273      1.0  0.11118  0.16104  0.44774  1.0000
  H   H274      1.0  0.37336  0.00216  0.47730  1.0000
  H   H275      1.0  0.12934  0.01149  0.45951  1.0000
  H   H276      1.0  0.25998  0.01124  0.47342  1.0000
  C   C155      1.0  0.00314  0.21880  0.46185  1.0000
  C   C156      1.0  0.48001  0.03701  0.33449  1.0000
  H   H277      1.0  0.11156  0.20700  0.47147  1.0000
  H   H278      1.0  0.28862  0.00942  0.47332  1.0000
  Fe  Fe23      1.0  0.47306  0.01191  0.27874  1.0000
  H   H279      1.0  0.46855  0.00428  0.32127  1.0000
  C   C157      1.0  0.28575  0.01413  0.38073  1.0000
  H   H280      1.0  0.10158  0.16733  0.45953  1.0000
  H   H281      1.0  0.17269  0.02900  0.46391  1.0000
  H   H282      1.0  0.37311  0.01698  0.47668  1.0000
  C   C158      1.0  0.09192  0.22193  0.46085  1.0000
  H   H283      1.0  0.36096  0.00639  0.45644  1.0000
  Fe  Fe24      1.0  0.39423  0.99385  0.43723  1.0000
  H   H284      1.0  0.29026  0.03712  0.39130  1.0000
  H   H285      1.0  0.07943  0.23172  0.43267  1.0000
  C   C159      1.0  0.23801  0.00756  0.47402  1.0000
  C   C160      1.0  0.28460  0.03370  0.39943  1.0000
  H   H286      1.0  0.08240  0.13797  0.46790  1.0000
  H   H287      1.0  0.08550  0.16598  0.47262  1.0000
  H   H288      1.0  0.19186  0.02024  0.46651  1.0000
  C   C161      1.0  0.19680  0.05247  0.46799  1.0000
  S   S44       1.0  0.32641  0.01813  0.42846  1.0000
  H   H289      1.0  0.07717  0.23709  0.37795  1.0000
  C   C162      1.0  0.06937  0.19707  0.47277  1.0000
  C   C163      1.0  0.26998  0.02468  0.42034  1.0000
  H   H290      1.0  0.36852  0.00629  0.43429  1.0000
  C   C164      1.0  0.02530  0.21131  0.40012  1.0000
  C   C165      1.0  0.02661  0.21688  0.40950  1.0000
  S   S45       1.0  0.39121  0.01275  0.42768  1.0000
  C   C166      1.0  0.26301  0.01804  0.47551  1.0000
  S   S46       1.0  0.47211  0.00933  0.35864  1.0000
  C   C167      1.0  0.01823  0.09388  0.47337  1.0000
  H   H291      1.0  0.35129  0.00903  0.41794  1.0000
  C   C168      1.0  0.36706  0.01574  0.43204  1.0000
  H   H292      1.0  0.18028  0.00547  0.45179  1.0000
  H   H293      1.0  0.09846  0.21439  0.45763  1.0000
  H   H294      1.0  0.23645  0.02192  0.45900  1.0000
  H   H295      1.0  0.29905  0.07383  0.46320  1.0000
  H   H296      1.0  0.09819  0.24186  0.40504  1.0000
  H   H297      1.0  0.47746  0.02844  0.33763  1.0000
  C   C169      1.0  0.07348  0.16059  0.46648  1.0000
  S   S47       1.0  0.31645  0.02898  0.45239  1.0000
  H   H298      1.0  0.18793  0.04594  0.48569  1.0000
  Fe  Fe25      1.0  0.24456  0.01522  0.42360  1.0000
  C   C170      1.0  0.28930  0.02783  0.40933  1.0000
  C   C171      1.0  0.23400  0.01923  0.46843  1.0000
  H   H299      1.0  0.44995  0.01029  0.37602  1.0000
  C   C172      1.0  0.05975  0.19813  0.46808  1.0000
  H   H300      1.0  0.05868  0.23305  0.41410  1.0000
  H   H301      1.0  0.08804  0.22741  0.45329  1.0000
  N   N12       1.0  0.01244  0.20821  0.46556  1.0000
  S   S48       1.0  0.47725  0.02876  0.26720  1.0000
  H   H302      1.0  0.20412  0.02501  0.46706  1.0000
  H   H303      1.0  0.20173  0.03697  0.48034  1.0000
  C   C173      1.0  0.02729  0.09756  0.47534  1.0000
  H   H304      1.0  0.10977  0.22595  0.41792  1.0000
  C   C174      1.0  0.08266  0.15773  0.47399  1.0000
  H   H305      1.0  0.45873  0.00061  0.38579  1.0000
  H   H306      1.0  0.13263  0.01525  0.47096  1.0000
  H   H307      1.0  0.12103  0.01438  0.48968  1.0000
  C   C175      1.0  0.00592  0.13731  0.43592  1.0000
  H   H308      1.0  0.25085  0.00691  0.39118  1.0000
  H   H309      1.0  0.43194  0.00034  0.37438  1.0000
  H   H310      1.0  0.46654  0.03873  0.24711  1.0000
  C   C176      1.0  0.00913  0.16566  0.46263  1.0000
  H   H311      1.0  0.30734  0.99578  0.44281  1.0000
  C   C177      1.0  0.08081  0.19308  0.46662  1.0000
  H   H312      1.0  0.27014  0.03566  0.47698  1.0000
  H   H313      1.0  0.27755  0.01940  0.38523  1.0000
  H   H314      1.0  0.34812  0.01867  0.43533  1.0000
  H   H315      1.0  0.03097  0.21423  0.39143  1.0000
  N   N13       1.0  0.02148  0.22991  0.40862  1.0000
  N   N14       1.0  0.09291  0.14750  0.47184  1.0000
  S   S49       1.0  0.24677  0.99697  0.46599  1.0000
  Fe  Fe26      1.0  0.30852  0.02638  0.42465  1.0000
  H   H316      1.0  0.01554  0.13625  0.48262  1.0000
  H   H317      1.0  0.36282  0.02603  0.45331  1.0000
  H   H318      1.0  0.47341  0.02871  0.31995  1.0000
  C   C178      1.0  0.44818  0.04702  0.24851  1.0000
  H   H319      1.0  0.20382  0.04922  0.46077  1.0000
  N   N15       1.0  0.27946  0.99668  0.39665  1.0000
  H   H320      1.0  0.36066  0.99669  0.47027  1.0000
  H   H321      1.0  0.20232  0.01417  0.48560  1.0000
  H   H322      1.0  0.03626  0.21486  0.40884  1.0000
  H   H323      1.0  0.01088  0.10991  0.45398  1.0000
  H   H324      1.0  0.10769  0.19748  0.48543  1.0000
  C   C179      1.0  0.02360  0.23641  0.39594  1.0000
  H   H325      1.0  0.03408  0.23151  0.43069  1.0000
  C   C180      1.0  0.00665  0.20013  0.47606  1.0000
  C   C181      1.0  0.49559  0.03209  0.31716  1.0000
  H   H326      1.0  0.34505  0.04155  0.45442  1.0000
  C   C182      1.0  0.01465  0.18828  0.48050  1.0000
  H   H327      1.0  0.47672  0.05838  0.32126  1.0000
  H   H328      1.0  0.36028  0.03298  0.46520  1.0000
  C   C183      1.0  0.00864  0.23218  0.41472  1.0000
  H   H329      1.0  0.09204  0.11830  0.47399  1.0000
  C   C184      1.0  0.19994  0.99620  0.47447  1.0000
  C   C185      1.0  0.10550  0.01042  0.47217  1.0000
  C   C186      1.0  0.45275  0.01847  0.38804  1.0000
  H   H330      1.0  0.48074  0.05673  0.29966  1.0000
  C   C187      1.0  0.12515  0.01559  0.46720  1.0000
  H   H331      1.0  0.05275  0.07098  0.47374  1.0000
  H   H332      1.0  0.47845  0.99993  0.33777  1.0000
  H   H333      1.0  0.07288  0.23511  0.47316  1.0000
  C   C188      1.0  0.43958  0.99343  0.37680  1.0000
  H   H334      1.0  0.45134  0.00726  0.26417  1.0000
  C   C189      1.0  0.00009  0.22940  0.40918  1.0000
  H   H335      1.0  0.26268  0.99722  0.38364  1.0000
  H   H336      1.0  0.29534  0.99605  0.38289  1.0000
  H   H337      1.0  0.10356  0.12539  0.46529  1.0000
  H   H338      1.0  0.11541  0.22681  0.47539  1.0000
  C   C190      1.0  0.09665  0.24167  0.41453  1.0000
  C   C191      1.0  0.35490  0.00295  0.41182  1.0000
  H   H339      1.0  0.44778  0.99524  0.37047  1.0000
  H   H340      1.0  0.00523  0.24137  0.41604  1.0000
  C   C192      1.0  0.48743  0.05738  0.30388  1.0000
  C   C193      1.0  0.09679  0.12500  0.47363  1.0000
  H   H341      1.0  0.10810  0.02348  0.48519  1.0000
  H   H342      1.0  0.09915  0.16324  0.48195  1.0000
  H   H343      1.0  0.06793  0.19932  0.48115  1.0000
  H   H344      1.0  0.00943  0.18329  0.48835  1.0000
  H   H345      1.0  0.03155  0.23043  0.48181  1.0000
  S   S50       1.0  0.13219  0.03459  0.48382  1.0000
  H   H346      1.0  0.29890  0.99964  0.41175  1.0000
  H   H347      1.0  0.24869  0.03485  0.49062  1.0000
  H   H348      1.0  0.11611  0.20772  0.48422  1.0000
  C   C194      1.0  0.99865  0.11672  0.43164  1.0000
  H   H349      1.0  0.04916  0.23001  0.48840  1.0000
  H   H350      1.0  0.27883  0.99742  0.41443  1.0000
  C   C195      1.0  0.08544  0.23567  0.48281  1.0000
  N   N16       1.0  0.00246  0.12730  0.44570  1.0000
  C   C196      1.0  0.18425  0.02541  0.48643  1.0000
  H   H351      1.0  0.00230  0.23136  0.39949  1.0000
  C   C197      1.0  0.12233  0.99614  0.47972  1.0000
  C   C198      1.0  0.29529  0.04869  0.48248  1.0000
  C   C199      1.0  0.99684  0.22646  0.47102  1.0000
  H   H352      1.0  0.99936  0.22010  0.41262  1.0000
  H   H353      1.0  0.18922  0.05861  0.46461  1.0000
  C   C200      1.0  0.03532  0.22249  0.48791  1.0000
  H   H354      1.0  0.27421  0.07407  0.48237  1.0000
  H   H355      1.0  0.00503  0.12725  0.48785  1.0000
  C   C201      1.0  0.10582  0.15509  0.48055  1.0000
  N   N17       1.0  0.18711  0.03449  0.47528  1.0000
  H   H356      1.0  0.10714  0.99765  0.46175  1.0000
  H   H357      1.0  0.10805  0.13752  0.47920  1.0000
  S   S51       1.0  0.99875  0.17204  0.47365  1.0000
  H   H358      1.0  0.05878  0.06290  0.48612  1.0000
  C   C202      1.0  0.10045  0.14506  0.48057  1.0000
  C   C203      1.0  0.05117  0.06441  0.48213  1.0000
  H   H359      1.0  0.03323  0.23463  0.39191  1.0000
  H   H360      1.0  0.99925  0.15396  0.42476  1.0000
  H   H361      1.0  0.07303  0.22408  0.48690  1.0000
  H   H362      1.0  0.03266  0.07242  0.48476  1.0000
  H   H363      1.0  0.09971  0.00490  0.47875  1.0000
  H   H364      1.0  0.20067  0.05766  0.47150  1.0000
  H   H365      1.0  0.10100  0.12174  0.48128  1.0000
  H   H366      1.0  0.49078  0.01600  0.31686  1.0000
  C   C204      1.0  0.23540  0.00436  0.48626  1.0000
  H   H367      1.0  0.12777  0.99487  0.48615  1.0000
  S   S52       1.0  0.08158  0.09683  0.48616  1.0000
  H   H368      1.0  0.25296  0.04862  0.48410  1.0000
  C   C205      1.0  0.22460  0.02427  0.48739  1.0000
  C   C206      1.0  0.11306  0.01418  0.48701  1.0000
  C   C207      1.0  0.48448  0.99759  0.24249  1.0000
  C   C208      1.0  0.26498  0.01384  0.48820  1.0000
  H   H369      1.0  0.10672  0.22982  0.48910  1.0000
  H   H370      1.0  0.18021  0.01902  0.48485  1.0000
  H   H371      1.0  0.11029  0.15228  0.48802  1.0000
  H   H372      1.0  0.49392  0.01564  0.33069  1.0000
  H   H373      1.0  0.30208  0.04330  0.48704  1.0000
  C   C209      1.0  0.11767  0.04270  0.48828  1.0000
  C   C210      1.0  0.03954  0.06951  0.49003  1.0000
  Fe  Fe27      1.0  0.06283  0.10709  0.48932  1.0000
  C   C211      1.0  0.31195  0.99504  0.48958  1.0000
  H   H374      1.0  0.26995  0.00453  0.48921  1.0000
  H   H375      1.0  0.34948  0.99751  0.48958  1.0000
  C   C212      1.0  0.43895  0.05126  0.24260  1.0000
  H   H376      1.0  0.09532  0.14243  0.48963  1.0000
  S   S53       1.0  0.14836  0.00132  0.48888  1.0000
  C   C213      1.0  0.28423  0.01663  0.48909  1.0000
  H   H377      1.0  0.27320  0.03867  0.48905  1.0000
  C   C214      1.0  0.25487  0.04011  0.49043  1.0000
  H   H378      1.0  0.23827  0.99537  0.49065  1.0000
  C   C215      1.0  0.45550  0.00365  0.70854  1.0000
  H   H379      1.0  0.44650  0.00198  0.66479  1.0000
  H   H380      1.0  0.09269  0.04148  0.50979  1.0000
  C   C216      1.0  0.16449  0.01230  0.55578  1.0000
  H   H381      1.0  0.43791  0.00347  0.67907  1.0000
  H   H382      1.0  0.02881  0.22142  0.53147  1.0000
  S   S54       1.0  0.44681  0.01234  0.63922  1.0000
  C   C217      1.0  0.30031  0.99390  0.56780  1.0000
  H   H383      1.0  0.44265  0.99626  0.70578  1.0000
  S   S55       1.0  0.45871  0.00092  0.60904  1.0000
  S   S56       1.0  0.28558  0.02179  0.54564  1.0000
  H   H384      1.0  0.23787  0.01666  0.56373  1.0000
  H   H385      1.0  0.08505  0.23542  0.49211  1.0000
  Fe  Fe28      1.0  0.47506  0.04706  0.68803  1.0000
  S   S57       1.0  0.47353  0.03247  0.70395  1.0000
  S   S58       1.0  0.47235  0.06572  0.68944  1.0000
  Fe  Fe29      1.0  0.48058  0.03100  0.67097  1.0000
  S   S59       1.0  0.47977  0.01512  0.68547  1.0000
  S   S60       1.0  0.48605  0.02786  0.65257  1.0000
  Fe  Fe30      1.0  0.46375  0.02649  0.69453  1.0000
  S   S61       1.0  0.44852  0.01817  0.70374  1.0000
  Fe  Fe31      1.0  0.48963  0.02251  0.69349  1.0000
  H   H386      1.0  0.33535  0.99556  0.57829  1.0000
  S   S62       1.0  0.46370  0.04195  0.67939  1.0000
  S   S63       1.0  0.49197  0.03757  0.67813  1.0000
  Fe  Fe32      1.0  0.08319  0.16299  0.51098  1.0000
  C   C218      1.0  0.09422  0.05547  0.49438  1.0000
  S   S64       1.0  0.08787  0.14323  0.51399  1.0000
  Fe  Fe33      1.0  0.08705  0.18419  0.51667  1.0000
  C   C219      1.0  0.04426  0.23484  0.50932  1.0000
  S   S65       1.0  0.09601  0.19036  0.52681  1.0000
  Fe  Fe34      1.0  0.06392  0.18508  0.51160  1.0000
  S   S66       1.0  0.04454  0.19318  0.51487  1.0000
  H   H387      1.0  0.48396  0.03555  0.73433  1.0000
  H   H388      1.0  0.16637  0.01072  0.52385  1.0000
  S   S67       1.0  0.07377  0.17311  0.52514  1.0000
  C   C220      1.0  0.44423  0.99710  0.67396  1.0000
  H   H389      1.0  0.01387  0.10401  0.50212  1.0000
  H   H390      1.0  0.01051  0.13079  0.55613  1.0000
  H   H391      1.0  0.00207  0.12154  0.50936  1.0000
  H   H392      1.0  0.99642  0.24154  0.51042  1.0000
  S   S68       1.0  0.07645  0.19706  0.50423  1.0000
  H   H393      1.0  0.02443  0.05591  0.49424  1.0000
  C   C221      1.0  0.16583  0.01122  0.53274  1.0000
  C   C222      1.0  0.10534  0.00788  0.49802  1.0000
  S   S69       1.0  0.29525  0.03023  0.51136  1.0000
  H   H394      1.0  0.01179  0.14421  0.53858  1.0000
  H   H395      1.0  0.30867  0.00062  0.51637  1.0000
  N   N18       1.0  0.17026  0.05087  0.53301  1.0000
  H   H396      1.0  0.16704  0.03670  0.54803  1.0000
  H   H397      1.0  0.14580  0.03900  0.54936  1.0000
  H   H398      1.0  0.30733  0.03465  0.55072  1.0000
  H   H399      1.0  0.14669  0.01040  0.55934  1.0000
  Fe  Fe35      1.0  0.45147  0.99852  0.62850  1.0000
  H   H400      1.0  0.06545  0.22498  0.53845  1.0000
  H   H401      1.0  0.24313  0.00671  0.57595  1.0000
  H   H402      1.0  0.41732  0.99969  0.73632  1.0000
  C   C223      1.0  0.48757  0.02813  0.72983  1.0000
  H   H403      1.0  0.08188  0.18420  0.55383  1.0000
  S   S70       1.0  0.22021  0.00993  0.54590  1.0000
  H   H404      1.0  0.10981  0.99866  0.50123  1.0000
  H   H405      1.0  0.02019  0.06345  0.51620  1.0000
  S   S71       1.0  0.33610  0.04157  0.52274  1.0000
  C   C224      1.0  0.15538  0.01042  0.54126  1.0000
  H   H406      1.0  0.43487  0.01435  0.73446  1.0000
  H   H407      1.0  0.03199  0.04037  0.51701  1.0000
  H   H408      1.0  0.17043  0.06661  0.51929  1.0000
  H   H409      1.0  0.47937  0.05237  0.63996  1.0000
  H   H410      1.0  0.19185  0.01041  0.49886  1.0000
  Fe  Fe36      1.0  0.29851  0.02772  0.52919  1.0000
  H   H411      1.0  0.01300  0.11666  0.52896  1.0000
  C   C225      1.0  0.07078  0.22168  0.54522  1.0000
  H   H412      1.0  0.27372  0.02050  0.52863  1.0000
  Fe  Fe37      1.0  0.22825  0.00333  0.52930  1.0000
  H   H413      1.0  0.18313  0.06346  0.54760  1.0000
  C   C226      1.0  0.34295  0.03242  0.53397  1.0000
  H   H414      1.0  0.25760  0.02249  0.50794  1.0000
  H   H415      1.0  0.04959  0.24069  0.50253  1.0000
  H   H416      1.0  0.23456  0.99761  0.56505  1.0000
  H   H417      1.0  0.45248  0.06088  0.64276  1.0000
  C   C227      1.0  0.11015  0.03851  0.49874  1.0000
  C   C228      1.0  0.45998  0.07614  0.65036  1.0000
  H   H418      1.0  0.06715  0.22697  0.55208  1.0000
  H   H419      1.0  0.17921  0.05261  0.50743  1.0000
  H   H420      1.0  0.29464  0.00172  0.56330  1.0000
  H   H421      1.0  0.15412  0.03556  0.53576  1.0000
  S   S72       1.0  0.21128  0.00843  0.52331  1.0000
  H   H422      1.0  0.15842  0.05033  0.55035  1.0000
  H   H423      1.0  0.07809  0.20383  0.54383  1.0000
  Fe  Fe38      1.0  0.32117  0.03632  0.51963  1.0000
  Fe  Fe39      1.0  0.21692  0.02547  0.51453  1.0000
  Fe  Fe40      1.0  0.37837  0.99359  0.55528  1.0000
  H   H424      1.0  0.26818  0.00024  0.50923  1.0000
  C   C229      1.0  0.25527  0.02800  0.53481  1.0000
  C   C230      1.0  0.04255  0.22534  0.49491  1.0000
  H   H425      1.0  0.34619  0.99502  0.56501  1.0000
  C   C231      1.0  0.05530  0.20625  0.54400  1.0000
  S   S73       1.0  0.29092  0.06342  0.49719  1.0000
  C   C232      1.0  0.09557  0.20541  0.52162  1.0000
  C   C233      1.0  0.08528  0.21317  0.51890  1.0000
  C   C234      1.0  0.08484  0.22523  0.51496  1.0000
  C   C235      1.0  0.09479  0.22956  0.51337  1.0000
  C   C236      1.0  0.10516  0.22176  0.51590  1.0000
  C   C237      1.0  0.10548  0.20972  0.52025  1.0000
  H   H426      1.0  0.07760  0.20991  0.52003  1.0000
  H   H427      1.0  0.07691  0.23108  0.51280  1.0000
  H   H428      1.0  0.11291  0.22505  0.51465  1.0000
  H   H429      1.0  0.11347  0.20373  0.52236  1.0000
  H   H430      1.0  0.47339  0.99755  0.73665  1.0000
  H   H431      1.0  0.47390  0.99832  0.55712  1.0000
  H   H432      1.0  0.15627  0.07939  0.52892  1.0000
  C   C238      1.0  0.48078  0.08651  0.63417  1.0000
  H   H433      1.0  0.34328  0.01614  0.52993  1.0000
  C   C239      1.0  0.01235  0.24229  0.55171  1.0000
  H   H434      1.0  0.33120  0.01285  0.56214  1.0000
  H   H435      1.0  0.16865  0.06108  0.55264  1.0000
  C   C240      1.0  0.47082  0.05704  0.64470  1.0000
  H   H436      1.0  0.39255  0.03103  0.52928  1.0000
  C   C241      1.0  0.07857  0.13719  0.50981  1.0000
  C   C242      1.0  0.06807  0.14417  0.50683  1.0000
  C   C243      1.0  0.06091  0.13937  0.50314  1.0000
  C   C244      1.0  0.06401  0.12745  0.50275  1.0000
  C   C245      1.0  0.07457  0.12045  0.50559  1.0000
  C   C246      1.0  0.08185  0.12533  0.50911  1.0000
  H   H437      1.0  0.06531  0.15322  0.50762  1.0000
  C   C247      1.0  0.33686  0.99464  0.56913  1.0000
  H   H438      1.0  0.07701  0.11122  0.50534  1.0000
  H   H439      1.0  0.08999  0.11988  0.51138  1.0000
  H   H440      1.0  0.46213  0.04872  0.63701  1.0000
  C   C248      1.0  0.31315  0.00014  0.49801  1.0000
  C   C249      1.0  0.27030  0.00682  0.51255  1.0000
  H   H441      1.0  0.25305  0.04217  0.49921  1.0000
  H   H442      1.0  0.03439  0.21155  0.56219  1.0000
  H   H443      1.0  0.41742  0.00478  0.58076  1.0000
  S   S74       1.0  0.14288  0.00873  0.53799  1.0000
  S   S75       1.0  0.23450  0.01966  0.51925  1.0000
  H   H444      1.0  0.26317  0.00308  0.54483  1.0000
  H   H445      1.0  0.19750  0.02301  0.49659  1.0000
  C   C250      1.0  0.02386  0.18631  0.52586  1.0000
  C   C251      1.0  0.03599  0.18379  0.52515  1.0000
  C   C252      1.0  0.04112  0.17390  0.53270  1.0000
  H   H446      1.0  0.01986  0.19389  0.51998  1.0000
  H   H447      1.0  0.05043  0.17185  0.53221  1.0000
  C   C253      1.0  0.05287  0.22392  0.51458  1.0000
  H   H448      1.0  0.36158  0.04876  0.50734  1.0000
  C   C254      1.0  0.01693  0.17889  0.53402  1.0000
  H   H449      1.0  0.05290  0.14492  0.50069  1.0000
  H   H450      1.0  0.45276  0.06132  0.66277  1.0000
  H   H451      1.0  0.45458  0.07933  0.64358  1.0000
  H   H452      1.0  0.26531  0.03424  0.55963  1.0000
  H   H453      1.0  0.32369  0.01553  0.58064  1.0000
  H   H454      1.0  0.99866  0.20666  0.51886  1.0000
  C   C255      1.0  0.04489  0.05708  0.50875  1.0000
  H   H455      1.0  0.39392  0.01784  0.54002  1.0000
  C   C256      1.0  0.49465  0.99583  0.60889  1.0000
  H   H456      1.0  0.46992  0.00841  0.71164  1.0000
  H   H457      1.0  0.00328  0.21680  0.50534  1.0000
  S   S76       1.0  0.05419  0.12140  0.49942  1.0000
  H   H458      1.0  0.35609  0.03476  0.55422  1.0000
  C   C257      1.0  0.17656  0.04184  0.52557  1.0000
  H   H459      1.0  0.24430  0.04047  0.55862  1.0000
  H   H460      1.0  0.04338  0.20117  0.53686  1.0000
  C   C258      1.0  0.45790  0.01689  0.64236  1.0000
  C   C259      1.0  0.45490  0.02269  0.65164  1.0000
  C   C260      1.0  0.46354  0.02590  0.65488  1.0000
  C   C261      1.0  0.47521  0.02369  0.64861  1.0000
  C   C262      1.0  0.47822  0.01812  0.63914  1.0000
  C   C263      1.0  0.46960  0.01457  0.63612  1.0000
  H   H461      1.0  0.44586  0.02450  0.65650  1.0000
  H   H462      1.0  0.46111  0.03015  0.66220  1.0000
  H   H463      1.0  0.48724  0.01640  0.63422  1.0000
  H   H464      1.0  0.47200  0.01011  0.62893  1.0000
  C   C264      1.0  0.47399  0.07215  0.72442  1.0000
  C   C265      1.0  0.46746  0.08066  0.71685  1.0000
  C   C266      1.0  0.46711  0.07857  0.70619  1.0000
  C   C267      1.0  0.47310  0.06784  0.70302  1.0000
  C   C268      1.0  0.47971  0.05926  0.71055  1.0000
  C   C269      1.0  0.48025  0.06147  0.72119  1.0000
  H   H465      1.0  0.46266  0.08895  0.71922  1.0000
  H   H466      1.0  0.46206  0.08527  0.70042  1.0000
  H   H467      1.0  0.48464  0.05109  0.70800  1.0000
  H   H468      1.0  0.03859  0.04684  0.49356  1.0000
  H   H469      1.0  0.30806  0.01390  0.55111  1.0000
  C   C270      1.0  0.99821  0.21609  0.51458  1.0000
  H   H470      1.0  0.02126  0.12259  0.51455  1.0000
  C   C271      1.0  0.46157  0.05771  0.63795  1.0000
  H   H471      1.0  0.46735  0.01219  0.58304  1.0000
  H   H472      1.0  0.46640  0.02343  0.73284  1.0000
  H   H473      1.0  0.07972  0.22327  0.54091  1.0000
  C   C272      1.0  0.17495  0.01307  0.54735  1.0000
  C   C273      1.0  0.03416  0.16663  0.54103  1.0000
  C   C274      1.0  0.02206  0.16909  0.54170  1.0000
  H   H474      1.0  0.40865  0.01723  0.51601  1.0000
  S   S77       1.0  0.09760  0.17289  0.50383  1.0000
  C   C275      1.0  0.16207  0.04512  0.54347  1.0000
  H   H475      1.0  0.40993  0.99331  0.61104  1.0000
  H   H476      1.0  0.18216  0.03422  0.53049  1.0000
  H   H477      1.0  0.05533  0.18765  0.56343  1.0000
  S   S78       1.0  0.20796  0.03422  0.52968  1.0000
  H   H478      1.0  0.02986  0.15831  0.51051  1.0000
  C   C276      1.0  0.15475  0.01099  0.55274  1.0000
  C   C277      1.0  0.25068  0.03611  0.55206  1.0000
  S   S79       1.0  0.23180  0.03719  0.54363  1.0000
  C   C278      1.0  0.07309  0.18343  0.55353  1.0000
  H   H479      1.0  0.07625  0.20621  0.55805  1.0000
  H   H480      1.0  0.47293  0.09332  0.63691  1.0000
  H   H481      1.0  0.17254  0.07190  0.53924  1.0000
  H   H482      1.0  0.00503  0.14013  0.50176  1.0000
  H   H483      1.0  0.14565  0.07146  0.52997  1.0000
  S   S80       1.0  0.18666  0.01514  0.55170  1.0000
  H   H484      1.0  0.46838  0.01120  0.56845  1.0000
  H   H485      1.0  0.48721  0.08493  0.63963  1.0000
  C   C279      1.0  0.47022  0.02047  0.74080  1.0000
  H   H486      1.0  0.04949  0.06415  0.50780  1.0000
  H   H487      1.0  0.00026  0.12746  0.54996  1.0000
  C   C280      1.0  0.35683  0.01849  0.54996  1.0000
  N   N19       1.0  0.03548  0.06165  0.50167  1.0000
  H   H488      1.0  0.36976  0.00611  0.50758  1.0000
  H   H489      1.0  0.36567  0.03106  0.52235  1.0000
  H   H490      1.0  0.04040  0.19724  0.55246  1.0000
  H   H491      1.0  0.41342  0.02404  0.50100  1.0000
  H   H492      1.0  0.04853  0.21658  0.51954  1.0000
  N   N20       1.0  0.31576  0.00547  0.56633  1.0000
  C   C281      1.0  0.34601  0.02017  0.53529  1.0000
  S   S81       1.0  0.21593  0.03443  0.49597  1.0000
  H   H493      1.0  0.48837  0.99405  0.55896  1.0000
  Fe  Fe41      1.0  0.16229  0.99937  0.49854  1.0000
  C   C282      1.0  0.17547  0.06305  0.54459  1.0000
  C   C283      1.0  0.02708  0.07841  0.51325  1.0000
  S   S82       1.0  0.15459  0.01676  0.50376  1.0000
  H   H494      1.0  0.02237  0.24219  0.49414  1.0000
  H   H495      1.0  0.45536  0.07139  0.66973  1.0000
  C   C284      1.0  0.15147  0.04248  0.54089  1.0000
  C   C285      1.0  0.07177  0.20843  0.55062  1.0000
  H   H496      1.0  0.00810  0.13614  0.53089  1.0000
  H   H497      1.0  0.37968  0.02770  0.54000  1.0000
  H   H498      1.0  0.39264  0.00890  0.52598  1.0000
  H   H499      1.0  0.47156  0.07765  0.62806  1.0000
  H   H500      1.0  0.48502  0.09026  0.62502  1.0000
  H   H501      1.0  0.03208  0.07438  0.52028  1.0000
  H   H502      1.0  0.35568  0.00380  0.54404  1.0000
  H   H503      1.0  0.15974  0.05898  0.52000  1.0000
  H   H504      1.0  0.38894  0.00802  0.50812  1.0000
  H   H505      1.0  0.48528  0.99929  0.61141  1.0000
  H   H506      1.0  0.36226  0.01912  0.51287  1.0000
  C   C286      1.0  0.31420  0.01552  0.58302  1.0000
  H   H507      1.0  0.34538  0.00621  0.50034  1.0000
  H   H508      1.0  0.04041  0.19907  0.57291  1.0000
  H   H509      1.0  0.10360  0.01250  0.50525  1.0000
  H   H510      1.0  0.02648  0.23456  0.56089  1.0000
  C   C287      1.0  0.42039  0.99531  0.58214  1.0000
  H   H511      1.0  0.25336  0.01120  0.56238  1.0000
  C   C288      1.0  0.38174  0.01606  0.50817  1.0000
  H   H512      1.0  0.31554  0.99709  0.58457  1.0000
  C   C289      1.0  0.46627  0.00128  0.71171  1.0000
  H   H513      1.0  0.25242  0.02610  0.52805  1.0000
  H   H514      1.0  0.48559  0.06932  0.63012  1.0000
  H   H515      1.0  0.18407  0.04539  0.54267  1.0000
  H   H516      1.0  0.14592  0.05041  0.53640  1.0000
  H   H517      1.0  0.05636  0.21048  0.57064  1.0000
  H   H518      1.0  0.18650  0.05655  0.52980  1.0000
  C   C290      1.0  0.03998  0.20848  0.56874  1.0000
  H   H519      1.0  0.27967  0.00421  0.51311  1.0000
  C   C291      1.0  0.00966  0.12742  0.54886  1.0000
  H   H520      1.0  0.06029  0.22084  0.50758  1.0000
  C   C292      1.0  0.48679  0.00807  0.73012  1.0000
  N   N21       1.0  0.48352  0.01725  0.73735  1.0000
  H   H521      1.0  0.48417  0.03111  0.72169  1.0000
  H   H522      1.0  0.33168  0.00389  0.55273  1.0000
  H   H523      1.0  0.03130  0.21584  0.51429  1.0000
  H   H524      1.0  0.27109  0.02514  0.50823  1.0000
  Fe  Fe42      1.0  0.14487  0.00635  0.51987  1.0000
  H   H525      1.0  0.15292  0.06836  0.54174  1.0000
  H   H526      1.0  0.01440  0.11810  0.54976  1.0000
  H   H527      1.0  0.31685  0.02989  0.56076  1.0000
  C   C293      1.0  0.47749  0.07511  0.63428  1.0000
  H   H528      1.0  0.48304  0.01162  0.72213  1.0000
  S   S83       1.0  0.30244  0.04546  0.52582  1.0000
  H   H529      1.0  0.00267  0.21982  0.51891  1.0000
  H   H530      1.0  0.05276  0.03810  0.51302  1.0000
  H   H531      1.0  0.06240  0.20545  0.53595  1.0000
  H   H532      1.0  0.46099  0.08438  0.65186  1.0000
  H   H533      1.0  0.00765  0.18075  0.53432  1.0000
  H   H534      1.0  0.16389  0.01275  0.56471  1.0000
  C   C294      1.0  0.02721  0.22539  0.51310  1.0000
  C   C295      1.0  0.09845  0.04481  0.50171  1.0000
  C   C296      1.0  0.03150  0.05202  0.49932  1.0000
  H   H535      1.0  0.36681  0.03670  0.50022  1.0000
  H   H536      1.0  0.07258  0.17411  0.55735  1.0000
  N   N22       1.0  0.47185  0.06863  0.64611  1.0000
  Fe  Fe43      1.0  0.30075  0.04724  0.50753  1.0000
  H   H537      1.0  0.03819  0.15903  0.54689  1.0000
  H   H538      1.0  0.19154  0.04974  0.51416  1.0000
  H   H539      1.0  0.02563  0.10757  0.52158  1.0000
  C   C297      1.0  0.02326  0.22783  0.52560  1.0000
  H   H540      1.0  0.30906  0.02422  0.57933  1.0000
  C   C298      1.0  0.26729  0.02493  0.53509  1.0000
  C   C299      1.0  0.27090  0.02701  0.54415  1.0000
  H   H541      1.0  0.09667  0.00817  0.49658  1.0000
  H   H542      1.0  0.05291  0.18891  0.54385  1.0000
  H   H543      1.0  0.37637  0.04628  0.49888  1.0000
  H   H544      1.0  0.45756  0.99903  0.68104  1.0000
  H   H545      1.0  0.40665  0.01190  0.50437  1.0000
  H   H546      1.0  0.44312  0.07517  0.66263  1.0000
  S   S84       1.0  0.07941  0.06306  0.49830  1.0000
  Fe  Fe44      1.0  0.31456  0.02256  0.50644  1.0000
  S   S85       1.0  0.32150  0.01071  0.49375  1.0000
  H   H547      1.0  0.02295  0.23683  0.52597  1.0000
  S   S86       1.0  0.43455  0.99783  0.59497  1.0000
  H   H548      1.0  0.40911  0.99364  0.57200  1.0000
  C   C300      1.0  0.26727  0.01947  0.50521  1.0000
  C   C301      1.0  0.48278  0.99651  0.73656  1.0000
  H   H549      1.0  0.06580  0.19058  0.56905  1.0000
  H   H550      1.0  0.17756  0.02963  0.49333  1.0000
  H   H551      1.0  0.07255  0.18543  0.54420  1.0000
  H   H552      1.0  0.27786  0.99548  0.54562  1.0000
  H   H553      1.0  0.01818  0.07350  0.50283  1.0000
  S   S87       1.0  0.01358  0.15961  0.55187  1.0000
  Fe  Fe45      1.0  0.20381  0.01668  0.53892  1.0000
  H   H554      1.0  0.06306  0.04704  0.50652  1.0000
  C   C302      1.0  0.99997  0.14353  0.49472  1.0000
  H   H555      1.0  0.02661  0.03521  0.50756  1.0000
  C   C303      1.0  0.26257  0.03259  0.55263  1.0000
  C   C304      1.0  0.49208  0.05967  0.65157  1.0000
  C   C305      1.0  0.22890  0.01271  0.49290  1.0000
  H   H556      1.0  0.46317  0.06323  0.62895  1.0000
  H   H557      1.0  0.18373  0.01312  0.52924  1.0000
  C   C306      1.0  0.42651  0.00004  0.73559  1.0000
  C   C307      1.0  0.35313  0.01321  0.54317  1.0000
  C   C308      1.0  0.32884  0.00471  0.56208  1.0000
  H   H558      1.0  0.31140  0.01422  0.59274  1.0000
  H   H559      1.0  0.48428  0.99681  0.57810  1.0000
  C   C309      1.0  0.30896  0.01610  0.55908  1.0000
  S   S88       1.0  0.31754  0.01828  0.52469  1.0000
  C   C310      1.0  0.40638  0.01987  0.50727  1.0000
  H   H560      1.0  0.31672  0.99401  0.55512  1.0000
  H   H561      1.0  0.05028  0.22089  0.55916  1.0000
  C   C311      1.0  0.05442  0.04599  0.50609  1.0000
  H   H562      1.0  0.42067  0.01905  0.73127  1.0000
  H   H563      1.0  0.34425  0.04708  0.53979  1.0000
  S   S89       1.0  0.31982  0.03977  0.50093  1.0000
  H   H564      1.0  0.36060  0.00111  0.49437  1.0000
  H   H565      1.0  0.05668  0.22625  0.52068  1.0000
  N   N23       1.0  0.03557  0.23234  0.50415  1.0000
  C   C312      1.0  0.16395  0.06165  0.52559  1.0000
  S   S90       1.0  0.12921  0.00871  0.51248  1.0000
  C   C313      1.0  0.37015  0.01179  0.51311  1.0000
  N   N24       1.0  0.02675  0.13190  0.53114  1.0000
  C   C314      1.0  0.02908  0.14026  0.51940  1.0000
  C   C315      1.0  0.03010  0.11957  0.52905  1.0000
  C   C316      1.0  0.03388  0.13253  0.53917  1.0000
  C   C317      1.0  0.01391  0.13527  0.53685  1.0000
  C   C318      1.0  0.02803  0.15314  0.51968  1.0000
  C   C319      1.0  0.02190  0.11660  0.52321  1.0000
  C   C320      1.0  0.04730  0.13041  0.53427  1.0000
  C   C321      1.0  0.24474  0.00877  0.56624  1.0000
  H   H566      1.0  0.03798  0.13710  0.51421  1.0000
  H   H567      1.0  0.02296  0.14054  0.51400  1.0000
  H   H568      1.0  0.03086  0.11285  0.53732  1.0000
  H   H569      1.0  0.03905  0.11786  0.52328  1.0000
  H   H570      1.0  0.03093  0.14118  0.54176  1.0000
  H   H571      1.0  0.03243  0.12596  0.54759  1.0000
  H   H572      1.0  0.45740  0.00536  0.58056  1.0000
  H   H573      1.0  0.36969  0.00635  0.52214  1.0000
  H   H574      1.0  0.03456  0.15401  0.52396  1.0000
  C   C322      1.0  0.35186  0.00444  0.49214  1.0000
  H   H575      1.0  0.01907  0.15735  0.52394  1.0000
  H   H576      1.0  0.28694  0.00739  0.49375  1.0000
  H   H577      1.0  0.48817  0.99368  0.65293  1.0000
  C   C323      1.0  0.17953  0.05355  0.53726  1.0000
  H   H578      1.0  0.04969  0.13734  0.52654  1.0000
  H   H579      1.0  0.05111  0.12166  0.53202  1.0000
  H   H580      1.0  0.05159  0.13075  0.54108  1.0000
  H   H581      1.0  0.49273  0.05071  0.65056  1.0000
  H   H582      1.0  0.39375  0.03222  0.49802  1.0000
  H   H583      1.0  0.11329  0.03040  0.50454  1.0000
  C   C324      1.0  0.05216  0.21135  0.56329  1.0000
  C   C325      1.0  0.35329  0.03065  0.54896  1.0000
  H   H584      1.0  0.37513  0.04027  0.52053  1.0000
  C   C326      1.0  0.34656  0.03761  0.54084  1.0000
  H   H585      1.0  0.37772  0.01367  0.53176  1.0000
  C   C327      1.0  0.30777  0.99668  0.50981  1.0000
  H   H586      1.0  0.17025  0.03814  0.52346  1.0000
  C   C328      1.0  0.17566  0.01254  0.53579  1.0000
  Fe  Fe46      1.0  0.22512  0.02678  0.53533  1.0000
  H   H587      1.0  0.46418  0.99384  0.65507  1.0000
  H   H588      1.0  0.03540  0.21347  0.57578  1.0000
  C   C329      1.0  0.04758  0.19788  0.54452  1.0000
  H   H589      1.0  0.38204  0.02030  0.49873  1.0000
  C   C330      1.0  0.18443  0.04611  0.51352  1.0000
  H   H590      1.0  0.32167  0.02586  0.54669  1.0000
  C   C331      1.0  0.06317  0.19151  0.56071  1.0000
  H   H591      1.0  0.04997  0.21541  0.54207  1.0000
  C   C332      1.0  0.47915  0.06625  0.65504  1.0000
  C   C333      1.0  0.15423  0.07053  0.53208  1.0000
  H   H592      1.0  0.22723  0.01010  0.50231  1.0000
  H   H593      1.0  0.46894  0.05091  0.65334  1.0000
  H   H594      1.0  0.18888  0.03845  0.50936  1.0000
  H   H595      1.0  0.47910  0.07453  0.65732  1.0000
  N   N25       1.0  0.06040  0.20428  0.55457  1.0000
  C   C334      1.0  0.31336  0.99465  0.56451  1.0000
  H   H596      1.0  0.04075  0.05477  0.51827  1.0000
  S   S91       1.0  0.07234  0.17417  0.49805  1.0000
  H   H597      1.0  0.47524  0.06089  0.66352  1.0000
  Fe  Fe47      1.0  0.13961  0.01782  0.49583  1.0000
  N   N26       1.0  0.38377  0.02404  0.51457  1.0000
  C   C335      1.0  0.47558  0.99458  0.58002  1.0000
  C   C336      1.0  0.39442  0.02877  0.50737  1.0000
  C   C337      1.0  0.37336  0.03419  0.51620  1.0000
  C   C338      1.0  0.38562  0.01708  0.52653  1.0000
  H   H598      1.0  0.26505  0.00649  0.52170  1.0000
  H   H599      1.0  0.28853  0.02184  0.49216  1.0000
  C   C339      1.0  0.36946  0.04180  0.50490  1.0000
  C   C340      1.0  0.38802  0.02388  0.53431  1.0000
  C   C341      1.0  0.45253  0.07063  0.66208  1.0000
  H   H600      1.0  0.09587  0.21495  0.49407  1.0000
  H   H601      1.0  0.39496  0.03650  0.51021  1.0000
  C   C342      1.0  0.24695  0.03360  0.54332  1.0000
  C   C343      1.0  0.31164  0.00562  0.57922  1.0000
  N   N27       1.0  0.27103  0.02093  0.49204  1.0000
  S   S92       1.0  0.36613  0.01032  0.55952  1.0000
  C   C344      1.0  0.01499  0.10134  0.49403  1.0000
  H   H602      1.0  0.30195  0.00652  0.58208  1.0000
  C   C345      1.0  0.02479  0.06900  0.50836  1.0000
  H   H603      1.0  0.01919  0.22667  0.50982  1.0000
  H   H604      1.0  0.99670  0.21125  0.53775  1.0000
  S   S93       1.0  0.47404  0.07535  0.73775  1.0000
  H   H605      1.0  0.24455  0.00171  0.55182  1.0000
  H   H606      1.0  0.46991  0.00055  0.66265  1.0000
  H   H607      1.0  0.04765  0.21668  0.49890  1.0000
  H   H608      1.0  0.48562  0.05505  0.72679  1.0000
  H   H609      1.0  0.05565  0.04415  0.49738  1.0000
  C   C346      1.0  0.26876  0.99427  0.54730  1.0000
  C   C347      1.0  0.02666  0.04321  0.51027  1.0000
  H   H610      1.0  0.01847  0.08358  0.51727  1.0000
  Fe  Fe48      1.0  0.08593  0.18489  0.49208  1.0000
  H   H611      1.0  0.01421  0.22643  0.52954  1.0000
  C   C348      1.0  0.46662  0.00643  0.57774  1.0000
  S   S94       1.0  0.05516  0.09142  0.49281  1.0000
  C   C349      1.0  0.24379  0.99867  0.56148  1.0000
  H   H612      1.0  0.00647  0.23710  0.55792  1.0000
  C   C350      1.0  0.42602  0.01234  0.73716  1.0000
  H   H613      1.0  0.43092  0.99973  0.72627  1.0000
  C   C351      1.0  0.31410  0.02718  0.55419  1.0000
  C   C352      1.0  0.02375  0.24067  0.55326  1.0000
  H   H614      1.0  0.29977  0.01883  0.56404  1.0000
  C   C353      1.0  0.00603  0.09739  0.49223  1.0000
  H   H615      1.0  0.02830  0.21804  0.49371  1.0000
  C   C354      1.0  0.45086  0.99442  0.70849  1.0000
  H   H616      1.0  0.25610  0.01349  0.49400  1.0000
  H   H617      1.0  0.01739  0.04689  0.51430  1.0000
  H   H618      1.0  0.03167  0.08475  0.50644  1.0000
  H   H619      1.0  0.03989  0.23988  0.51630  1.0000
  H   H620      1.0  0.26671  0.99370  0.56563  1.0000
  C   C355      1.0  0.19469  0.01792  0.49204  1.0000
  H   H621      1.0  0.46052  0.11485  0.76645  1.0000
  H   H622      1.0  0.44712  0.09589  0.75363  1.0000
  C   C356      1.0  0.45574  0.21167  0.97834  1.0000
  H   H623      1.0  0.48993  0.05168  0.79512  1.0000
  H   H624      1.0  0.47640  0.23940  0.96202  1.0000
  C   C357      1.0  0.49325  0.09597  0.75119  1.0000
  H   H625      1.0  0.46830  0.11531  0.74190  1.0000
  C   C358      1.0  0.47814  0.01460  0.78055  1.0000
  S   S95       1.0  0.45602  0.21068  0.96409  1.0000
  C   C359      1.0  0.48098  0.09389  0.75245  1.0000
  H   H626      1.0  0.49343  0.23911  0.97908  1.0000
  C   C360      1.0  0.49151  0.16361  0.92480  1.0000
  C   C361      1.0  0.48881  0.01774  0.83838  1.0000
  H   H627      1.0  0.46294  0.12753  0.74871  1.0000
  H   H628      1.0  0.43679  0.23912  0.98000  1.0000
  Fe  Fe49      1.0  0.48584  0.18762  0.93528  1.0000
  S   S96       1.0  0.47765  0.18259  0.95443  1.0000
  C   C362      1.0  0.46655  0.09468  0.78503  1.0000
  N   N28       1.0  0.48731  0.00791  0.83400  1.0000
  S   S97       1.0  0.48640  0.17894  0.92104  1.0000
  H   H629      1.0  0.45440  0.17284  0.98645  1.0000
  H   H630      1.0  0.46069  0.01227  0.78281  1.0000
  C   C363      1.0  0.45832  0.18031  0.98556  1.0000
  S   S98       1.0  0.49003  0.20191  0.95791  1.0000
  C   C364      1.0  0.46034  0.09481  0.76291  1.0000
  H   H631      1.0  0.45930  0.09007  0.78719  1.0000
  C   C365      1.0  0.46925  0.11154  0.76094  1.0000
  C   C366      1.0  0.47002  0.00832  0.78090  1.0000
  H   H632      1.0  0.48203  0.08425  0.75371  1.0000
  H   H633      1.0  0.44755  0.23240  0.94340  1.0000
  H   H634      1.0  0.47550  0.16933  0.98432  1.0000
  Fe  Fe50      1.0  0.48431  0.06217  0.75046  1.0000
  H   H635      1.0  0.43683  0.21536  0.98330  1.0000
  H   H636      1.0  0.47061  0.02344  0.84817  1.0000
  H   H637      1.0  0.42177  0.01347  0.74626  1.0000
  C   C367      1.0  0.44487  0.21414  0.98610  1.0000
  C   C368      1.0  0.47542  0.09231  0.77357  1.0000
  H   H638      1.0  0.47870  0.09754  0.74375  1.0000
  C   C369      1.0  0.47126  0.02169  0.82287  1.0000
  H   H639      1.0  0.47468  0.18352  0.98601  1.0000
  C   C370      1.0  0.48720  0.15720  0.93594  1.0000
  C   C371      1.0  0.46607  0.21017  0.98207  1.0000
  C   C372      1.0  0.47527  0.01020  0.83156  1.0000
  H   H640      1.0  0.46199  0.08504  0.76445  1.0000
  H   H641      1.0  0.48254  0.00758  0.75522  1.0000
  H   H642      1.0  0.48059  0.16168  0.94228  1.0000
  H   H643      1.0  0.48945  0.04165  0.81590  1.0000
  C   C373      1.0  0.49139  0.23363  0.98807  1.0000
  S   S99       1.0  0.47753  0.06071  0.76994  1.0000
  H   H644      1.0  0.48849  0.02602  0.83166  1.0000
  Fe  Fe51      1.0  0.48414  0.04129  0.77127  1.0000
  H   H645      1.0  0.47831  0.12202  0.74487  1.0000
  C   C374      1.0  0.48875  0.99695  0.84363  1.0000
  H   H646      1.0  0.46670  0.01268  0.74621  1.0000
  S   S100      1.0  0.47307  0.02885  0.78313  1.0000
  H   H647      1.0  0.47390  0.02038  0.81370  1.0000
  H   H648      1.0  0.47437  0.02923  0.82324  1.0000
  C   C375      1.0  0.49018  0.00952  0.77796  1.0000
  H   H649      1.0  0.49277  0.02258  0.81053  1.0000
  H   H650      1.0  0.46151  0.02449  0.82518  1.0000
  Fe  Fe52      1.0  0.47326  0.20194  0.95386  1.0000
  H   H651      1.0  0.48147  0.02859  0.85133  1.0000
  Fe  Fe53      1.0  0.49489  0.18296  0.95725  1.0000
  C   C376      1.0  0.45527  0.23642  0.93919  1.0000
  H   H652      1.0  0.44780  0.23481  0.96129  1.0000
  C   C377      1.0  0.47058  0.23937  0.95646  1.0000
  C   C378      1.0  0.49082  0.23526  0.92194  1.0000
  S   S101      1.0  0.47967  0.20712  0.93428  1.0000
  H   H653      1.0  0.44516  0.99861  0.74518  1.0000
  H   H654      1.0  0.49294  0.10511  0.75135  1.0000
  H   H655      1.0  0.47585  0.11358  0.76438  1.0000
  H   H656      1.0  0.46843  0.02822  0.75596  1.0000
  H   H657      1.0  0.48350  0.09481  0.77369  1.0000
  H   H658      1.0  0.48802  0.02028  0.75207  1.0000
  H   H659      1.0  0.47620  0.23712  0.94810  1.0000
  H   H660      1.0  0.47446  0.20858  0.97618  1.0000
  C   C379      1.0  0.48833  0.01284  0.74832  1.0000
  H   H661      1.0  0.46063  0.09804  0.74392  1.0000
  H   H662      1.0  0.47790  0.08261  0.77442  1.0000
  C   C380      1.0  0.46981  0.11925  0.74834  1.0000
  H   H663      1.0  0.46603  0.23221  0.96140  1.0000
  H   H664      1.0  0.45091  0.10958  0.75131  1.0000
  H   H665      1.0  0.45768  0.23582  0.92981  1.0000
  H   H666      1.0  0.49036  0.22867  0.91776  1.0000
  N   N29       1.0  0.47144  0.09842  0.76222  1.0000
  H   H667      1.0  0.47116  0.09102  0.79242  1.0000
  H   H668      1.0  0.45993  0.18456  0.97608  1.0000
  H   H669      1.0  0.49425  0.13438  0.98397  1.0000
  C   C381      1.0  0.49110  0.14492  0.93873  1.0000
  H   H670      1.0  0.45515  0.03038  0.75140  1.0000
  H   H671      1.0  0.49557  0.14637  0.97183  1.0000
  H   H672      1.0  0.46832  0.00974  0.83982  1.0000
  H   H673      1.0  0.48056  0.01367  0.85733  1.0000
  C   C382      1.0  0.45462  0.09999  0.75222  1.0000
  H   H674      1.0  0.48753  0.13996  0.94724  1.0000
  H   H675      1.0  0.46297  0.10419  0.78480  1.0000
  C   C383      1.0  0.47974  0.02087  0.84945  1.0000
  C   C384      1.0  0.49371  0.04890  0.81212  1.0000
  H   H676      1.0  0.48131  0.99764  0.85143  1.0000
  H   H677      1.0  0.46282  0.23105  0.94304  1.0000
  C   C385      1.0  0.46472  0.03006  0.74812  1.0000
  C   C386      1.0  0.47390  0.99710  0.77835  1.0000
  H   H678      1.0  0.45331  0.09739  0.77046  1.0000
  S   S102      1.0  0.48918  0.04277  0.75180  1.0000
  H   H679      1.0  0.47467  0.00305  0.82786  1.0000
  C   C387      1.0  0.49390  0.05465  0.80035  1.0000
  H   H680      1.0  0.48619  0.22739  0.98828  1.0000
  H   H681      1.0  0.40840  0.99436  0.75417  1.0000
  H   H682      1.0  0.49447  0.00030  0.81857  1.0000
  H   H683      1.0  0.42789  0.99702  0.75939  1.0000
  C   C388      1.0  0.49407  0.99815  0.77570  1.0000
  H   H684      1.0  0.45191  0.18705  0.99007  1.0000
  C   C389      1.0  0.47014  0.17607  0.98943  1.0000
  H   H685      1.0  0.49593  0.20076  0.98790  1.0000
  H   H686      1.0  0.48410  0.99332  0.74566  1.0000
  H   H687      1.0  0.48807  0.15468  0.99151  1.0000
  H   H688      1.0  0.46541  0.03897  0.74275  1.0000
  H   H689      1.0  0.27541  0.45767  0.01108  1.0000
  H   H690      1.0  0.10141  0.49257  0.10326  1.0000
  H   H691      1.0  0.19685  0.48269  0.00568  1.0000
  H   H692      1.0  0.25147  0.43103  0.03490  1.0000
  C   C390      1.0  0.09562  0.41402  0.16266  1.0000
  C   C391      1.0  0.10274  0.41947  0.18152  1.0000
  H   H693      1.0  0.34221  0.45129  0.00390  1.0000
  S   S103      1.0  0.48384  0.26522  0.03023  1.0000
  C   C392      1.0  0.41966  0.46445  0.99753  1.0000
  C   C393      1.0  0.34974  0.46621  0.99532  1.0000
  H   H694      1.0  0.11067  0.39088  0.16554  1.0000
  C   C394      1.0  0.08895  0.38685  0.18692  1.0000
  H   H695      1.0  0.21080  0.48533  0.03133  1.0000
  C   C395      1.0  0.25514  0.42142  0.03547  1.0000
  H   H696      1.0  0.30766  0.45941  0.99978  1.0000
  C   C396      1.0  0.03184  0.48239  0.15257  1.0000
  Fe  Fe54      1.0  0.48860  0.29268  0.03692  1.0000
  H   H697      1.0  0.27676  0.43622  0.04303  1.0000
  C   C397      1.0  0.20209  0.47050  0.05395  1.0000
  H   H698      1.0  0.26735  0.42230  0.01140  1.0000
  C   C398      1.0  0.28208  0.42884  0.01146  1.0000
  H   H699      1.0  0.46711  0.25167  0.04444  1.0000
  C   C399      1.0  0.99780  0.42943  0.18541  1.0000
  H   H700      1.0  0.08776  0.38975  0.19512  1.0000
  C   C400      1.0  0.18977  0.45174  0.00162  1.0000
  S   S104      1.0  0.47052  0.29053  0.03819  1.0000
  C   C401      1.0  0.35757  0.42696  0.01422  1.0000
  C   C402      1.0  0.00228  0.42443  0.17553  1.0000
  C   C403      1.0  0.01881  0.43376  0.16992  1.0000
  Fe  Fe55      1.0  0.05524  0.48436  0.10163  1.0000
  Fe  Fe56      1.0  0.47699  0.27178  0.04692  1.0000
  S   S105      1.0  0.46625  0.26240  0.06324  1.0000
  S   S106      1.0  0.31915  0.49038  0.03530  1.0000
  H   H701      1.0  0.24028  0.46626  0.07059  1.0000
  Fe  Fe57      1.0  0.24155  0.42596  0.99916  1.0000
  S   S107      1.0  0.22412  0.42885  0.01198  1.0000
  C   C404      1.0  0.27261  0.46693  0.04860  1.0000
  H   H702      1.0  0.09584  0.46036  0.22450  1.0000
  C   C405      1.0  0.26974  0.42632  0.01731  1.0000
  S   S108      1.0  0.04238  0.43609  0.18847  1.0000
  H   H703      1.0  0.10225  0.41951  0.15989  1.0000
  H   H704      1.0  0.25576  0.46178  0.06978  1.0000
  N   N30       1.0  0.26810  0.41895  0.02967  1.0000
  C   C406      1.0  0.49031  0.27663  0.99474  1.0000
  H   H705      1.0  0.08264  0.45561  0.19661  1.0000
  H   H706      1.0  0.07353  0.48871  0.21006  1.0000
  C   C407      1.0  0.00120  0.46350  0.14595  1.0000
  H   H707      1.0  0.28260  0.43731  0.01279  1.0000
  C   C408      1.0  0.08227  0.44769  0.20378  1.0000
  H   H708      1.0  0.10389  0.40296  0.14943  1.0000
  S   S109      1.0  0.06485  0.46550  0.10276  1.0000
  C   C409      1.0  0.24804  0.46924  0.07077  1.0000
  H   H709      1.0  0.33692  0.46878  0.02886  1.0000
  H   H710      1.0  0.02265  0.42345  0.20072  1.0000
  H   H711      1.0  0.09006  0.39281  0.16861  1.0000
  H   H712      1.0  0.28952  0.42195  0.01423  1.0000
  C   C410      1.0  0.45251  0.31591  0.01190  1.0000
  H   H713      1.0  0.09973  0.42774  0.17533  1.0000
  C   C411      1.0  0.42100  0.39084  0.00032  1.0000
  H   H714      1.0  0.45857  0.31064  0.01772  1.0000
  S   S110      1.0  0.06201  0.42486  0.16731  1.0000
  H   H715      1.0  0.08788  0.40697  0.15248  1.0000
  S   S111      1.0  0.06999  0.43876  0.18233  1.0000
  H   H716      1.0  0.09620  0.41753  0.14397  1.0000
  Fe  Fe58      1.0  0.06981  0.44048  0.16353  1.0000
  S   S112      1.0  0.08526  0.44244  0.14842  1.0000
  C   C412      1.0  0.48701  0.33124  0.03856  1.0000
  S   S113      1.0  0.04587  0.46496  0.19314  1.0000
  C   C413      1.0  0.07050  0.45934  0.11547  1.0000
  C   C414      1.0  0.07908  0.44881  0.11599  1.0000
  C   C415      1.0  0.08381  0.44379  0.12601  1.0000
  C   C416      1.0  0.07978  0.44916  0.13565  1.0000
  C   C417      1.0  0.07126  0.45975  0.13510  1.0000
  C   C418      1.0  0.06669  0.46490  0.12497  1.0000
  H   H717      1.0  0.08207  0.44453  0.10864  1.0000
  H   H718      1.0  0.09038  0.43562  0.12639  1.0000
  H   H719      1.0  0.06829  0.46406  0.14243  1.0000
  H   H720      1.0  0.28841  0.40406  0.01602  1.0000
  H   H721      1.0  0.26773  0.40380  0.02376  1.0000
  H   H722      1.0  0.46473  0.25558  0.02442  1.0000
  C   C419      1.0  0.27199  0.40599  0.02962  1.0000
  S   S114      1.0  0.00140  0.46655  0.21105  1.0000
  N   N31       1.0  0.19255  0.47344  0.04718  1.0000
  H   H723      1.0  0.11321  0.46824  0.08855  1.0000
  H   H724      1.0  0.99757  0.41899  0.17382  1.0000
  H   H725      1.0  0.26363  0.43513  0.01719  1.0000
  H   H726      1.0  0.08660  0.43956  0.22035  1.0000
  N   N32       1.0  0.09764  0.40448  0.17341  1.0000
  H   H727      1.0  0.01083  0.41878  0.21147  1.0000
  C   C420      1.0  0.46918  0.25570  0.00580  1.0000
  H   H728      1.0  0.11608  0.40311  0.16518  1.0000
  H   H729      1.0  0.31499  0.45718  0.02434  1.0000
  C   C421      1.0  0.01272  0.42673  0.16769  1.0000
  H   H730      1.0  0.08697  0.42020  0.16467  1.0000
  C   C422      1.0  0.45174  0.24394  0.00390  1.0000
  C   C423      1.0  0.06725  0.47044  0.18207  1.0000
  H   H731      1.0  0.03554  0.49031  0.22793  1.0000
  H   H732      1.0  0.33639  0.45366  0.03238  1.0000
  H   H733      1.0  0.23776  0.42113  0.03409  1.0000
  H   H734      1.0  0.06939  0.46280  0.17836  1.0000
  S   S115      1.0  0.46967  0.28861  0.00682  1.0000
  H   H735      1.0  0.47709  0.30813  0.00886  1.0000
  H   H736      1.0  0.48238  0.32161  0.00336  1.0000
  H   H737      1.0  0.37382  0.45975  0.99294  1.0000
  H   H738      1.0  0.12730  0.48233  0.07452  1.0000
  Fe  Fe59      1.0  0.49023  0.36101  0.99178  1.0000
  H   H739      1.0  0.11223  0.41590  0.17832  1.0000
  C   C424      1.0  0.01139  0.45418  0.14067  1.0000
  H   H740      1.0  0.03941  0.46226  0.04853  1.0000
  H   H741      1.0  0.01132  0.44515  0.14598  1.0000
  H   H742      1.0  0.24825  0.40759  0.03287  1.0000
  H   H743      1.0  0.08587  0.41539  0.18517  1.0000
  H   H744      1.0  0.12162  0.39517  0.18265  1.0000
  H   H745      1.0  0.26913  0.40071  0.03859  1.0000
  C   C425      1.0  0.18866  0.48919  0.00400  1.0000
  H   H746      1.0  0.05026  0.45648  0.08332  1.0000
  H   H747      1.0  0.35635  0.44779  0.99475  1.0000
  H   H748      1.0  0.02522  0.47114  0.05298  1.0000
  H   H749      1.0  0.01389  0.45787  0.07469  1.0000
  S   S116      1.0  0.49185  0.30742  0.04242  1.0000
  H   H750      1.0  0.10934  0.38828  0.18987  1.0000
  Fe  Fe60      1.0  0.06041  0.42445  0.18623  1.0000
  Fe  Fe61      1.0  0.21754  0.44106  0.99624  1.0000
  H   H751      1.0  0.01597  0.46296  0.18614  1.0000
  H   H752      1.0  0.07559  0.47080  0.20496  1.0000
  C   C426      1.0  0.49125  0.33491  0.01410  1.0000
  H   H753      1.0  0.42378  0.41119  0.00530  1.0000
  H   H754      1.0  0.43903  0.32675  0.02358  1.0000
  C   C427      1.0  0.23958  0.48401  0.01957  1.0000
  H   H755      1.0  0.48540  0.32988  0.04801  1.0000
  N   N33       1.0  0.47284  0.24803  0.99695  1.0000
  C   C428      1.0  0.07810  0.40624  0.22750  1.0000
  H   H756      1.0  0.27991  0.39936  0.00193  1.0000
  C   C429      1.0  0.23685  0.46729  0.01450  1.0000
  C   C430      1.0  0.09803  0.47169  0.11318  1.0000
  H   H757      1.0  0.26967  0.44118  0.03092  1.0000
  H   H758      1.0  0.00373  0.46444  0.15370  1.0000
  H   H759      1.0  0.02882  0.47944  0.14629  1.0000
  C   C431      1.0  0.28525  0.40094  0.02557  1.0000
  C   C432      1.0  0.27445  0.42183  0.03714  1.0000
  H   H760      1.0  0.18000  0.48281  0.05992  1.0000
  H   H761      1.0  0.04461  0.48664  0.19874  1.0000
  H   H762      1.0  0.18946  0.44433  0.05278  1.0000
  H   H763      1.0  0.28353  0.42996  0.00181  1.0000
  C   C433      1.0  0.27030  0.43450  0.03918  1.0000
  H   H764      1.0  0.44185  0.38853  0.00360  1.0000
  C   C434      1.0  0.09229  0.48587  0.08206  1.0000
  H   H765      1.0  0.01898  0.48556  0.10454  1.0000
  H   H766      1.0  0.38542  0.45288  0.00042  1.0000
  H   H767      1.0  0.00968  0.46055  0.08952  1.0000
  C   C435      1.0  0.08880  0.39704  0.17603  1.0000
  C   C436      1.0  0.27945  0.40711  0.99490  1.0000
  C   C437      1.0  0.09522  0.41053  0.18341  1.0000
  C   C438      1.0  0.09598  0.40992  0.15160  1.0000
  S   S117      1.0  0.22143  0.45686  0.99898  1.0000
  C   C439      1.0  0.11007  0.39729  0.17080  1.0000
  H   H768      1.0  0.12129  0.38190  0.17959  1.0000
  H   H769      1.0  0.09619  0.40427  0.19184  1.0000
  Fe  Fe62      1.0  0.05201  0.45058  0.18318  1.0000
  C   C440      1.0  0.24710  0.41729  0.03041  1.0000
  H   H770      1.0  0.20633  0.48593  0.01859  1.0000
  C   C441      1.0  0.99882  0.48736  0.21688  1.0000
  S   S118      1.0  0.30935  0.43617  0.99601  1.0000
  H   H771      1.0  0.28400  0.42049  0.03339  1.0000
  C   C442      1.0  0.36977  0.44607  0.00870  1.0000
  H   H772      1.0  0.17501  0.48953  0.03495  1.0000
  H   H773      1.0  0.27007  0.48736  0.03307  1.0000
  C   C443      1.0  0.35271  0.43793  0.01964  1.0000
  H   H774      1.0  0.26768  0.48395  0.01223  1.0000
  H   H775      1.0  0.09700  0.37979  0.18561  1.0000
  H   H776      1.0  0.45492  0.32908  0.02885  1.0000
  H   H777      1.0  0.49108  0.24731  0.99631  1.0000
  S   S119      1.0  0.31259  0.48139  0.01493  1.0000
  Fe  Fe63      1.0  0.47884  0.28409  0.02150  1.0000
  H   H778      1.0  0.03553  0.47438  0.15849  1.0000
  H   H779      1.0  0.04333  0.48134  0.06836  1.0000
  H   H780      1.0  0.07970  0.40265  0.17702  1.0000
  C   C444      1.0  0.03368  0.48301  0.07222  1.0000
  H   H781      1.0  0.99836  0.46966  0.23754  1.0000
  Fe  Fe64      1.0  0.30782  0.47902  0.03454  1.0000
  C   C445      1.0  0.18664  0.46319  0.05098  1.0000
  H   H782      1.0  0.08379  0.47781  0.10417  1.0000
  N   N34       1.0  0.26049  0.48442  0.05874  1.0000
  H   H783      1.0  0.18133  0.46269  0.06016  1.0000
  N   N35       1.0  0.02474  0.41984  0.22951  1.0000
  H   H784      1.0  0.37300  0.43953  0.00301  1.0000
  H   H785      1.0  0.29717  0.44092  0.05822  1.0000
  C   C446      1.0  0.17256  0.48764  0.04469  1.0000
  S   S120      1.0  0.25550  0.40923  0.00057  1.0000
  H   H786      1.0  0.04019  0.42715  0.22430  1.0000
  H   H787      1.0  0.07937  0.39466  0.21638  1.0000
  H   H788      1.0  0.26369  0.47190  0.02356  1.0000
  H   H789      1.0  0.42470  0.37273  0.01062  1.0000
  C   C447      1.0  0.03125  0.46501  0.08711  1.0000
  H   H790      1.0  0.27403  0.45757  0.05335  1.0000
  H   H791      1.0  0.18028  0.46436  0.04551  1.0000
  C   C448      1.0  0.05328  0.48394  0.19349  1.0000
  H   H792      1.0  0.03044  0.48856  0.21634  1.0000
  H   H793      1.0  0.16714  0.48097  0.04802  1.0000
  S   S121      1.0  0.33529  0.42434  0.00221  1.0000
  H   H794      1.0  0.08877  0.47821  0.06957  1.0000
  C   C449      1.0  0.23275  0.46825  0.03492  1.0000
  C   C450      1.0  0.07577  0.47692  0.17995  1.0000
  H   H795      1.0  0.47810  0.24541  0.02018  1.0000
  H   H796      1.0  0.08943  0.47044  0.20681  1.0000
  H   H797      1.0  0.04554  0.46226  0.06598  1.0000
  C   C451      1.0  0.31122  0.45001  0.03000  1.0000
  H   H798      1.0  0.24858  0.42021  0.02075  1.0000
  H   H799      1.0  0.05233  0.45528  0.22291  1.0000
  C   C452      1.0  0.11562  0.39042  0.18146  1.0000
  H   H800      1.0  0.10162  0.42186  0.19002  1.0000
  N   N36       1.0  0.02109  0.49094  0.17128  1.0000
  H   H801      1.0  0.29072  0.40257  0.03060  1.0000
  C   C453      1.0  0.06822  0.45665  0.22705  1.0000
  H   H802      1.0  0.43007  0.42195  0.99389  1.0000
  H   H803      1.0  0.28677  0.39124  0.02702  1.0000
  C   C454      1.0  0.19491  0.45093  0.05045  1.0000
  C   C455      1.0  0.37574  0.45628  0.00181  1.0000
  H   H804      1.0  0.46887  0.32087  0.02179  1.0000
  H   H805      1.0  0.27871  0.47295  0.01897  1.0000
  S   S122      1.0  0.32036  0.40798  0.99708  1.0000
  H   H806      1.0  0.08139  0.38286  0.18823  1.0000
  H   H807      1.0  0.01478  0.48194  0.18909  1.0000
  N   N37       1.0  0.09897  0.48323  0.09157  1.0000
  C   C456      1.0  0.30123  0.44079  0.04909  1.0000
  C   C457      1.0  0.20303  0.48582  0.02810  1.0000
  H   H808      1.0  0.01915  0.44396  0.18164  1.0000
  Fe  Fe65      1.0  0.31727  0.42074  0.00851  1.0000
  H   H809      1.0  0.01613  0.45253  0.23945  1.0000
  S   S123      1.0  0.16464  0.47100  0.02946  1.0000
  H   H810      1.0  0.25950  0.48135  0.07746  1.0000
  S   S124      1.0  0.22823  0.44931  0.03035  1.0000
  H   H811      1.0  0.43890  0.31144  0.02733  1.0000
  C   C458      1.0  0.08683  0.44824  0.21416  1.0000
  H   H812      1.0  0.02982  0.43149  0.23678  1.0000
  H   H813      1.0  0.10097  0.46935  0.07578  1.0000
  H   H814      1.0  0.00725  0.43117  0.22956  1.0000
  H   H815      1.0  0.05804  0.42947  0.20817  1.0000
  C   C459      1.0  0.01798  0.42336  0.21002  1.0000
  C   C460      1.0  0.06564  0.42565  0.22322  1.0000
  N   N38       1.0  0.45706  0.32616  0.00342  1.0000
  C   C461      1.0  0.23299  0.46244  0.02638  1.0000
  H   H816      1.0  0.27943  0.47886  0.05360  1.0000
  C   C462      1.0  0.01446  0.43853  0.17992  1.0000
  H   H817      1.0  0.35643  0.42891  0.00512  1.0000
  C   C463      1.0  0.30729  0.43077  0.03291  1.0000
  S   S125      1.0  0.05267  0.45366  0.16397  1.0000
  C   C464      1.0  0.00478  0.41389  0.23854  1.0000
  H   H818      1.0  0.02542  0.46967  0.09404  1.0000
  H   H819      1.0  0.11852  0.47672  0.06906  1.0000
  C   C465      1.0  0.23581  0.47919  0.03150  1.0000
  H   H820      1.0  0.31620  0.44007  0.01651  1.0000
  H   H821      1.0  0.35566  0.47087  0.99665  1.0000
  S   S126      1.0  0.06544  0.40807  0.19953  1.0000
  H   H822      1.0  0.03251  0.48612  0.08037  1.0000
  C   C466      1.0  0.06166  0.49061  0.19110  1.0000
  C   C467      1.0  0.00273  0.48069  0.10651  1.0000
  H   H823      1.0  0.03101  0.44798  0.22018  1.0000
  C   C468      1.0  0.46907  0.24917  0.01867  1.0000
  H   H824      1.0  0.16254  0.47006  0.00635  1.0000
  C   C469      1.0  0.08734  0.45778  0.22914  1.0000
  H   H825      1.0  0.01401  0.47982  0.06719  1.0000
  H   H826      1.0  0.48288  0.35010  0.03587  1.0000
  H   H827      1.0  0.09496  0.46602  0.09942  1.0000
  H   H828      1.0  0.09733  0.43941  0.23315  1.0000
  H   H829      1.0  0.06167  0.43422  0.22515  1.0000
  C   C470      1.0  0.29842  0.46216  0.00454  1.0000
  C   C471      1.0  0.17092  0.46464  0.00799  1.0000
  C   C472      1.0  0.05836  0.46136  0.22004  1.0000
  Fe  Fe66      1.0  0.04476  0.43797  0.16910  1.0000
  H   H830      1.0  0.20045  0.45042  0.04155  1.0000
  C   C473      1.0  0.06360  0.42295  0.21358  1.0000
  H   H831      1.0  0.00527  0.47211  0.11198  1.0000
  H   H832      1.0  0.00589  0.48308  0.17930  1.0000
  C   C474      1.0  0.19262  0.45067  0.01227  1.0000
  H   H833      1.0  0.06012  0.47308  0.12459  1.0000
  C   C475      1.0  0.09032  0.44584  0.23765  1.0000
  S   S127      1.0  0.30807  0.41854  0.02751  1.0000
  H   H834      1.0  0.46503  0.33997  0.00356  1.0000
  H   H835      1.0  0.06134  0.46227  0.21048  1.0000
  H   H836      1.0  0.42222  0.37363  0.99635  1.0000
  H   H837      1.0  0.20094  0.44529  0.01404  1.0000
  C   C476      1.0  0.17391  0.46355  0.01863  1.0000
  H   H838      1.0  0.00643  0.48314  0.22064  1.0000
  C   C477      1.0  0.00390  0.43646  0.18760  1.0000
  Fe  Fe67      1.0  0.22958  0.44442  0.01342  1.0000
  H   H839      1.0  0.26170  0.43570  0.04555  1.0000
  H   H840      1.0  0.05279  0.46989  0.22199  1.0000
  N   N39       1.0  0.08041  0.45816  0.22043  1.0000
  C   C478      1.0  0.06844  0.41173  0.21118  1.0000
  H   H841      1.0  0.43320  0.32071  0.01502  1.0000
  N   N40       1.0  0.28030  0.47042  0.99503  1.0000
  C   C479      1.0  0.44021  0.31904  0.01987  1.0000
  C   C480      1.0  0.48560  0.34269  0.03168  1.0000
  C   C481      1.0  0.05610  0.47377  0.18911  1.0000
  H   H842      1.0  0.25372  0.41728  0.04503  1.0000
  C   C482      1.0  0.18466  0.45642  0.02078  1.0000
  C   C483      1.0  0.03063  0.42967  0.22805  1.0000
  C   C484      1.0  0.44822  0.33246  0.99585  1.0000
  H   H843      1.0  0.27368  0.41570  0.04593  1.0000
  C   C485      1.0  0.01189  0.42346  0.23517  1.0000
  H   H844      1.0  0.42589  0.46037  0.00342  1.0000
  H   H845      1.0  0.04711  0.47053  0.08730  1.0000
  C   C486      1.0  0.11189  0.47788  0.08768  1.0000
  H   H846      1.0  0.08077  0.48210  0.22196  1.0000
  H   H847      1.0  0.00056  0.44024  0.19527  1.0000
  H   H848      1.0  0.21026  0.46503  0.04955  1.0000
  H   H849      1.0  0.18690  0.45536  0.02903  1.0000
  C   C487      1.0  0.09352  0.47460  0.10180  1.0000
  N   N41       1.0  0.35651  0.44902  0.01219  1.0000
  H   H850      1.0  0.11697  0.47883  0.09355  1.0000
  H   H851      1.0  0.08445  0.47424  0.17465  1.0000
  H   H852      1.0  0.45200  0.30963  0.00701  1.0000
  H   H853      1.0  0.44849  0.25357  0.00221  1.0000
  H   H854      1.0  0.02853  0.44070  0.21069  1.0000
  H   H855      1.0  0.23728  0.46286  0.00784  1.0000
  S   S128      1.0  0.03160  0.43691  0.15994  1.0000
  C   C488      1.0  0.01517  0.48159  0.17990  1.0000
  H   H856      1.0  0.01991  0.45600  0.14045  1.0000
  C   C489      1.0  0.19766  0.47502  0.03412  1.0000
  H   H857      1.0  0.20477  0.46729  0.03209  1.0000
  H   H858      1.0  0.04681  0.40389  0.22542  1.0000
  C   C490      1.0  0.46257  0.32949  0.02129  1.0000
  H   H859      1.0  0.42145  0.39291  0.00852  1.0000
  C   C491      1.0  0.30190  0.43107  0.04466  1.0000
  H   H860      1.0  0.01321  0.48920  0.15811  1.0000
  C   C492      1.0  0.02065  0.46882  0.17866  1.0000
  H   H861      1.0  0.09630  0.44851  0.21074  1.0000
  C   C493      1.0  0.33915  0.46087  0.02510  1.0000
  C   C494      1.0  0.31195  0.44026  0.02557  1.0000
  H   H862      1.0  0.26503  0.46884  0.04456  1.0000
  C   C495      1.0  0.07299  0.41734  0.23014  1.0000
  H   H863      1.0  0.24847  0.47814  0.05285  1.0000
  H   H864      1.0  0.09422  0.47893  0.11800  1.0000
  H   H865      1.0  0.29467  0.45429  0.00815  1.0000
  C   C496      1.0  0.02632  0.44146  0.21996  1.0000
  H   H866      1.0  0.03350  0.45551  0.06945  1.0000
  H   H867      1.0  0.06613  0.48040  0.22322  1.0000
  C   C497      1.0  0.35249  0.45793  0.01984  1.0000
  H   H868      1.0  0.37355  0.44189  0.01664  1.0000
  C   C498      1.0  0.07563  0.40336  0.21819  1.0000
  H   H869      1.0  0.08804  0.44016  0.19994  1.0000
  H   H870      1.0  0.04408  0.45788  0.09813  1.0000
  C   C499      1.0  0.09212  0.47512  0.07777  1.0000
  C   C500      1.0  0.04393  0.46243  0.08885  1.0000
  C   C501      1.0  0.02676  0.41639  0.21795  1.0000
  H   H871      1.0  0.29837  0.42372  0.05038  1.0000
  H   H872      1.0  0.01611  0.42300  0.15996  1.0000
  C   C502      1.0  0.07299  0.48697  0.18453  1.0000
  S   S129      1.0  0.30488  0.46234  0.04760  1.0000
  H   H873      1.0  0.01952  0.46729  0.17051  1.0000
  H   H874      1.0  0.35491  0.46641  0.01514  1.0000
  H   H875      1.0  0.20066  0.44814  0.05683  1.0000
  H   H876      1.0  0.06836  0.44724  0.23123  1.0000
  H   H877      1.0  0.35525  0.43549  0.02828  1.0000
  H   H878      1.0  0.23015  0.46436  0.04414  1.0000
  H   H879      1.0  0.08380  0.39979  0.23281  1.0000
  H   H880      1.0  0.41357  0.47246  0.00020  1.0000
  H   H881      1.0  0.03238  0.48889  0.18297  1.0000
  H   H882      1.0  0.19085  0.47547  0.02942  1.0000
  H   H883      1.0  0.03001  0.46602  0.17916  1.0000
  H   H884      1.0  0.47512  0.26184  0.00350  1.0000
  H   H885      1.0  0.03892  0.48074  0.17197  1.0000
  C   C503      1.0  0.30586  0.45030  0.04176  1.0000
  C   C504      1.0  0.24943  0.48018  0.06079  1.0000
  H   H886      1.0  0.19949  0.46498  0.06286  1.0000
  H   H887      1.0  0.41410  0.45814  0.99897  1.0000
  H   H888      1.0  0.33397  0.46287  0.01835  1.0000
  C   C505      1.0  0.01614  0.47496  0.07580  1.0000
  C   C506      1.0  0.27062  0.47444  0.01580  1.0000
  C   C507      1.0  0.03015  0.40936  0.23798  1.0000
  H   H889      1.0  0.08249  0.46424  0.23478  1.0000
  H   H890      1.0  0.28989  0.48029  0.99958  1.0000
  H   H891      1.0  0.00133  0.47202  0.13944  1.0000
  C   C508      1.0  0.01549  0.46129  0.24088  1.0000
  H   H892      1.0  0.10775  0.46958  0.11154  1.0000
  H   H893      1.0  0.45014  0.34115  0.01157  1.0000
  C   C509      1.0  0.45862  0.33473  0.00949  1.0000
  H   H894      1.0  0.26344  0.46748  0.00574  1.0000
  H   H895      1.0  0.27296  0.46902  0.06552  1.0000
  C   C510      1.0  0.27234  0.46699  0.00681  1.0000
  H   H896      1.0  0.46034  0.26152  0.00579  1.0000
  C   C511      1.0  0.48768  0.34459  0.01946  1.0000
  C   C512      1.0  0.03310  0.48926  0.17353  1.0000
  H   H897      1.0  0.28050  0.46764  0.04131  1.0000
  C   C513      1.0  0.27159  0.47494  0.05694  1.0000
  H   H898      1.0  0.04821  0.41097  0.23614  1.0000
  H   H899      1.0  0.35701  0.45483  0.02731  1.0000
  S   S130      1.0  0.48533  0.35917  0.01127  1.0000
  C   C514      1.0  0.03592  0.46420  0.06647  1.0000
  H   H900      1.0  0.02631  0.40703  0.21955  1.0000
  C   C515      1.0  0.46603  0.24809  0.06299  1.0000
  H   H901      1.0  0.01158  0.48111  0.08179  1.0000
  H   H902      1.0  0.34294  0.43929  0.02173  1.0000
  C   C516      1.0  0.24022  0.47800  0.01112  1.0000
  H   H903      1.0  0.24327  0.48162  0.00192  1.0000
  C   C517      1.0  0.49032  0.32157  0.03330  1.0000
  H   H904      1.0  0.26600  0.45601  0.99309  1.0000
  H   H905      1.0  0.00639  0.40927  0.23138  1.0000
  C   C518      1.0  0.17882  0.45857  0.99952  1.0000
  C   C519      1.0  0.11801  0.48260  0.07483  1.0000
  H   H906      1.0  0.41023  0.37790  0.00749  1.0000
  C   C520      1.0  0.03449  0.46907  0.05372  1.0000
  C   C521      1.0  0.01049  0.48831  0.10232  1.0000
  H   H907      1.0  0.04630  0.39631  0.24039  1.0000
  C   C522      1.0  0.46719  0.24498  0.05241  1.0000
  C   C523      1.0  0.04364  0.40501  0.23463  1.0000
  H   H908      1.0  0.01133  0.45457  0.13145  1.0000
  C   C524      1.0  0.08032  0.46982  0.21181  1.0000
  H   H909      1.0  0.02645  0.40164  0.23905  1.0000
  H   H910      1.0  0.24152  0.48731  0.06278  1.0000
  H   H911      1.0  0.46698  0.33564  0.02270  1.0000
  H   H912      1.0  0.07335  0.44592  0.20661  1.0000
  H   H913      1.0  0.01418  0.43263  0.21064  1.0000
  H   H914      1.0  0.01939  0.46653  0.23233  1.0000
  H   H915      1.0  0.24629  0.47126  0.07954  1.0000
  H   H916      1.0  0.35271  0.42004  0.01948  1.0000
  S   S131      1.0  0.24738  0.44080  0.00163  1.0000
  H   H917      1.0  0.21351  0.47749  0.05987  1.0000
  H   H918      1.0  0.03579  0.41692  0.21263  1.0000
  N   N42       1.0  0.02922  0.47189  0.07513  1.0000
  H   H919      1.0  0.36700  0.42315  0.01439  1.0000
  C   C525      1.0  0.44853  0.37541  0.99316  1.0000
  H   H920      1.0  0.08602  0.46993  0.08426  1.0000
  H   H921      1.0  0.37358  0.46346  0.00655  1.0000
  H   H922      1.0  0.18184  0.48725  0.01211  1.0000
  H   H923      1.0  0.06519  0.46121  0.23450  1.0000
  H   H924      1.0  0.09503  0.46385  0.11916  1.0000
  C   C526      1.0  0.00994  0.46461  0.08008  1.0000
  H   H925      1.0  0.02898  0.45630  0.08931  1.0000
  H   H926      1.0  0.03841  0.47682  0.04953  1.0000
  C   C527      1.0  0.07484  0.48078  0.21722  1.0000
  H   H927      1.0  0.01680  0.44520  0.22271  1.0000
  H   H928      1.0  0.29893  0.46538  0.01203  1.0000
  H   H929      1.0  0.43962  0.33621  0.00126  1.0000
  C   C528      1.0  0.20535  0.48082  0.05645  1.0000
  H   H930      1.0  0.03896  0.48689  0.14709  1.0000
  C   C529      1.0  0.35121  0.45303  0.00149  1.0000
  H   H931      1.0  0.49536  0.31589  0.01697  1.0000
  H   H932      1.0  0.23539  0.48381  0.03807  1.0000
  C   C530      1.0  0.18336  0.48412  0.05022  1.0000
  H   H933      1.0  0.41249  0.39662  0.99853  1.0000
  H   H934      1.0  0.00059  0.46804  0.07937  1.0000
  C   C531      1.0  0.49255  0.32338  0.02105  1.0000
  C   C532      1.0  0.41968  0.37800  0.00382  1.0000
  H   H935      1.0  0.39288  0.39545  0.99499  1.0000
  H   H936      1.0  0.34047  0.47103  0.99781  1.0000
  C   C533      1.0  0.47898  0.31519  0.00109  1.0000
  H   H937      1.0  0.43964  0.40887  0.99964  1.0000
  C   C534      1.0  0.43091  0.41233  0.99733  1.0000
  H   H938      1.0  0.49196  0.24958  0.05867  1.0000
  C   C535      1.0  0.29160  0.47220  0.99630  1.0000
  H   H939      1.0  0.02734  0.49219  0.05570  1.0000
  H   H940      1.0  0.17528  0.48864  0.99575  1.0000
  H   H941      1.0  0.01226  0.49133  0.13486  1.0000
  H   H942      1.0  0.19835  0.48469  0.06334  1.0000
  H   H943      1.0  0.18715  0.49197  0.04765  1.0000
  Fe  Fe68      1.0  0.15125  0.48713  0.02374  1.0000
  H   H944      1.0  0.27865  0.48822  0.06730  1.0000
  C   C536      1.0  0.02146  0.49099  0.15872  1.0000
  C   C537      1.0  0.47919  0.28412  0.99433  1.0000
  H   H945      1.0  0.18848  0.47756  0.99399  1.0000
  C   C538      1.0  0.25972  0.48868  0.06957  1.0000
  S   S132      1.0  0.03684  0.49102  0.11109  1.0000
  H   H946      1.0  0.20695  0.48795  0.04868  1.0000
  S   S133      1.0  0.13839  0.48974  0.01267  1.0000
  H   H947      1.0  0.25419  0.48920  0.03615  1.0000
  H   H948      1.0  0.49285  0.33632  0.00467  1.0000
  C   C539      1.0  0.46842  0.32151  0.99542  1.0000
  H   H949      1.0  0.08295  0.49037  0.08506  1.0000
  H   H950      1.0  0.08479  0.49224  0.04734  1.0000
  H   H951      1.0  0.44194  0.46736  0.99607  1.0000
  H   H952      1.0  0.28736  0.45228  0.99363  1.0000
  H   H953      1.0  0.44255  0.36937  0.99741  1.0000
  H   H954      1.0  0.42742  0.48466  0.99509  1.0000
  H   H955      1.0  0.45613  0.37218  0.99748  1.0000
  C   C540      1.0  0.18506  0.48714  0.99366  1.0000
  H   H956      1.0  0.49332  0.27373  0.00286  1.0000
  C   C541      1.0  0.44278  0.38823  0.99430  1.0000
  H   H957      1.0  0.27245  0.48909  0.99298  1.0000
  H   H958      1.0  0.49196  0.24354  0.07373  1.0000
  C   C542      1.0  0.26142  0.49285  0.03640  1.0000
  H   H959      1.0  0.09571  0.49215  0.07420  1.0000
  H   H960      1.0  0.11416  0.49174  0.07084  1.0000
  S   S134      1.0  0.49442  0.27441  0.04720  1.0000
  H   H961      1.0  0.48617  0.31097  0.99458  1.0000
  H   H962      1.0  0.37700  0.38832  0.99207  1.0000
  S   S135      1.0  0.39602  0.41850  0.99227  1.0000
  C   C543      1.0  0.38541  0.40171  0.99204  1.0000
  C   C544      1.0  0.26862  0.41314  0.99203  1.0000
  H   H963      1.0  0.44642  0.32618  0.99177  1.0000
  C   C545      1.0  0.00741  0.25427  0.47258  1.0000
  C   C546      1.0  0.04004  0.35688  0.42416  1.0000
  C   C547      1.0  0.01013  0.42473  0.27692  1.0000
  S   S136      1.0  0.04613  0.30134  0.41242  1.0000
  H   H964      1.0  0.01740  0.40746  0.42786  1.0000
  Fe  Fe69      1.0  0.03488  0.43375  0.26344  1.0000
  S   S137      1.0  0.05063  0.42172  0.26980  1.0000
  H   H965      1.0  0.07722  0.34966  0.41904  1.0000
  Fe  Fe70      1.0  0.04583  0.45489  0.25548  1.0000
  S   S138      1.0  0.06245  0.44458  0.26119  1.0000
  H   H966      1.0  0.00332  0.44347  0.25276  1.0000
  Fe  Fe71      1.0  0.06089  0.43082  0.25305  1.0000
  H   H967      1.0  0.03715  0.34365  0.47834  1.0000
  Fe  Fe72      1.0  0.05043  0.43668  0.27730  1.0000
  S   S139      1.0  0.05397  0.43412  0.29514  1.0000
  C   C548      1.0  0.02401  0.25357  0.45593  1.0000
  S   S140      1.0  0.03382  0.44817  0.27217  1.0000
  H   H968      1.0  0.06087  0.36355  0.40677  1.0000
  Fe  Fe73      1.0  0.06113  0.26077  0.43536  1.0000
  C   C549      1.0  0.02891  0.29563  0.46735  1.0000
  H   H969      1.0  0.00387  0.48282  0.31456  1.0000
  S   S141      1.0  0.04446  0.47400  0.24716  1.0000
  C   C550      1.0  0.04834  0.47473  0.26800  1.0000
  H   H970      1.0  0.00992  0.32043  0.43246  1.0000
  H   H971      1.0  0.02042  0.25355  0.38416  1.0000
  H   H972      1.0  0.03192  0.45475  0.33872  1.0000
  H   H973      1.0  0.04602  0.46629  0.27144  1.0000
  C   C551      1.0  0.05716  0.48425  0.32170  1.0000
  C   C552      1.0  0.01779  0.40179  0.42224  1.0000
  H   H974      1.0  0.02746  0.47841  0.29763  1.0000
  H   H975      1.0  0.05153  0.47535  0.28433  1.0000
  H   H976      1.0  0.06486  0.36801  0.41756  1.0000
  H   H977      1.0  0.07302  0.34076  0.43365  1.0000
  C   C553      1.0  0.02217  0.43286  0.32594  1.0000
  C   C554      1.0  0.03328  0.43167  0.32787  1.0000
  C   C555      1.0  0.04300  0.43221  0.31833  1.0000
  C   C556      1.0  0.04163  0.43389  0.30687  1.0000
  C   C557      1.0  0.03049  0.43512  0.30496  1.0000
  C   C558      1.0  0.02078  0.43466  0.31448  1.0000
  H   H978      1.0  0.03444  0.43019  0.33669  1.0000
  H   H979      1.0  0.05162  0.43118  0.31985  1.0000
  H   H980      1.0  0.02935  0.43631  0.29619  1.0000
  C   C559      1.0  0.04407  0.30878  0.42358  1.0000
  H   H981      1.0  0.02480  0.39771  0.28792  1.0000
  C   C560      1.0  0.03643  0.31989  0.42322  1.0000
  C   C561      1.0  0.04873  0.37856  0.41248  1.0000
  H   H982      1.0  0.03175  0.32368  0.41619  1.0000
  C   C562      1.0  0.01897  0.24988  0.39378  1.0000
  H   H983      1.0  0.02439  0.29651  0.47646  1.0000
  C   C563      1.0  0.05030  0.26857  0.48172  1.0000
  H   H984      1.0  0.05484  0.47814  0.33031  1.0000
  H   H985      1.0  0.06695  0.26946  0.48391  1.0000
  H   H986      1.0  0.01499  0.46429  0.30957  1.0000
  H   H987      1.0  0.09241  0.48488  0.32895  1.0000
  C   C564      1.0  0.00084  0.43110  0.29521  1.0000
  H   H988      1.0  0.01995  0.48863  0.25922  1.0000
  H   H989      1.0  0.99668  0.42680  0.43102  1.0000
  N   N43       1.0  0.01785  0.47114  0.32298  1.0000
  C   C565      1.0  0.10701  0.24492  0.47472  1.0000
  C   C566      1.0  0.05149  0.49134  0.25192  1.0000
  C   C567      1.0  0.02781  0.47239  0.32727  1.0000
  H   H990      1.0  0.03494  0.37032  0.44090  1.0000
  H   H991      1.0  0.07779  0.33437  0.42112  1.0000
  C   C568      1.0  0.03044  0.40224  0.29003  1.0000
  C   C569      1.0  0.03641  0.46079  0.33130  1.0000
  H   H992      1.0  0.00661  0.41004  0.33437  1.0000
  S   S142      1.0  0.01205  0.35402  0.44085  1.0000
  H   H993      1.0  0.00847  0.31102  0.46867  1.0000
  C   C570      1.0  0.99909  0.29765  0.47941  1.0000
  H   H994      1.0  0.01009  0.45080  0.26432  1.0000
  H   H995      1.0  0.03298  0.47835  0.32048  1.0000
  C   C571      1.0  0.01038  0.46418  0.33302  1.0000
  C   C572      1.0  0.00256  0.41709  0.27981  1.0000
  C   C573      1.0  0.05137  0.47990  0.27535  1.0000
  C   C574      1.0  0.07576  0.48416  0.32600  1.0000
  C   C575      1.0  0.02099  0.47601  0.36083  1.0000
  C   C576      1.0  0.05996  0.34508  0.42278  1.0000
  H   H996      1.0  0.01523  0.40791  0.30266  1.0000
  H   H997      1.0  0.02367  0.24367  0.41550  1.0000
  S   S143      1.0  0.07301  0.24844  0.39688  1.0000
  H   H998      1.0  0.04309  0.46275  0.33464  1.0000
  H   H999      1.0  0.04162  0.32350  0.47742  1.0000
  H   H1000     1.0  0.03418  0.46369  0.29613  1.0000
  S   S144      1.0  0.04511  0.44174  0.24611  1.0000
  H   H1001     1.0  0.01498  0.45475  0.33486  1.0000
  H   H1002     1.0  0.05136  0.32571  0.48469  1.0000
  H   H1003     1.0  0.03233  0.37951  0.29914  1.0000
  C   C577      1.0  0.04115  0.39312  0.31181  1.0000
  C   C578      1.0  0.00549  0.46783  0.26844  1.0000
  H   H1004     1.0  0.08734  0.24595  0.41773  1.0000
  Fe  Fe74      1.0  0.01864  0.42065  0.37851  1.0000
  Fe  Fe75      1.0  0.06214  0.25791  0.41122  1.0000
  H   H1005     1.0  0.02923  0.35687  0.41265  1.0000
  H   H1006     1.0  0.00417  0.47234  0.36278  1.0000
  H   H1007     1.0  0.04632  0.40950  0.30065  1.0000
  H   H1008     1.0  0.02517  0.25317  0.47339  1.0000
  H   H1009     1.0  0.06320  0.29387  0.48457  1.0000
  H   H1010     1.0  0.10617  0.24800  0.46545  1.0000
  H   H1011     1.0  0.03038  0.30429  0.46200  1.0000
  S   S145      1.0  0.03897  0.32899  0.45190  1.0000
  H   H1012     1.0  0.01127  0.29129  0.43702  1.0000
  H   H1013     1.0  0.04284  0.36087  0.40475  1.0000
  S   S146      1.0  0.06897  0.26999  0.41733  1.0000
  H   H1014     1.0  0.99988  0.32147  0.44613  1.0000
  H   H1015     1.0  0.06071  0.34398  0.41379  1.0000
  C   C579      1.0  0.03874  0.35497  0.41260  1.0000
  C   C580      1.0  0.06251  0.26716  0.47865  1.0000
  C   C581      1.0  0.01654  0.25441  0.44870  1.0000
  H   H1016     1.0  0.08501  0.24499  0.47825  1.0000
  H   H1017     1.0  0.04592  0.37966  0.40421  1.0000
  Fe  Fe76      1.0  0.05085  0.28163  0.41801  1.0000
  C   C582      1.0  0.01655  0.49232  0.25105  1.0000
  C   C583      1.0  0.04833  0.48047  0.25630  1.0000
  H   H1018     1.0  0.01836  0.27883  0.44672  1.0000
  C   C584      1.0  0.06339  0.26008  0.46158  1.0000
  C   C585      1.0  0.01085  0.48320  0.31861  1.0000
  S   S147      1.0  0.04351  0.27338  0.43658  1.0000
  C   C586      1.0  0.00945  0.43149  0.28477  1.0000
  S   S148      1.0  0.02034  0.42586  0.26344  1.0000
  S   S149      1.0  0.04483  0.27050  0.40993  1.0000
  Fe  Fe77      1.0  0.03890  0.26131  0.42847  1.0000
  C   C587      1.0  0.01538  0.30685  0.44706  1.0000
  C   C588      1.0  0.04462  0.26580  0.47468  1.0000
  H   H1019     1.0  0.00003  0.42563  0.41612  1.0000
  C   C589      1.0  0.01547  0.38353  0.41991  1.0000
  C   C590      1.0  0.06253  0.47680  0.31229  1.0000
  H   H1020     1.0  0.04086  0.38048  0.41948  1.0000
  H   H1021     1.0  0.04241  0.34568  0.41180  1.0000
  Fe  Fe78      1.0  0.01185  0.43295  0.35509  1.0000
  C   C591      1.0  0.03460  0.32599  0.43205  1.0000
  H   H1022     1.0  0.01217  0.43563  0.31300  1.0000
  C   C592      1.0  0.00193  0.45774  0.26588  1.0000
  C   C593      1.0  0.00572  0.31514  0.44081  1.0000
  H   H1023     1.0  0.02633  0.41061  0.32181  1.0000
  H   H1024     1.0  0.04306  0.38712  0.32018  1.0000
  C   C594      1.0  0.05727  0.36646  0.41527  1.0000
  H   H1025     1.0  0.03365  0.36507  0.42582  1.0000
  H   H1026     1.0  0.03132  0.30900  0.48549  1.0000
  H   H1027     1.0  0.05596  0.33781  0.42891  1.0000
  C   C595      1.0  0.02976  0.37645  0.30876  1.0000
  H   H1028     1.0  0.03630  0.48266  0.35854  1.0000
  H   H1029     1.0  0.01981  0.31270  0.44895  1.0000
  H   H1030     1.0  0.03328  0.25312  0.45224  1.0000
  C   C596      1.0  0.01496  0.39079  0.42724  1.0000
  H   H1031     1.0  0.01383  0.38930  0.31301  1.0000
  H   H1032     1.0  0.02380  0.25414  0.39726  1.0000
  H   H1033     1.0  0.03126  0.41028  0.28308  1.0000
  H   H1034     1.0  0.07379  0.47680  0.33359  1.0000
  H   H1035     1.0  0.00939  0.25240  0.39747  1.0000
  H   H1036     1.0  0.01526  0.43734  0.28269  1.0000
  C   C597      1.0  0.03458  0.33744  0.48674  1.0000
  S   S150      1.0  0.02814  0.43036  0.36149  1.0000
  S   S151      1.0  0.00133  0.25518  0.48724  1.0000
  H   H1037     1.0  0.05736  0.39919  0.30756  1.0000
  C   C598      1.0  0.02713  0.48495  0.35815  1.0000
  N   N44       1.0  0.01131  0.29829  0.45814  1.0000
  C   C599      1.0  0.05118  0.26143  0.46468  1.0000
  H   H1038     1.0  0.07978  0.49164  0.33855  1.0000
  C   C600      1.0  0.03133  0.46960  0.30243  1.0000
  C   C601      1.0  0.06903  0.26310  0.46848  1.0000
  H   H1039     1.0  0.05593  0.29526  0.43308  1.0000
  H   H1040     1.0  0.10209  0.24724  0.41531  1.0000
  C   C602      1.0  0.08334  0.49041  0.32938  1.0000
  S   S152      1.0  0.00308  0.44979  0.36101  1.0000
  H   H1041     1.0  0.00305  0.41183  0.27375  1.0000
  H   H1042     1.0  0.00619  0.46561  0.27777  1.0000
  H   H1043     1.0  0.00461  0.40008  0.32718  1.0000
  H   H1044     1.0  0.01381  0.36091  0.49065  1.0000
  H   H1045     1.0  0.04459  0.36817  0.45021  1.0000
  H   H1046     1.0  0.04563  0.38785  0.30503  1.0000
  H   H1047     1.0  0.03504  0.24811  0.49047  1.0000
  H   H1048     1.0  0.00040  0.31046  0.43850  1.0000
  S   S153      1.0  0.00615  0.33607  0.46635  1.0000
  C   C603      1.0  0.05000  0.30383  0.43277  1.0000
  C   C604      1.0  0.04852  0.31016  0.44135  1.0000
  H   H1049     1.0  0.00237  0.28396  0.46385  1.0000
  H   H1050     1.0  0.05330  0.30639  0.44831  1.0000
  Fe  Fe79      1.0  0.02183  0.34240  0.45455  1.0000
  H   H1051     1.0  0.01969  0.38135  0.40205  1.0000
  S   S154      1.0  0.01969  0.35663  0.46392  1.0000
  H   H1052     1.0  0.01301  0.37519  0.42362  1.0000
  H   H1053     1.0  0.03769  0.37152  0.31230  1.0000
  C   C605      1.0  0.00908  0.47908  0.36049  1.0000
  N   N45       1.0  0.02803  0.39699  0.31270  1.0000
  S   S155      1.0  0.01054  0.38656  0.44264  1.0000
  H   H1054     1.0  0.04119  0.45620  0.32403  1.0000
  H   H1055     1.0  0.02422  0.37006  0.31040  1.0000
  C   C606      1.0  0.00531  0.49107  0.32768  1.0000
  H   H1056     1.0  0.02330  0.41401  0.40617  1.0000
  H   H1057     1.0  0.01975  0.28227  0.46883  1.0000
  H   H1058     1.0  0.05646  0.49138  0.34120  1.0000
  H   H1059     1.0  0.03950  0.39684  0.28929  1.0000
  H   H1060     1.0  0.02433  0.47668  0.33495  1.0000
  S   S156      1.0  0.02663  0.40226  0.38737  1.0000
  H   H1061     1.0  0.03676  0.34987  0.43139  1.0000
  C   C607      1.0  0.02269  0.38649  0.31514  1.0000
  H   H1062     1.0  0.04893  0.29699  0.48180  1.0000
  H   H1063     1.0  0.02843  0.28653  0.45475  1.0000
  C   C608      1.0  0.02187  0.39813  0.40268  1.0000
  H   H1064     1.0  0.06273  0.48238  0.30334  1.0000
  H   H1065     1.0  0.02841  0.33436  0.43184  1.0000
  H   H1066     1.0  0.00626  0.41477  0.31923  1.0000
  S   S157      1.0  0.02851  0.46115  0.36434  1.0000
  N   N46       1.0  0.05227  0.35692  0.42462  1.0000
  C   C609      1.0  0.05512  0.30088  0.48386  1.0000
  H   H1067     1.0  0.07842  0.26247  0.46585  1.0000
  C   C610      1.0  0.07270  0.34251  0.42426  1.0000
  H   H1068     1.0  0.00276  0.47633  0.24624  1.0000
  H   H1069     1.0  0.03939  0.46978  0.30485  1.0000
  C   C611      1.0  0.02204  0.29014  0.46217  1.0000
  C   C612      1.0  0.02488  0.40581  0.30195  1.0000
  C   C613      1.0  0.02282  0.40277  0.32310  1.0000
  S   S158      1.0  0.00990  0.43183  0.33762  1.0000
  C   C614      1.0  0.04077  0.32122  0.44104  1.0000
  C   C615      1.0  0.01945  0.25346  0.46791  1.0000
  C   C616      1.0  0.00930  0.40706  0.32597  1.0000
  H   H1070     1.0  0.07135  0.47119  0.31302  1.0000
  H   H1071     1.0  0.02214  0.30218  0.44053  1.0000
  C   C617      1.0  0.01914  0.38708  0.40768  1.0000
  C   C618      1.0  0.02110  0.40552  0.40997  1.0000
  S   S159      1.0  0.00317  0.42185  0.37134  1.0000
  H   H1072     1.0  0.04946  0.35021  0.44344  1.0000
  H   H1073     1.0  0.02664  0.41449  0.30131  1.0000
  Fe  Fe80      1.0  0.01866  0.44664  0.36860  1.0000
  C   C619      1.0  0.00374  0.30510  0.46731  1.0000
  H   H1074     1.0  0.99917  0.47637  0.26689  1.0000
  Fe  Fe81      1.0  0.00309  0.35117  0.47482  1.0000
  C   C620      1.0  0.00261  0.46764  0.24504  1.0000
  C   C621      1.0  0.00418  0.29111  0.45602  1.0000
  C   C622      1.0  0.04775  0.40306  0.30890  1.0000
  H   H1075     1.0  0.03774  0.28982  0.46768  1.0000
  H   H1076     1.0  0.05347  0.38566  0.41072  1.0000
  H   H1077     1.0  0.05680  0.47075  0.31338  1.0000
  S   S160      1.0  0.01043  0.43665  0.38634  1.0000
  Fe  Fe82      1.0  0.00859  0.36790  0.45107  1.0000
  H   H1078     1.0  0.02538  0.39673  0.33120  1.0000
  H   H1079     1.0  0.00614  0.29095  0.48319  1.0000
  H   H1080     1.0  0.02120  0.38225  0.32469  1.0000
  C   C623      1.0  0.05218  0.35791  0.43676  1.0000
  C   C624      1.0  0.04431  0.36905  0.44093  1.0000
  H   H1081     1.0  0.06115  0.35772  0.43747  1.0000
  H   H1082     1.0  0.04763  0.37700  0.43584  1.0000
  H   H1083     1.0  0.00897  0.46710  0.34130  1.0000
  H   H1084     1.0  0.00395  0.27978  0.44510  1.0000
  H   H1085     1.0  0.05773  0.30798  0.47636  1.0000
  C   C625      1.0  0.00004  0.25483  0.46536  1.0000
  C   C626      1.0  0.00461  0.25475  0.45347  1.0000
  H   H1086     1.0  0.01427  0.46890  0.26300  1.0000
  H   H1087     1.0  0.04681  0.25898  0.45944  1.0000
  C   C627      1.0  0.02235  0.46464  0.31310  1.0000
  C   C628      1.0  0.00989  0.28499  0.44559  1.0000
  H   H1088     1.0  0.99997  0.43678  0.30099  1.0000
  H   H1089     1.0  0.02649  0.45533  0.31632  1.0000
  C   C629      1.0  0.00339  0.49095  0.35740  1.0000
  H   H1090     1.0  0.08150  0.47981  0.31882  1.0000
  H   H1091     1.0  0.04547  0.40768  0.31619  1.0000
  C   C630      1.0  0.05445  0.49079  0.27103  1.0000
  H   H1092     1.0  0.99881  0.25541  0.44787  1.0000
  H   H1093     1.0  0.03517  0.26693  0.47701  1.0000
  H   H1094     1.0  0.00669  0.40739  0.24662  1.0000
  S   S161      1.0  0.07172  0.25446  0.44923  1.0000
  H   H1095     1.0  0.01950  0.48529  0.24599  1.0000
  S   S162      1.0  0.05567  0.24787  0.42927  1.0000
  C   C631      1.0  0.04213  0.32504  0.48586  1.0000
  H   H1096     1.0  0.99869  0.46265  0.32278  1.0000
  C   C632      1.0  0.99821  0.46446  0.33135  1.0000
  S   S163      1.0  0.02191  0.25566  0.43364  1.0000
  H   H1097     1.0  0.00176  0.48616  0.33651  1.0000
  H   H1098     1.0  0.01649  0.48820  0.31125  1.0000
  H   H1099     1.0  0.99640  0.45363  0.27411  1.0000
  H   H1100     1.0  0.04868  0.48967  0.31953  1.0000
  H   H1101     1.0  0.02509  0.33798  0.48813  1.0000
  H   H1102     1.0  0.02796  0.41121  0.24692  1.0000
  H   H1103     1.0  0.02100  0.46036  0.24708  1.0000
  H   H1104     1.0  0.07833  0.48975  0.29926  1.0000
  H   H1105     1.0  0.01089  0.42643  0.24335  1.0000
  H   H1106     1.0  0.10011  0.25055  0.48025  1.0000
  N   N47       1.0  0.06452  0.49189  0.32269  1.0000
  H   H1107     1.0  0.99763  0.40492  0.41142  1.0000
  H   H1108     1.0  0.11556  0.24622  0.47511  1.0000
  H   H1109     1.0  0.01531  0.32444  0.48800  1.0000
  H   H1110     1.0  0.09369  0.44707  0.24472  1.0000
  H   H1111     1.0  0.08252  0.44206  0.24194  1.0000
  Fe  Fe83      1.0  0.99605  0.34894  0.45358  1.0000
  S   S164      1.0  0.07631  0.42076  0.24179  1.0000
  S   S165      1.0  0.02505  0.34559  0.56206  1.0000
  C   C633      1.0  0.00994  0.26512  0.56710  1.0000
  Fe  Fe84      1.0  0.02340  0.32681  0.56676  1.0000
  S   S166      1.0  0.03791  0.31095  0.57014  1.0000
  Fe  Fe85      1.0  0.02147  0.40638  0.60954  1.0000
  H   H1112     1.0  0.09101  0.39769  0.74159  1.0000
  S   S167      1.0  0.02721  0.39461  0.59618  1.0000
  Fe  Fe86      1.0  0.03049  0.40933  0.62949  1.0000
  S   S168      1.0  0.01731  0.42608  0.63173  1.0000
  S   S169      1.0  0.04340  0.40133  0.64125  1.0000
  C   C634      1.0  0.00306  0.42765  0.67136  1.0000
  H   H1113     1.0  0.01795  0.26099  0.49949  1.0000
  Fe  Fe87      1.0  0.02131  0.43096  0.61209  1.0000
  S   S170      1.0  0.02410  0.44888  0.60157  1.0000
  S   S171      1.0  0.01747  0.39962  0.62914  1.0000
  S   S172      1.0  0.03565  0.41480  0.60992  1.0000
  Fe  Fe88      1.0  0.06481  0.43719  0.66916  1.0000
  S   S173      1.0  0.04682  0.43981  0.68090  1.0000
  S   S174      1.0  0.06452  0.43926  0.65018  1.0000
  Fe  Fe89      1.0  0.05336  0.45101  0.68833  1.0000
  S   S175      1.0  0.04244  0.46812  0.69317  1.0000
  S   S176      1.0  0.07094  0.44945  0.67576  1.0000
  N   N48       1.0  0.08553  0.47056  0.70545  1.0000
  S   S177      1.0  0.04672  0.27585  0.52387  1.0000
  C   C635      1.0  0.01648  0.25682  0.53380  1.0000
  C   C636      1.0  0.00947  0.42490  0.71982  1.0000
  S   S178      1.0  0.02199  0.48908  0.62636  1.0000
  S   S179      1.0  0.06469  0.29755  0.52135  1.0000
  H   H1114     1.0  0.07399  0.43934  0.71410  1.0000
  H   H1115     1.0  0.00457  0.41186  0.71441  1.0000
  H   H1116     1.0  0.03540  0.36699  0.54526  1.0000
  H   H1117     1.0  0.01140  0.40537  0.53722  1.0000
  H   H1118     1.0  0.03420  0.28533  0.54912  1.0000
  C   C637      1.0  0.03659  0.31853  0.50754  1.0000
  H   H1119     1.0  0.01707  0.43653  0.72427  1.0000
  H   H1120     1.0  0.05313  0.35941  0.64797  1.0000
  H   H1121     1.0  0.00992  0.28976  0.58591  1.0000
  C   C638      1.0  0.02410  0.40719  0.67442  1.0000
  H   H1122     1.0  0.09951  0.47819  0.69317  1.0000
  S   S180      1.0  0.06041  0.25125  0.51526  1.0000
  H   H1123     1.0  0.06359  0.37733  0.60536  1.0000
  H   H1124     1.0  0.00702  0.46417  0.73776  1.0000
  H   H1125     1.0  0.06205  0.47934  0.62244  1.0000
  C   C639      1.0  0.01712  0.45860  0.70489  1.0000
  H   H1126     1.0  0.01478  0.37214  0.56217  1.0000
  C   C640      1.0  0.01686  0.39623  0.53886  1.0000
  H   H1127     1.0  0.02675  0.44913  0.66757  1.0000
  H   H1128     1.0  0.09004  0.40286  0.70467  1.0000
  H   H1129     1.0  0.07446  0.36147  0.61779  1.0000
  H   H1130     1.0  0.02508  0.40471  0.55342  1.0000
  C   C641      1.0  0.02891  0.24377  0.49796  1.0000
  H   H1131     1.0  0.99619  0.45690  0.72183  1.0000
  C   C642      1.0  0.01079  0.39501  0.56034  1.0000
  H   H1132     1.0  0.03569  0.38125  0.54594  1.0000
  S   S181      1.0  0.07118  0.27465  0.50320  1.0000
  S   S182      1.0  0.01943  0.35829  0.52990  1.0000
  H   H1133     1.0  0.05195  0.28901  0.56430  1.0000
  H   H1134     1.0  0.07636  0.39864  0.70803  1.0000
  C   C643      1.0  0.05735  0.29250  0.54539  1.0000
  H   H1135     1.0  0.02024  0.40151  0.56894  1.0000
  C   C644      1.0  0.03021  0.42482  0.71430  1.0000
  H   H1136     1.0  0.03399  0.25954  0.52851  1.0000
  H   H1137     1.0  0.01577  0.37155  0.54769  1.0000
  H   H1138     1.0  0.10743  0.41611  0.73244  1.0000
  H   H1139     1.0  0.08819  0.45508  0.71936  1.0000
  H   H1140     1.0  0.01423  0.42228  0.68869  1.0000
  H   H1141     1.0  0.02635  0.42862  0.68165  1.0000
  C   C645      1.0  0.09172  0.42901  0.71111  1.0000
  C   C646      1.0  0.04596  0.31588  0.54626  1.0000
  H   H1142     1.0  0.06180  0.28347  0.54506  1.0000
  S   S183      1.0  0.05939  0.43600  0.70246  1.0000
  C   C647      1.0  0.05013  0.47937  0.68882  1.0000
  H   H1143     1.0  0.99886  0.45646  0.64080  1.0000
  N   N49       1.0  0.04629  0.37047  0.62518  1.0000
  H   H1144     1.0  0.02445  0.36177  0.62913  1.0000
  S   S184      1.0  0.09462  0.24453  0.50748  1.0000
  C   C648      1.0  0.06000  0.47921  0.67951  1.0000
  S   S185      1.0  0.00633  0.32978  0.58005  1.0000
  C   C649      1.0  0.06023  0.41073  0.72828  1.0000
  C   C650      1.0  0.02946  0.31052  0.49452  1.0000
  H   H1145     1.0  0.06254  0.47260  0.67442  1.0000
  H   H1146     1.0  0.05016  0.47600  0.63391  1.0000
  H   H1147     1.0  0.04742  0.48356  0.61957  1.0000
  H   H1148     1.0  0.02308  0.39651  0.52015  1.0000
  C   C651      1.0  0.02315  0.46000  0.60870  1.0000
  C   C652      1.0  0.02415  0.47123  0.60193  1.0000
  C   C653      1.0  0.02377  0.48023  0.60728  1.0000
  C   C654      1.0  0.02246  0.47800  0.61944  1.0000
  C   C655      1.0  0.02151  0.46676  0.62623  1.0000
  C   C656      1.0  0.02180  0.45780  0.62089  1.0000
  H   H1149     1.0  0.02523  0.47298  0.59250  1.0000
  H   H1150     1.0  0.04293  0.25676  0.57497  1.0000
  H   H1151     1.0  0.02062  0.46497  0.63563  1.0000
  H   H1152     1.0  0.02121  0.44915  0.62616  1.0000
  S   S186      1.0  0.04678  0.40932  0.70250  1.0000
  C   C657      1.0  0.04925  0.41185  0.64377  1.0000
  C   C658      1.0  0.05576  0.40870  0.65247  1.0000
  C   C659      1.0  0.06030  0.41710  0.65467  1.0000
  C   C660      1.0  0.05854  0.42863  0.64800  1.0000
  C   C661      1.0  0.05187  0.43178  0.63944  1.0000
  C   C662      1.0  0.04723  0.42344  0.63733  1.0000
  H   H1153     1.0  0.05725  0.39976  0.65757  1.0000
  H   H1154     1.0  0.06535  0.41460  0.66136  1.0000
  H   H1155     1.0  0.05002  0.44075  0.63466  1.0000
  H   H1156     1.0  0.04217  0.42598  0.63064  1.0000
  C   C663      1.0  0.01643  0.35969  0.50788  1.0000
  H   H1157     1.0  0.02939  0.49080  0.73293  1.0000
  H   H1158     1.0  0.02249  0.36547  0.50466  1.0000
  H   H1159     1.0  0.09321  0.45218  0.70513  1.0000
  C   C664      1.0  0.04590  0.30728  0.55667  1.0000
  H   H1160     1.0  0.02772  0.40648  0.68207  1.0000
  H   H1161     1.0  0.04211  0.37253  0.60835  1.0000
  H   H1162     1.0  0.01529  0.40515  0.67755  1.0000
  Fe  Fe90      1.0  0.06452  0.27934  0.52084  1.0000
  C   C665      1.0  0.08148  0.40129  0.72319  1.0000
  C   C666      1.0  0.01848  0.39106  0.52810  1.0000
  C   C667      1.0  0.01714  0.44050  0.66084  1.0000
  C   C668      1.0  0.08093  0.40417  0.71014  1.0000
  H   H1163     1.0  0.04159  0.32493  0.54653  1.0000
  Fe  Fe91      1.0  0.00725  0.34888  0.57422  1.0000
  C   C669      1.0  0.02000  0.36933  0.58505  1.0000
  C   C670      1.0  0.02573  0.37687  0.58714  1.0000
  C   C671      1.0  0.01963  0.38499  0.59432  1.0000
  C   C672      1.0  0.00773  0.38539  0.59951  1.0000
  S   S187      1.0  0.04551  0.24563  0.54717  1.0000
  H   H1164     1.0  0.02483  0.36305  0.57963  1.0000
  H   H1165     1.0  0.03496  0.37644  0.58314  1.0000
  C   C673      1.0  0.00134  0.48355  0.72155  1.0000
  H   H1166     1.0  0.08202  0.46063  0.60176  1.0000
  C   C674      1.0  0.05176  0.29562  0.55625  1.0000
  Fe  Fe92      1.0  0.05514  0.42456  0.69343  1.0000
  H   H1167     1.0  0.00072  0.42100  0.67950  1.0000
  H   H1168     1.0  0.01479  0.29813  0.54465  1.0000
  H   H1169     1.0  0.09005  0.45718  0.61926  1.0000
  C   C675      1.0  0.03094  0.38416  0.72992  1.0000
  H   H1170     1.0  0.06747  0.36487  0.63204  1.0000
  H   H1171     1.0  0.05311  0.35162  0.62877  1.0000
  H   H1172     1.0  0.00783  0.38940  0.56906  1.0000
  S   S188      1.0  0.99739  0.35229  0.56002  1.0000
  C   C676      1.0  0.07638  0.49120  0.71010  1.0000
  H   H1173     1.0  0.02931  0.38994  0.56211  1.0000
  H   H1174     1.0  0.03074  0.37995  0.61834  1.0000
  H   H1175     1.0  0.01317  0.30399  0.58018  1.0000
  H   H1176     1.0  0.03202  0.37685  0.63883  1.0000
  H   H1177     1.0  0.07421  0.48760  0.66938  1.0000
  S   S189      1.0  0.04210  0.27372  0.49439  1.0000
  Fe  Fe93      1.0  0.07718  0.25639  0.51331  1.0000
  H   H1178     1.0  0.06891  0.47734  0.70017  1.0000
  H   H1179     1.0  0.02492  0.30666  0.51838  1.0000
  C   C677      1.0  0.06528  0.46615  0.71725  1.0000
  C   C678      1.0  0.00870  0.25048  0.54204  1.0000
  H   H1180     1.0  0.02105  0.45958  0.69532  1.0000
  C   C679      1.0  0.01577  0.48971  0.66316  1.0000
  H   H1181     1.0  0.00136  0.48033  0.63791  1.0000
  H   H1182     1.0  0.05731  0.48764  0.58853  1.0000
  H   H1183     1.0  0.07677  0.41356  0.70728  1.0000
  C   C680      1.0  0.01155  0.35710  0.49994  1.0000
  H   H1184     1.0  0.03401  0.48824  0.65605  1.0000
  H   H1185     1.0  0.01720  0.48490  0.67204  1.0000
  H   H1186     1.0  0.01353  0.45410  0.72878  1.0000
  H   H1187     1.0  0.03445  0.37009  0.55908  1.0000
  H   H1188     1.0  0.04327  0.48749  0.72322  1.0000
  H   H1189     1.0  0.02650  0.36293  0.61383  1.0000
  H   H1190     1.0  0.06880  0.45745  0.72242  1.0000
  C   C681      1.0  0.10523  0.45822  0.71081  1.0000
  H   H1191     1.0  0.99666  0.47366  0.62393  1.0000
  H   H1192     1.0  0.00696  0.27592  0.57921  1.0000
  H   H1193     1.0  0.00765  0.44892  0.68037  1.0000
  C   C682      1.0  0.08122  0.43411  0.71806  1.0000
  H   H1194     1.0  0.02935  0.27273  0.55007  1.0000
  H   H1195     1.0  0.04308  0.38930  0.62302  1.0000
  H   H1196     1.0  0.01739  0.37493  0.73501  1.0000
  C   C683      1.0  0.05058  0.38173  0.62136  1.0000
  H   H1197     1.0  0.08556  0.40806  0.72393  1.0000
  H   H1198     1.0  0.01239  0.39025  0.72997  1.0000
  H   H1199     1.0  0.06275  0.46580  0.59200  1.0000
  H   H1200     1.0  0.02293  0.41852  0.65740  1.0000
  C   C684      1.0  0.01170  0.41539  0.71455  1.0000
  H   H1201     1.0  0.08261  0.44592  0.62113  1.0000
  H   H1202     1.0  0.07175  0.44678  0.60260  1.0000
  C   C685      1.0  0.02190  0.25293  0.50537  1.0000
  C   C686      1.0  0.06648  0.48787  0.67650  1.0000
  H   H1203     1.0  0.02947  0.32657  0.50808  1.0000
  H   H1204     1.0  0.03704  0.37624  0.73378  1.0000
  C   C687      1.0  0.00995  0.27689  0.56952  1.0000
  C   C688      1.0  0.05010  0.30503  0.49560  1.0000
  H   H1205     1.0  0.02558  0.39746  0.53864  1.0000
  C   C689      1.0  0.08124  0.45548  0.62045  1.0000
  S   S190      1.0  0.07278  0.42117  0.68133  1.0000
  C   C690      1.0  0.01190  0.46360  0.72863  1.0000
  C   C691      1.0  0.01875  0.42945  0.71989  1.0000
  C   C692      1.0  0.99789  0.40343  0.65938  1.0000
  H   H1206     1.0  0.07626  0.47218  0.60930  1.0000
  C   C693      1.0  0.03247  0.41517  0.70925  1.0000
  H   H1207     1.0  0.06125  0.39208  0.60701  1.0000
  Fe  Fe94      1.0  0.07665  0.43376  0.68951  1.0000
  Fe  Fe95      1.0  0.99806  0.33290  0.56481  1.0000
  H   H1208     1.0  0.03255  0.38417  0.72045  1.0000
  H   H1209     1.0  0.10942  0.41880  0.71100  1.0000
  C   C694      1.0  0.01798  0.38366  0.73577  1.0000
  C   C695      1.0  0.03126  0.36163  0.62084  1.0000
  C   C696      1.0  0.02374  0.46675  0.72725  1.0000
  H   H1210     1.0  0.02477  0.29157  0.58298  1.0000
  C   C697      1.0  0.03156  0.37378  0.55065  1.0000
  N   N50       1.0  0.01511  0.42963  0.67016  1.0000
  H   H1211     1.0  0.00300  0.42389  0.66400  1.0000
  C   C698      1.0  0.04661  0.36792  0.64705  1.0000
  C   C699      1.0  0.05194  0.31286  0.53546  1.0000
  H   H1212     1.0  0.04797  0.49022  0.73981  1.0000
  H   H1213     1.0  0.02904  0.30163  0.50022  1.0000
  S   S191      1.0  0.09724  0.47676  0.74132  1.0000
  C   C700      1.0  0.07586  0.46303  0.60991  1.0000
  H   H1214     1.0  0.07454  0.46225  0.70053  1.0000
  H   H1215     1.0  0.10492  0.46289  0.68352  1.0000
  H   H1216     1.0  0.01370  0.26312  0.52630  1.0000
  H   H1217     1.0  0.04614  0.46422  0.62142  1.0000
  C   C701      1.0  0.03284  0.30930  0.51859  1.0000
  H   H1218     1.0  0.03059  0.31318  0.52643  1.0000
  Fe  Fe96      1.0  0.05381  0.26992  0.50691  1.0000
  H   H1219     1.0  0.00989  0.28487  0.54612  1.0000
  S   S192      1.0  0.09326  0.43047  0.69592  1.0000
  H   H1220     1.0  0.05214  0.31959  0.52745  1.0000
  C   C702      1.0  0.01861  0.29343  0.56696  1.0000
  H   H1221     1.0  0.03739  0.35289  0.62123  1.0000
  H   H1222     1.0  0.02993  0.45137  0.65194  1.0000
  C   C703      1.0  0.09542  0.46713  0.68444  1.0000
  H   H1223     1.0  0.00292  0.39158  0.60506  1.0000
  H   H1224     1.0  0.09442  0.47241  0.67554  1.0000
  C   C704      1.0  0.03036  0.27349  0.57203  1.0000
  H   H1225     1.0  0.02589  0.29788  0.56182  1.0000
  H   H1226     1.0  0.02100  0.40685  0.73620  1.0000
  H   H1227     1.0  0.04439  0.32091  0.50857  1.0000
  C   C705      1.0  0.03770  0.26197  0.56832  1.0000
  C   C706      1.0  0.09260  0.45867  0.71027  1.0000
  C   C707      1.0  0.02795  0.25494  0.53516  1.0000
  H   H1228     1.0  0.03618  0.43768  0.66039  1.0000
  H   H1229     1.0  0.02268  0.47281  0.73301  1.0000
  H   H1230     1.0  0.11399  0.49020  0.73881  1.0000
  C   C708      1.0  0.05753  0.30115  0.53499  1.0000
  H   H1231     1.0  0.11061  0.46150  0.70212  1.0000
  H   H1232     1.0  0.07589  0.45779  0.62888  1.0000
  C   C709      1.0  0.03962  0.36920  0.63783  1.0000
  H   H1233     1.0  0.01446  0.24988  0.51207  1.0000
  C   C710      1.0  0.02621  0.28158  0.55214  1.0000
  C   C711      1.0  0.01006  0.44086  0.68698  1.0000
  C   C712      1.0  0.06248  0.48218  0.59518  1.0000
  H   H1234     1.0  0.05684  0.46569  0.71575  1.0000
  H   H1235     1.0  0.02994  0.40026  0.66972  1.0000
  H   H1236     1.0  0.08573  0.48364  0.68913  1.0000
  H   H1237     1.0  0.03582  0.36129  0.64074  1.0000
  C   C713      1.0  0.02815  0.44477  0.66024  1.0000
  S   S193      1.0  0.99723  0.34615  0.49459  1.0000
  H   H1238     1.0  0.04414  0.26378  0.55987  1.0000
  H   H1239     1.0  0.06210  0.41946  0.72726  1.0000
  C   C714      1.0  0.02407  0.41930  0.66593  1.0000
  C   C715      1.0  0.01684  0.42992  0.68187  1.0000
  H   H1240     1.0  0.04447  0.40338  0.73546  1.0000
  H   H1241     1.0  0.01777  0.47626  0.70448  1.0000
  N   N51       1.0  0.06364  0.46207  0.61034  1.0000
  H   H1242     1.0  0.01577  0.44289  0.69146  1.0000
  H   H1243     1.0  0.99907  0.38477  0.54367  1.0000
  C   C716      1.0  0.08437  0.47887  0.71310  1.0000
  C   C717      1.0  0.08962  0.42633  0.73538  1.0000
  H   H1244     1.0  0.01082  0.45290  0.70710  1.0000
  H   H1245     1.0  0.05924  0.39271  0.71995  1.0000
  C   C718      1.0  0.09154  0.47548  0.69309  1.0000
  C   C719      1.0  0.99881  0.39795  0.67099  1.0000
  H   H1246     1.0  0.05041  0.38819  0.60255  1.0000
  H   H1247     1.0  0.09028  0.46033  0.68662  1.0000
  H   H1248     1.0  0.03622  0.34067  0.49369  1.0000
  H   H1249     1.0  0.04039  0.36792  0.65575  1.0000
  H   H1250     1.0  0.00622  0.39078  0.67268  1.0000
  C   C720      1.0  0.06446  0.44953  0.60995  1.0000
  C   C721      1.0  0.05511  0.46461  0.62153  1.0000
  C   C722      1.0  0.01699  0.31846  0.49640  1.0000
  C   C723      1.0  0.05367  0.47662  0.62431  1.0000
  Fe  Fe97      1.0  0.01508  0.34756  0.54831  1.0000
  H   H1251     1.0  0.06662  0.44332  0.61811  1.0000
  C   C724      1.0  0.05682  0.38484  0.60831  1.0000
  Fe  Fe98      1.0  0.00462  0.41697  0.62981  1.0000
  H   H1252     1.0  0.05712  0.45768  0.62934  1.0000
  C   C725      1.0  0.04790  0.41057  0.73627  1.0000
  C   C726      1.0  0.00364  0.34969  0.50409  1.0000
  H   H1253     1.0  0.05848  0.37906  0.72958  1.0000
  C   C727      1.0  0.07365  0.46921  0.70523  1.0000
  H   H1254     1.0  0.00097  0.26535  0.56637  1.0000
  H   H1255     1.0  0.00972  0.44819  0.66194  1.0000
  C   C728      1.0  0.01648  0.29457  0.57979  1.0000
  C   C729      1.0  0.02212  0.39785  0.56099  1.0000
  C   C730      1.0  0.00068  0.34488  0.51616  1.0000
  C   C731      1.0  0.10123  0.42271  0.71632  1.0000
  H   H1256     1.0  0.01771  0.43909  0.65199  1.0000
  H   H1257     1.0  0.08804  0.39280  0.72477  1.0000
  C   C732      1.0  0.01796  0.37652  0.55291  1.0000
  S   S194      1.0  0.01504  0.32847  0.55199  1.0000
  H   H1258     1.0  0.03227  0.25637  0.56771  1.0000
  H   H1259     1.0  0.03316  0.42047  0.66412  1.0000
  H   H1260     1.0  0.03732  0.42855  0.71414  1.0000
  H   H1261     1.0  0.02498  0.40300  0.70539  1.0000
  H   H1262     1.0  0.03696  0.27846  0.57148  1.0000
  S   S195      1.0  0.07213  0.26143  0.53081  1.0000
  C   C733      1.0  0.01342  0.35488  0.51997  1.0000
  C   C734      1.0  0.08021  0.43285  0.73014  1.0000
  H   H1263     1.0  0.01567  0.26341  0.55866  1.0000
  N   N52       1.0  0.02129  0.28105  0.56511  1.0000
  C   C735      1.0  0.04635  0.48862  0.69473  1.0000
  H   H1264     1.0  0.04573  0.44858  0.61581  1.0000
  C   C736      1.0  0.06429  0.38536  0.72553  1.0000
  C   C737      1.0  0.03767  0.37173  0.61781  1.0000
  C   C738      1.0  0.05605  0.35975  0.62341  1.0000
  H   H1265     1.0  0.03863  0.48887  0.70186  1.0000
  C   C739      1.0  0.02325  0.41037  0.70946  1.0000
  H   H1266     1.0  0.02618  0.27113  0.58154  1.0000
  C   C740      1.0  0.00803  0.36991  0.59003  1.0000
  H   H1267     1.0  0.99730  0.37786  0.73923  1.0000
  H   H1268     1.0  0.00937  0.48713  0.71922  1.0000
  H   H1269     1.0  0.99757  0.48389  0.73092  1.0000
  H   H1270     1.0  0.08122  0.47499  0.72252  1.0000
  H   H1271     1.0  0.10962  0.44890  0.71384  1.0000
  H   H1272     1.0  0.05815  0.35891  0.61409  1.0000
  H   H1273     1.0  0.02763  0.47079  0.71816  1.0000
  H   H1274     1.0  0.06725  0.49090  0.71050  1.0000
  C   C741      1.0  0.06792  0.35930  0.62607  1.0000
  C   C742      1.0  0.05332  0.44693  0.60844  1.0000
  H   H1275     1.0  0.02443  0.45422  0.70949  1.0000
  H   H1276     1.0  0.09311  0.48041  0.71260  1.0000
  H   H1277     1.0  0.00406  0.40348  0.55982  1.0000
  H   H1278     1.0  0.07167  0.35013  0.63028  1.0000
  N   N53       1.0  0.03924  0.31496  0.49594  1.0000
  H   H1279     1.0  0.05084  0.37534  0.64535  1.0000
  C   C743      1.0  0.10011  0.42118  0.72845  1.0000
  H   H1280     1.0  0.05935  0.41072  0.71946  1.0000
  H   H1281     1.0  0.02215  0.28842  0.53487  1.0000
  H   H1282     1.0  0.05662  0.38189  0.62658  1.0000
  C   C744      1.0  0.06727  0.38905  0.73530  1.0000
  C   C745      1.0  0.01105  0.47087  0.70747  1.0000
  N   N54       1.0  0.00451  0.47109  0.71999  1.0000
  Fe  Fe99      1.0  0.05487  0.25744  0.53202  1.0000
  H   H1283     1.0  0.04170  0.41897  0.73355  1.0000
  H   H1284     1.0  0.10531  0.46302  0.71732  1.0000
  H   H1285     1.0  0.06311  0.47288  0.72255  1.0000
  N   N55       1.0  0.07009  0.40097  0.73231  1.0000
  H   H1286     1.0  0.03571  0.49255  0.67323  1.0000
  H   H1287     1.0  0.07206  0.43675  0.73544  1.0000
  H   H1288     1.0  0.07239  0.38106  0.71992  1.0000
  H   H1289     1.0  0.07482  0.38205  0.73791  1.0000
  H   H1290     1.0  0.03329  0.39211  0.73037  1.0000
  C   C746      1.0  0.00554  0.34746  0.52406  1.0000
  H   H1291     1.0  0.01069  0.29900  0.56366  1.0000
  H   H1292     1.0  0.03034  0.45859  0.72977  1.0000
  C   C747      1.0  0.05926  0.47006  0.59970  1.0000
  H   H1293     1.0  0.02451  0.48888  0.60197  1.0000
  H   H1294     1.0  0.01542  0.48302  0.65870  1.0000
  S   S196      1.0  0.00746  0.42316  0.61013  1.0000
  C   C748      1.0  0.03152  0.24709  0.54501  1.0000
  H   H1295     1.0  0.05503  0.43745  0.60840  1.0000
  H   H1296     1.0  0.04007  0.30148  0.51994  1.0000
  H   H1297     1.0  0.00997  0.39120  0.52636  1.0000
  N   N56       1.0  0.01153  0.38926  0.55055  1.0000
  C   C749      1.0  0.00196  0.37792  0.59733  1.0000
  H   H1298     1.0  0.07191  0.48129  0.59071  1.0000
  H   H1299     1.0  0.05082  0.45192  0.60002  1.0000
  H   H1300     1.0  0.02398  0.38198  0.52898  1.0000
  H   H1301     1.0  0.01514  0.32372  0.50306  1.0000
  C   C750      1.0  0.01763  0.28874  0.54413  1.0000
  H   H1302     1.0  0.01231  0.25766  0.57437  1.0000
  C   C751      1.0  0.99909  0.38969  0.55014  1.0000
  H   H1303     1.0  0.06047  0.48711  0.60214  1.0000
  H   H1304     1.0  0.99902  0.27783  0.51073  1.0000
  H   H1305     1.0  0.00501  0.47506  0.70136  1.0000
  H   H1306     1.0  0.00198  0.43915  0.69359  1.0000
  H   H1307     1.0  0.04950  0.47166  0.60133  1.0000
  H   H1308     1.0  0.00302  0.34384  0.53336  1.0000
  H   H1309     1.0  0.02756  0.25567  0.50933  1.0000
  H   H1310     1.0  0.00457  0.40041  0.65222  1.0000
  H   H1311     1.0  0.01040  0.31292  0.49974  1.0000
  H   H1312     1.0  0.04839  0.29710  0.50246  1.0000
  S   S197      1.0  0.00024  0.36105  0.58719  1.0000
  H   H1313     1.0  0.05735  0.30750  0.49763  1.0000
  H   H1314     1.0  0.00259  0.28361  0.56614  1.0000
  H   H1315     1.0  0.45463  0.26057  0.98317  1.0000
  H   H1316     1.0  0.03614  0.44393  0.89181  1.0000
  C   C752      1.0  0.48466  0.32750  0.96553  1.0000
  Fe  Fe100     1.0  0.49408  0.28243  0.94600  1.0000
  H   H1317     1.0  0.33828  0.45193  0.95645  1.0000
  C   C753      1.0  0.99809  0.47258  0.90593  1.0000
  Fe  Fe101     1.0  0.49382  0.34746  0.97341  1.0000
  S   S198      1.0  0.48020  0.30144  0.91976  1.0000
  C   C754      1.0  0.22169  0.47658  0.89837  1.0000
  H   H1318     1.0  0.11470  0.45078  0.94864  1.0000
  S   S199      1.0  0.47495  0.28506  0.94632  1.0000
  H   H1319     1.0  0.04769  0.40976  0.74559  1.0000
  Fe  Fe102     1.0  0.48167  0.28222  0.92796  1.0000
  S   S200      1.0  0.47547  0.26944  0.92222  1.0000
  Fe  Fe103     1.0  0.47569  0.30398  0.93823  1.0000
  S   S201      1.0  0.46381  0.32058  0.94351  1.0000
  H   H1320     1.0  0.05051  0.42710  0.75109  1.0000
  H   H1321     1.0  0.12868  0.49244  0.97157  1.0000
  H   H1322     1.0  0.29795  0.40688  0.99127  1.0000
  H   H1323     1.0  0.41242  0.39335  0.98089  1.0000
  H   H1324     1.0  0.46109  0.25581  0.96160  1.0000
  H   H1325     1.0  0.45042  0.24341  0.97655  1.0000
  Fe  Fe104     1.0  0.06041  0.46189  0.75659  1.0000
  S   S202      1.0  0.06387  0.44492  0.76955  1.0000
  S   S203      1.0  0.04283  0.46839  0.75200  1.0000
  Fe  Fe105     1.0  0.07268  0.45418  0.77696  1.0000
  S   S204      1.0  0.06672  0.45358  0.79650  1.0000
  Fe  Fe106     1.0  0.08112  0.44103  0.75689  1.0000
  S   S205      1.0  0.41142  0.44327  0.98516  1.0000
  S   S206      1.0  0.06772  0.47159  0.76487  1.0000
  C   C755      1.0  0.46181  0.26476  0.98251  1.0000
  H   H1326     1.0  0.06414  0.40164  0.75086  1.0000
  C   C756      1.0  0.48575  0.33375  0.91884  1.0000
  H   H1327     1.0  0.04782  0.42921  0.77660  1.0000
  H   H1328     1.0  0.47922  0.28634  0.96603  1.0000
  H   H1329     1.0  0.23256  0.42249  0.94300  1.0000
  Fe  Fe107     1.0  0.10167  0.47797  0.85676  1.0000
  H   H1330     1.0  0.23334  0.45477  0.93557  1.0000
  S   S207      1.0  0.25881  0.45072  0.92486  1.0000
  Fe  Fe108     1.0  0.09577  0.47142  0.83651  1.0000
  S   S208      1.0  0.08288  0.48849  0.83276  1.0000
  S   S209      1.0  0.10144  0.45936  0.82378  1.0000
  C   C757      1.0  0.19016  0.48705  0.97266  1.0000
  C   C758      1.0  0.22094  0.46250  0.96054  1.0000
  H   H1331     1.0  0.06000  0.38808  0.74325  1.0000
  C   C759      1.0  0.25347  0.44980  0.95940  1.0000
  S   S210      1.0  0.10965  0.47971  0.83743  1.0000
  S   S211      1.0  0.08888  0.46786  0.85613  1.0000
  C   C760      1.0  0.45229  0.24947  0.93987  1.0000
  H   H1332     1.0  0.13759  0.45382  0.92081  1.0000
  H   H1333     1.0  0.48865  0.30865  0.97152  1.0000
  S   S212      1.0  0.49470  0.32917  0.97246  1.0000
  C   C761      1.0  0.37260  0.47983  0.92601  1.0000
  C   C762      1.0  0.31857  0.43953  0.94055  1.0000
  C   C763      1.0  0.22371  0.45740  0.93608  1.0000
  N   N57       1.0  0.29804  0.44771  0.93573  1.0000
  H   H1334     1.0  0.02916  0.43878  0.78215  1.0000
  N   N58       1.0  0.43420  0.47520  0.98092  1.0000
  C   C764      1.0  0.25093  0.46167  0.95973  1.0000
  H   H1335     1.0  0.43639  0.40965  0.97971  1.0000
  C   C765      1.0  0.36807  0.48601  0.93504  1.0000
  C   C766      1.0  0.01883  0.45141  0.90301  1.0000
  H   H1336     1.0  0.24019  0.48919  0.93045  1.0000
  H   H1337     1.0  0.45664  0.48011  0.97384  1.0000
  H   H1338     1.0  0.37975  0.41783  0.94640  1.0000
  S   S213      1.0  0.33895  0.47312  0.89797  1.0000
  C   C767      1.0  0.05259  0.42490  0.79787  1.0000
  C   C768      1.0  0.48363  0.24659  0.91986  1.0000
  H   H1339     1.0  0.01071  0.41522  0.74602  1.0000
  H   H1340     1.0  0.43485  0.24538  0.95947  1.0000
  H   H1341     1.0  0.29450  0.42694  0.93125  1.0000
  C   C769      1.0  0.45305  0.40738  0.95633  1.0000
  H   H1342     1.0  0.46710  0.31539  0.99081  1.0000
  Fe  Fe109     1.0  0.00513  0.46988  0.85362  1.0000
  H   H1343     1.0  0.28904  0.43925  0.92000  1.0000
  H   H1344     1.0  0.12501  0.45755  0.91434  1.0000
  H   H1345     1.0  0.01865  0.45527  0.91037  1.0000
  C   C770      1.0  0.45089  0.42322  0.96584  1.0000
  C   C771      1.0  0.28775  0.43514  0.92952  1.0000
  H   H1346     1.0  0.43908  0.39294  0.97237  1.0000
  C   C772      1.0  0.46539  0.40481  0.96975  1.0000
  S   S214      1.0  0.39006  0.45091  0.97129  1.0000
  C   C773      1.0  0.08282  0.39569  0.74781  1.0000
  H   H1347     1.0  0.03934  0.46384  0.87910  1.0000
  S   S215      1.0  0.27276  0.47715  0.90992  1.0000
  Fe  Fe110     1.0  0.07677  0.48569  0.85234  1.0000
  H   H1348     1.0  0.29353  0.45032  0.95359  1.0000
  N   N59       1.0  0.36256  0.44065  0.94864  1.0000
  H   H1349     1.0  0.43330  0.38071  0.98045  1.0000
  C   C774      1.0  0.40481  0.49063  0.96814  1.0000
  C   C775      1.0  0.28489  0.46624  0.94328  1.0000
  H   H1350     1.0  0.06199  0.42015  0.79634  1.0000
  H   H1351     1.0  0.45470  0.34894  0.98880  1.0000
  C   C776      1.0  0.11520  0.48446  0.93336  1.0000
  H   H1352     1.0  0.02943  0.43341  0.90321  1.0000
  C   C777      1.0  0.03674  0.48567  0.79681  1.0000
  C   C778      1.0  0.11775  0.45904  0.94418  1.0000
  H   H1353     1.0  0.12108  0.48806  0.77692  1.0000
  Fe  Fe111     1.0  0.01112  0.42066  0.77402  1.0000
  C   C779      1.0  0.30497  0.47743  0.89636  1.0000
  H   H1354     1.0  0.44321  0.48467  0.96430  1.0000
  H   H1355     1.0  0.06353  0.40410  0.77986  1.0000
  C   C780      1.0  0.28898  0.42143  0.97978  1.0000
  C   C781      1.0  0.07633  0.45616  0.80353  1.0000
  C   C782      1.0  0.08847  0.45385  0.79900  1.0000
  C   C783      1.0  0.09605  0.45491  0.80529  1.0000
  C   C784      1.0  0.09154  0.45871  0.81592  1.0000
  C   C785      1.0  0.07936  0.46155  0.82019  1.0000
  C   C786      1.0  0.07178  0.46008  0.81412  1.0000
  H   H1356     1.0  0.09207  0.45074  0.79091  1.0000
  H   H1357     1.0  0.10547  0.45263  0.80199  1.0000
  H   H1358     1.0  0.07582  0.46439  0.82843  1.0000
  H   H1359     1.0  0.06242  0.46176  0.81778  1.0000
  C   C787      1.0  0.03204  0.43422  0.75712  1.0000
  C   C788      1.0  0.02341  0.44436  0.75906  1.0000
  C   C789      1.0  0.02664  0.45508  0.75699  1.0000
  C   C790      1.0  0.03847  0.45560  0.75299  1.0000
  C   C791      1.0  0.04701  0.44556  0.75066  1.0000
  C   C792      1.0  0.04380  0.43489  0.75262  1.0000
  H   H1360     1.0  0.01430  0.44390  0.76230  1.0000
  H   H1361     1.0  0.02010  0.46283  0.75892  1.0000
  Fe  Fe112     1.0  0.25752  0.49250  0.90819  1.0000
  H   H1362     1.0  0.00001  0.47296  0.88772  1.0000
  C   C793      1.0  0.03378  0.47125  0.85211  1.0000
  C   C794      1.0  0.04603  0.46827  0.84802  1.0000
  C   C795      1.0  0.05332  0.47414  0.85027  1.0000
  Fe  Fe113     1.0  0.17013  0.48989  0.91013  1.0000
  C   C796      1.0  0.37497  0.42183  0.98622  1.0000
  H   H1363     1.0  0.13309  0.48848  0.83259  1.0000
  H   H1364     1.0  0.04992  0.46132  0.84320  1.0000
  H   H1365     1.0  0.06276  0.47171  0.84719  1.0000
  H   H1366     1.0  0.14219  0.49086  0.84075  1.0000
  H   H1367     1.0  0.21771  0.44507  0.96586  1.0000
  H   H1368     1.0  0.10272  0.46740  0.91472  1.0000
  H   H1369     1.0  0.47606  0.30556  0.96045  1.0000
  H   H1370     1.0  0.43799  0.46205  0.96264  1.0000
  C   C797      1.0  0.48432  0.25520  0.92510  1.0000
  S   S216      1.0  0.41501  0.46019  0.95886  1.0000
  H   H1371     1.0  0.02062  0.48659  0.75256  1.0000
  C   C798      1.0  0.31501  0.46139  0.97064  1.0000
  H   H1372     1.0  0.30176  0.46537  0.96069  1.0000
  H   H1373     1.0  0.06478  0.48823  0.82012  1.0000
  H   H1374     1.0  0.44365  0.34793  0.98229  1.0000
  H   H1375     1.0  0.03985  0.42820  0.81457  1.0000
  H   H1376     1.0  0.22675  0.46772  0.95367  1.0000
  C   C799      1.0  0.01830  0.45665  0.88156  1.0000
  C   C800      1.0  0.47527  0.28763  0.98391  1.0000
  C   C801      1.0  0.02886  0.48023  0.85834  1.0000
  H   H1377     1.0  0.35142  0.46703  0.98570  1.0000
  H   H1378     1.0  0.11581  0.46421  0.95100  1.0000
  H   H1379     1.0  0.43419  0.26517  0.95074  1.0000
  H   H1380     1.0  0.27921  0.43248  0.93202  1.0000
  H   H1381     1.0  0.47530  0.25009  0.97815  1.0000
  S   S217      1.0  0.02843  0.42050  0.76117  1.0000
  H   H1382     1.0  0.05363  0.49025  0.78832  1.0000
  H   H1383     1.0  0.38816  0.43666  0.92712  1.0000
  H   H1384     1.0  0.44071  0.42410  0.95360  1.0000
  H   H1385     1.0  0.02779  0.45425  0.87759  1.0000
  C   C802      1.0  0.47798  0.33713  0.95898  1.0000
  C   C803      1.0  0.47086  0.33522  0.95265  1.0000
  C   C804      1.0  0.47048  0.32371  0.95298  1.0000
  C   C805      1.0  0.01606  0.40624  0.74539  1.0000
  H   H1386     1.0  0.00094  0.46949  0.75756  1.0000
  H   H1387     1.0  0.47859  0.34597  0.95849  1.0000
  H   H1388     1.0  0.46609  0.34256  0.94714  1.0000
  H   H1389     1.0  0.12541  0.47454  0.79329  1.0000
  H   H1390     1.0  0.48170  0.32611  0.92085  1.0000
  C   C806      1.0  0.25594  0.44637  0.94870  1.0000
  H   H1391     1.0  0.42956  0.48268  0.96405  1.0000
  H   H1392     1.0  0.17284  0.48233  0.98057  1.0000
  C   C807      1.0  0.46184  0.40028  0.96226  1.0000
  C   C808      1.0  0.45996  0.41628  0.97149  1.0000
  H   H1393     1.0  0.03229  0.49280  0.86570  1.0000
  H   H1394     1.0  0.28323  0.44019  0.94613  1.0000
  H   H1395     1.0  0.47219  0.39942  0.97434  1.0000
  S   S218      1.0  0.33598  0.48129  0.92811  1.0000
  H   H1396     1.0  0.33345  0.47892  0.96765  1.0000
  H   H1397     1.0  0.05431  0.47840  0.80086  1.0000
  H   H1398     1.0  0.03950  0.46158  0.89452  1.0000
  H   H1399     1.0  0.25976  0.42758  0.98062  1.0000
  H   H1400     1.0  0.36956  0.40982  0.95683  1.0000
  S   S219      1.0  0.47774  0.35795  0.98316  1.0000
  S   S220      1.0  0.29403  0.47889  0.87871  1.0000
  H   H1401     1.0  0.33794  0.49290  0.98056  1.0000
  H   H1402     1.0  0.11150  0.48982  0.91113  1.0000
  C   C809      1.0  0.27824  0.42712  0.97662  1.0000
  H   H1403     1.0  0.21932  0.48641  0.98204  1.0000
  H   H1404     1.0  0.01192  0.44617  0.90660  1.0000
  H   H1405     1.0  0.03108  0.40290  0.81276  1.0000
  H   H1406     1.0  0.08325  0.38614  0.74977  1.0000
  S   S221      1.0  0.44321  0.43699  0.96921  1.0000
  C   C810      1.0  0.02319  0.38026  0.75503  1.0000
  S   S222      1.0  0.99650  0.47514  0.83837  1.0000
  S   S223      1.0  0.07693  0.45736  0.74340  1.0000
  C   C811      1.0  0.38478  0.41378  0.98980  1.0000
  C   C812      1.0  0.44757  0.41878  0.95813  1.0000
  S   S224      1.0  0.02491  0.46344  0.84955  1.0000
  H   H1407     1.0  0.05614  0.44598  0.74758  1.0000
  C   C813      1.0  0.32750  0.47106  0.88255  1.0000
  Fe  Fe114     1.0  0.42414  0.44247  0.96787  1.0000
  C   C814      1.0  0.30727  0.43701  0.93942  1.0000
  H   H1408     1.0  0.37503  0.45153  0.94055  1.0000
  C   C815      1.0  0.01306  0.48970  0.81298  1.0000
  C   C816      1.0  0.12676  0.49297  0.88735  1.0000
  H   H1409     1.0  0.01247  0.47371  0.80865  1.0000
  C   C817      1.0  0.13221  0.46085  0.91518  1.0000
  C   C818      1.0  0.20035  0.48976  0.89242  1.0000
  H   H1410     1.0  0.38156  0.43730  0.94680  1.0000
  H   H1411     1.0  0.32214  0.44589  0.93278  1.0000
  H   H1412     1.0  0.03044  0.38498  0.75106  1.0000
  H   H1413     1.0  0.18853  0.46122  0.94269  1.0000
  C   C819      1.0  0.21103  0.49278  0.88588  1.0000
  C   C820      1.0  0.31127  0.47905  0.95566  1.0000
  H   H1414     1.0  0.22403  0.46080  0.96876  1.0000
  H   H1415     1.0  0.46369  0.26995  0.97334  1.0000
  H   H1416     1.0  0.11554  0.47471  0.77053  1.0000
  C   C821      1.0  0.44396  0.46780  0.96167  1.0000
  H   H1417     1.0  0.47766  0.24874  0.91407  1.0000
  N   N60       1.0  0.43123  0.39378  0.99053  1.0000
  H   H1418     1.0  0.37476  0.41984  0.96131  1.0000
  H   H1419     1.0  0.32540  0.43121  0.94140  1.0000
  Fe  Fe115     1.0  0.40434  0.45003  0.95491  1.0000
  H   H1420     1.0  0.36771  0.43785  0.96502  1.0000
  C   C822      1.0  0.42601  0.46690  0.98441  1.0000
  H   H1421     1.0  0.10011  0.48079  0.90420  1.0000
  C   C823      1.0  0.27281  0.45852  0.98523  1.0000
  H   H1422     1.0  0.08357  0.48618  0.80505  1.0000
  H   H1423     1.0  0.31401  0.47717  0.90939  1.0000
  H   H1424     1.0  0.05703  0.40227  0.80043  1.0000
  C   C824      1.0  0.06170  0.41374  0.77641  1.0000
  S   S225      1.0  0.33179  0.42781  0.97539  1.0000
  H   H1425     1.0  0.31853  0.47122  0.86952  1.0000
  H   H1426     1.0  0.49196  0.25862  0.93743  1.0000
  H   H1427     1.0  0.35363  0.42638  0.95728  1.0000
  C   C825      1.0  0.04756  0.40581  0.80020  1.0000
  H   H1428     1.0  0.40837  0.48389  0.96308  1.0000
  H   H1429     1.0  0.05228  0.43413  0.81095  1.0000
  S   S226      1.0  0.00661  0.41690  0.81596  1.0000
  H   H1430     1.0  0.44958  0.39329  0.98900  1.0000
  C   C826      1.0  0.32388  0.46524  0.97271  1.0000
  H   H1431     1.0  0.00079  0.48105  0.90381  1.0000
  H   H1432     1.0  0.14221  0.47887  0.88750  1.0000
  H   H1433     1.0  0.49180  0.32794  0.93478  1.0000
  S   S227      1.0  0.41472  0.43225  0.96235  1.0000
  C   C827      1.0  0.01328  0.44597  0.88272  1.0000
  H   H1434     1.0  0.02725  0.37091  0.75448  1.0000
  C   C828      1.0  0.00260  0.43333  0.82903  1.0000
  C   C829      1.0  0.10750  0.48396  0.80062  1.0000
  C   C830      1.0  0.05025  0.48224  0.79314  1.0000
  H   H1435     1.0  0.36984  0.48743  0.95170  1.0000
  C   C831      1.0  0.10807  0.48231  0.91741  1.0000
  C   C832      1.0  0.37843  0.43978  0.92934  1.0000
  S   S228      1.0  0.15264  0.48473  0.91739  1.0000
  H   H1436     1.0  0.26496  0.48134  0.98839  1.0000
  H   H1437     1.0  0.35216  0.46233  0.95724  1.0000
  N   N61       1.0  0.45060  0.25218  0.95174  1.0000
  C   C833      1.0  0.25160  0.47014  0.94923  1.0000
  N   N62       1.0  0.03065  0.47566  0.80243  1.0000
  C   C834      1.0  0.03334  0.46734  0.79436  1.0000
  C   C835      1.0  0.03484  0.46889  0.81349  1.0000
  C   C836      1.0  0.02215  0.47073  0.89044  1.0000
  H   H1438     1.0  0.13087  0.47955  0.91196  1.0000
  C   C837      1.0  0.02827  0.45929  0.82120  1.0000
  H   H1439     1.0  0.00261  0.39847  0.75788  1.0000
  H   H1440     1.0  0.04238  0.46170  0.79396  1.0000
  H   H1441     1.0  0.02736  0.46116  0.79783  1.0000
  H   H1442     1.0  0.03459  0.47483  0.81910  1.0000
  H   H1443     1.0  0.04426  0.46430  0.81131  1.0000
  C   C838      1.0  0.01757  0.48070  0.80502  1.0000
  S   S229      1.0  0.49439  0.30145  0.93931  1.0000
  C   C839      1.0  0.26808  0.42306  0.98286  1.0000
  H   H1444     1.0  0.03898  0.47566  0.88510  1.0000
  C   C840      1.0  0.37642  0.39766  0.99045  1.0000
  C   C841      1.0  0.38262  0.47057  0.92648  1.0000
  H   H1445     1.0  0.03286  0.45422  0.82839  1.0000
  H   H1446     1.0  0.01915  0.46314  0.82540  1.0000
  H   H1447     1.0  0.02825  0.45285  0.81632  1.0000
  H   H1448     1.0  0.04305  0.41623  0.77831  1.0000
  H   H1449     1.0  0.01696  0.48678  0.82080  1.0000
  H   H1450     1.0  0.27638  0.46353  0.94666  1.0000
  C   C842      1.0  0.44191  0.24551  0.97391  1.0000
  H   H1451     1.0  0.28120  0.48005  0.96994  1.0000
  H   H1452     1.0  0.01461  0.48548  0.79676  1.0000
  S   S230      1.0  0.08813  0.42403  0.75066  1.0000
  C   C843      1.0  0.03215  0.47296  0.78156  1.0000
  H   H1453     1.0  0.44417  0.25353  0.93634  1.0000
  C   C844      1.0  0.49352  0.27644  0.97412  1.0000
  H   H1454     1.0  0.48872  0.33606  0.90916  1.0000
  C   C845      1.0  0.31501  0.47600  0.90066  1.0000
  H   H1455     1.0  0.12075  0.47074  0.80887  1.0000
  H   H1456     1.0  0.01472  0.46380  0.87460  1.0000
  H   H1457     1.0  0.01375  0.37463  0.77339  1.0000
  H   H1458     1.0  0.41821  0.48838  0.98501  1.0000
  H   H1459     1.0  0.00828  0.36837  0.75551  1.0000
  S   S231      1.0  0.30134  0.42732  0.97246  1.0000
  C   C846      1.0  0.30857  0.46839  0.96227  1.0000
  H   H1460     1.0  0.00132  0.40158  0.74311  1.0000
  Fe  Fe116     1.0  0.24967  0.48447  0.89076  1.0000
  C   C847      1.0  0.30960  0.44762  0.91405  1.0000
  H   H1461     1.0  0.37478  0.43278  0.92850  1.0000
  C   C848      1.0  0.49191  0.25230  0.93276  1.0000
  H   H1462     1.0  0.26876  0.46618  0.97906  1.0000
  H   H1463     1.0  0.21181  0.46769  0.96219  1.0000
  H   H1464     1.0  0.29633  0.48009  0.90166  1.0000
  H   H1465     1.0  0.08266  0.39794  0.75612  1.0000
  H   H1466     1.0  0.01933  0.44082  0.79581  1.0000
  H   H1467     1.0  0.19568  0.47801  0.97471  1.0000
  C   C849      1.0  0.48372  0.31613  0.96630  1.0000
  H   H1468     1.0  0.04064  0.40730  0.81888  1.0000
  Fe  Fe117     1.0  0.00037  0.41743  0.80005  1.0000
  H   H1469     1.0  0.19448  0.49117  0.96367  1.0000
  C   C850      1.0  0.03230  0.42425  0.79732  1.0000
  Fe  Fe118     1.0  0.31403  0.42396  0.98387  1.0000
  H   H1470     1.0  0.27769  0.43485  0.96955  1.0000
  H   H1471     1.0  0.31318  0.45296  0.97534  1.0000
  H   H1472     1.0  0.28999  0.46239  0.98024  1.0000
  H   H1473     1.0  0.02760  0.37776  0.77186  1.0000
  S   S232      1.0  0.23442  0.43658  0.98330  1.0000
  H   H1474     1.0  0.46259  0.41967  0.97745  1.0000
  H   H1475     1.0  0.33495  0.45545  0.94235  1.0000
  C   C851      1.0  0.49519  0.34973  0.92750  1.0000
  H   H1476     1.0  0.02214  0.40394  0.75136  1.0000
  H   H1477     1.0  0.13225  0.48149  0.84757  1.0000
  H   H1478     1.0  0.02876  0.42340  0.80689  1.0000
  H   H1479     1.0  0.42141  0.39183  0.96673  1.0000
  H   H1480     1.0  0.35797  0.45675  0.97009  1.0000
  C   C852      1.0  0.11117  0.46575  0.93426  1.0000
  H   H1481     1.0  0.21982  0.49105  0.94234  1.0000
  H   H1482     1.0  0.21311  0.47482  0.94025  1.0000
  H   H1483     1.0  0.28004  0.45176  0.93392  1.0000
  H   H1484     1.0  0.13451  0.47134  0.92549  1.0000
  C   C853      1.0  0.20033  0.48003  0.90186  1.0000
  H   H1485     1.0  0.36790  0.45895  0.95625  1.0000
  C   C854      1.0  0.36049  0.44325  0.96058  1.0000
  H   H1486     1.0  0.46665  0.29332  0.98356  1.0000
  H   H1487     1.0  0.29439  0.46066  0.92006  1.0000
  Fe  Fe119     1.0  0.26002  0.46678  0.91045  1.0000
  H   H1488     1.0  0.00345  0.49059  0.81650  1.0000
  H   H1489     1.0  0.30356  0.43170  0.94804  1.0000
  H   H1490     1.0  0.21116  0.46556  0.91165  1.0000
  C   C855      1.0  0.44368  0.24417  0.96122  1.0000
  C   C856      1.0  0.28324  0.46076  0.98846  1.0000
  C   C857      1.0  0.04939  0.42633  0.81069  1.0000
  H   H1491     1.0  0.03397  0.44267  0.79310  1.0000
  C   C858      1.0  0.10645  0.47510  0.90962  1.0000
  C   C859      1.0  0.42760  0.48616  0.98557  1.0000
  H   H1492     1.0  0.45213  0.37488  0.98379  1.0000
  C   C860      1.0  0.99758  0.42751  0.82390  1.0000
  C   C861      1.0  0.38347  0.47362  0.94504  1.0000
  H   H1493     1.0  0.31906  0.44748  0.91267  1.0000
  C   C862      1.0  0.22204  0.45060  0.95771  1.0000
  C   C863      1.0  0.13379  0.48218  0.88505  1.0000
  H   H1494     1.0  0.02003  0.47444  0.89837  1.0000
  C   C864      1.0  0.43155  0.39035  0.97941  1.0000
  S   S233      1.0  0.18712  0.47603  0.91032  1.0000
  H   H1495     1.0  0.01533  0.38969  0.76963  1.0000
  C   C865      1.0  0.46225  0.25160  0.95419  1.0000
  H   H1496     1.0  0.46738  0.25703  0.94669  1.0000
  H   H1497     1.0  0.49429  0.36629  0.93151  1.0000
  C   C866      1.0  0.00420  0.37797  0.75429  1.0000
  H   H1498     1.0  0.10337  0.47670  0.80143  1.0000
  H   H1499     1.0  0.28490  0.47214  0.94880  1.0000
  H   H1500     1.0  0.33618  0.46871  0.87711  1.0000
  Fe  Fe120     1.0  0.08481  0.46548  0.75277  1.0000
  C   C867      1.0  0.30622  0.47588  0.88504  1.0000
  C   C868      1.0  0.36153  0.42816  0.95036  1.0000
  H   H1501     1.0  0.10629  0.48630  0.93921  1.0000
  C   C869      1.0  0.34070  0.44905  0.94805  1.0000
  C   C870      1.0  0.48242  0.28379  0.97390  1.0000
  H   H1502     1.0  0.24152  0.48943  0.98237  1.0000
  C   C871      1.0  0.42980  0.40696  0.98769  1.0000
  C   C872      1.0  0.35367  0.44888  0.94187  1.0000
  H   H1503     1.0  0.32250  0.49102  0.95234  1.0000
  H   H1504     1.0  0.04561  0.40068  0.79494  1.0000
  C   C873      1.0  0.07168  0.40317  0.74337  1.0000
  H   H1505     1.0  0.22990  0.47140  0.90065  1.0000
  C   C874      1.0  0.25432  0.46669  0.93850  1.0000
  H   H1506     1.0  0.35234  0.44075  0.96649  1.0000
  N   N63       1.0  0.04528  0.41876  0.79446  1.0000
  C   C875      1.0  0.04889  0.41984  0.78131  1.0000
  C   C876      1.0  0.21106  0.47332  0.90463  1.0000
  H   H1507     1.0  0.05394  0.41850  0.81635  1.0000
  H   H1508     1.0  0.35500  0.44660  0.93326  1.0000
  H   H1509     1.0  0.25357  0.44324  0.96739  1.0000
  C   C877      1.0  0.11208  0.49075  0.87833  1.0000
  C   C878      1.0  0.44329  0.26459  0.95145  1.0000
  H   H1510     1.0  0.24983  0.47934  0.94938  1.0000
  H   H1511     1.0  0.07780  0.49041  0.75540  1.0000
  H   H1512     1.0  0.12497  0.48435  0.80243  1.0000
  C   C879      1.0  0.44801  0.27427  0.94146  1.0000
  H   H1513     1.0  0.05287  0.43372  0.79207  1.0000
  Fe  Fe121     1.0  0.40139  0.43419  0.97914  1.0000
  H   H1514     1.0  0.00354  0.44792  0.88527  1.0000
  C   C880      1.0  0.03082  0.44250  0.90088  1.0000
  H   H1515     1.0  0.44233  0.26735  0.95971  1.0000
  H   H1516     1.0  0.44683  0.47121  0.95208  1.0000
  H   H1517     1.0  0.04402  0.39279  0.81642  1.0000
  H   H1518     1.0  0.03905  0.47791  0.77663  1.0000
  C   C881      1.0  0.32629  0.47319  0.89360  1.0000
  H   H1519     1.0  0.09911  0.48619  0.92216  1.0000
  H   H1520     1.0  0.34903  0.48706  0.96920  1.0000
  H   H1521     1.0  0.44887  0.27282  0.93261  1.0000
  H   H1522     1.0  0.44173  0.28286  0.94205  1.0000
  H   H1523     1.0  0.45652  0.27522  0.94225  1.0000
  H   H1524     1.0  0.37583  0.44788  0.92276  1.0000
  S   S234      1.0  0.05721  0.49027  0.86000  1.0000
  C   C882      1.0  0.12853  0.47243  0.91963  1.0000
  C   C883      1.0  0.45154  0.34282  0.98582  1.0000
  H   H1525     1.0  0.20877  0.47738  0.98699  1.0000
  C   C884      1.0  0.32651  0.47598  0.96618  1.0000
  H   H1526     1.0  0.25492  0.47320  0.93043  1.0000
  H   H1527     1.0  0.45821  0.33964  0.97836  1.0000
  H   H1528     1.0  0.00063  0.46692  0.91410  1.0000
  N   N64       1.0  0.21730  0.45084  0.94742  1.0000
  C   C885      1.0  0.21930  0.43824  0.94647  1.0000
  C   C886      1.0  0.20415  0.45566  0.94999  1.0000
  S   S235      1.0  0.00284  0.43336  0.78585  1.0000
  C   C887      1.0  0.35960  0.45610  0.96082  1.0000
  H   H1529     1.0  0.23160  0.44653  0.95634  1.0000
  C   C888      1.0  0.19801  0.45707  0.94001  1.0000
  C   C889      1.0  0.37206  0.41846  0.95392  1.0000
  H   H1530     1.0  0.21401  0.43326  0.95434  1.0000
  H   H1531     1.0  0.21629  0.43786  0.93878  1.0000
  H   H1532     1.0  0.20163  0.46434  0.95231  1.0000
  H   H1533     1.0  0.19979  0.44997  0.95798  1.0000
  S   S236      1.0  0.20035  0.44509  0.99085  1.0000
  H   H1534     1.0  0.03477  0.49171  0.80284  1.0000
  S   S237      1.0  0.24628  0.46596  0.97324  1.0000
  H   H1535     1.0  0.17657  0.45937  0.99129  1.0000
  Fe  Fe122     1.0  0.23879  0.45173  0.98700  1.0000
  C   C890      1.0  0.03572  0.46751  0.88710  1.0000
  H   H1536     1.0  0.35792  0.42393  0.98276  1.0000
  C   C891      1.0  0.11132  0.48971  0.77861  1.0000
  H   H1537     1.0  0.27607  0.45106  0.98069  1.0000
  H   H1538     1.0  0.30752  0.46049  0.92382  1.0000
  H   H1539     1.0  0.01946  0.48266  0.86146  1.0000
  Fe  Fe123     1.0  0.48224  0.37351  0.96914  1.0000
  C   C892      1.0  0.23215  0.43097  0.94506  1.0000
  Fe  Fe124     1.0  0.27582  0.47987  0.89043  1.0000
  H   H1540     1.0  0.28544  0.47149  0.93415  1.0000
  S   S238      1.0  0.24446  0.48196  0.91024  1.0000
  H   H1541     1.0  0.45932  0.25347  0.93332  1.0000
  H   H1542     1.0  0.36005  0.42660  0.94234  1.0000
  C   C893      1.0  0.28690  0.44402  0.93677  1.0000
  S   S239      1.0  0.39951  0.45478  0.93736  1.0000
  H   H1543     1.0  0.20159  0.46294  0.93182  1.0000
  C   C894      1.0  0.02865  0.43740  0.79169  1.0000
  H   H1544     1.0  0.18003  0.47865  0.96662  1.0000
  S   S240      1.0  0.46755  0.38561  0.96060  1.0000
  H   H1545     1.0  0.45033  0.40396  0.95045  1.0000
  N   N65       1.0  0.11589  0.47600  0.92599  1.0000
  C   C895      1.0  0.38797  0.46734  0.93608  1.0000
  C   C896      1.0  0.32033  0.48280  0.95752  1.0000
  C   C897      1.0  0.12047  0.47822  0.80113  1.0000
  H   H1546     1.0  0.30303  0.45915  0.94344  1.0000
  H   H1547     1.0  0.25767  0.43717  0.94856  1.0000
  H   H1548     1.0  0.35487  0.45807  0.93955  1.0000
  H   H1549     1.0  0.45343  0.48121  0.98903  1.0000
  C   C898      1.0  0.30207  0.45467  0.92351  1.0000
  C   C899      1.0  0.10813  0.47903  0.77681  1.0000
  C   C900      1.0  0.28018  0.48615  0.97563  1.0000
  H   H1550     1.0  0.02727  0.41947  0.79462  1.0000
  S   S241      1.0  0.11469  0.47156  0.86886  1.0000
  S   S242      1.0  0.00990  0.40464  0.78841  1.0000
  C   C901      1.0  0.04039  0.40218  0.81278  1.0000
  H   H1551     1.0  0.38609  0.46574  0.91952  1.0000
  H   H1552     1.0  0.22815  0.47433  0.93301  1.0000
  H   H1553     1.0  0.33870  0.44034  0.94960  1.0000
  C   C902      1.0  0.08438  0.48971  0.79545  1.0000
  H   H1554     1.0  0.44836  0.45992  0.98466  1.0000
  H   H1555     1.0  0.01202  0.43120  0.82815  1.0000
  H   H1556     1.0  0.49057  0.34690  0.93676  1.0000
  C   C903      1.0  0.29532  0.45550  0.94436  1.0000
  C   C904      1.0  0.25614  0.45487  0.93824  1.0000
  H   H1557     1.0  0.41896  0.40523  0.97116  1.0000
  C   C905      1.0  0.37460  0.44230  0.94182  1.0000
  C   C906      1.0  0.22036  0.47098  0.93364  1.0000
  H   H1558     1.0  0.31700  0.44281  0.94866  1.0000
  H   H1559     1.0  0.22264  0.45482  0.92839  1.0000
  C   C907      1.0  0.09601  0.48906  0.74674  1.0000
  C   C908      1.0  0.11913  0.48002  0.87592  1.0000
  C   C909      1.0  0.12994  0.47572  0.87943  1.0000
  S   S243      1.0  0.26423  0.46810  0.89096  1.0000
  S   S244      1.0  0.33206  0.45638  0.98303  1.0000
  H   H1560     1.0  0.19840  0.44852  0.93818  1.0000
  C   C910      1.0  0.00275  0.46638  0.89548  1.0000
  H   H1561     1.0  0.06316  0.41523  0.76671  1.0000
  H   H1562     1.0  0.30846  0.43859  0.91561  1.0000
  N   N66       1.0  0.01582  0.46104  0.89267  1.0000
  S   S245      1.0  0.09050  0.44870  0.76545  1.0000
  C   C911      1.0  0.45490  0.47523  0.98305  1.0000
  H   H1563     1.0  0.21785  0.47461  0.92501  1.0000
  S   S246      1.0  0.30414  0.48711  0.94433  1.0000
  H   H1564     1.0  0.08731  0.48231  0.79095  1.0000
  H   H1565     1.0  0.11111  0.45913  0.92963  1.0000
  H   H1566     1.0  0.43079  0.45816  0.98233  1.0000
  H   H1567     1.0  0.30723  0.45228  0.90548  1.0000
  C   C912      1.0  0.22170  0.48635  0.88897  1.0000
  H   H1568     1.0  0.23529  0.42868  0.95332  1.0000
  H   H1569     1.0  0.99756  0.45959  0.89753  1.0000
  H   H1570     1.0  0.12740  0.45657  0.94084  1.0000
  H   H1571     1.0  0.29780  0.47374  0.98762  1.0000
  H   H1572     1.0  0.23833  0.43539  0.93773  1.0000
  H   H1573     1.0  0.38760  0.47128  0.95241  1.0000
  H   H1574     1.0  0.06822  0.41752  0.77805  1.0000
  H   H1575     1.0  0.31008  0.43089  0.93341  1.0000
  S   S247      1.0  0.49349  0.37760  0.97863  1.0000
  H   H1576     1.0  0.10016  0.48181  0.77308  1.0000
  Fe  Fe125     1.0  0.40140  0.45998  0.97572  1.0000
  H   H1577     1.0  0.05326  0.47608  0.78718  1.0000
  H   H1578     1.0  0.13810  0.46221  0.90629  1.0000
  C   C913      1.0  0.04838  0.48294  0.85672  1.0000
  C   C914      1.0  0.31751  0.47253  0.87824  1.0000
  H   H1579     1.0  0.10694  0.47206  0.78484  1.0000
  H   H1580     1.0  0.13544  0.46738  0.87767  1.0000
  C   C915      1.0  0.47659  0.31431  0.96010  1.0000
  C   C916      1.0  0.03614  0.48599  0.86070  1.0000
  C   C917      1.0  0.44468  0.46898  0.98633  1.0000
  H   H1581     1.0  0.47153  0.32876  0.98844  1.0000
  C   C918      1.0  0.37346  0.48283  0.94459  1.0000
  H   H1582     1.0  0.36848  0.48228  0.91860  1.0000
  H   H1583     1.0  0.28887  0.48781  0.97497  1.0000
  C   C919      1.0  0.21158  0.48482  0.98016  1.0000
  C   C920      1.0  0.47311  0.25559  0.98474  1.0000
  H   H1584     1.0  0.01911  0.47816  0.88339  1.0000
  Fe  Fe126     1.0  0.32765  0.43875  0.98863  1.0000
  C   C921      1.0  0.42037  0.39557  0.97442  1.0000
  H   H1585     1.0  0.10175  0.46877  0.93849  1.0000
  H   H1586     1.0  0.45193  0.46254  0.96493  1.0000
  H   H1587     1.0  0.01691  0.43812  0.88897  1.0000
  C   C922      1.0  0.39678  0.48862  0.97890  1.0000
  C   C923      1.0  0.27393  0.48183  0.98845  1.0000
  H   H1588     1.0  0.99979  0.37956  0.76326  1.0000
  C   C924      1.0  0.01959  0.38068  0.76819  1.0000
  H   H1589     1.0  0.21453  0.48236  0.97148  1.0000
  H   H1590     1.0  0.02336  0.47869  0.78090  1.0000
  H   H1591     1.0  0.12147  0.48062  0.93932  1.0000
  H   H1592     1.0  0.03627  0.44273  0.90673  1.0000
  H   H1593     1.0  0.03341  0.46580  0.77700  1.0000
  C   C925      1.0  0.36647  0.40566  0.98717  1.0000
  H   H1594     1.0  0.37439  0.43117  0.98463  1.0000
  H   H1595     1.0  0.99932  0.44659  0.83900  1.0000
  C   C926      1.0  0.17832  0.48538  0.97184  1.0000
  S   S248      1.0  0.39285  0.47501  0.98491  1.0000
  H   H1596     1.0  0.42111  0.41161  0.98559  1.0000
  H   H1597     1.0  0.48810  0.35405  0.92257  1.0000
  Fe  Fe127     1.0  0.33561  0.48629  0.90903  1.0000
  H   H1598     1.0  0.03335  0.49110  0.78896  1.0000
  C   C927      1.0  0.36567  0.41776  0.98519  1.0000
  H   H1599     1.0  0.45894  0.27125  0.98817  1.0000
  H   H1600     1.0  0.05036  0.48652  0.82176  1.0000
  N   N67       1.0  0.01346  0.38509  0.74839  1.0000
  C   C928      1.0  0.13334  0.48987  0.84116  1.0000
  H   H1601     1.0  0.47866  0.34098  0.92200  1.0000
  H   H1602     1.0  0.01578  0.44358  0.87401  1.0000
  H   H1603     1.0  0.48023  0.26044  0.98221  1.0000
  S   S249      1.0  0.35512  0.40040  0.98563  1.0000
  H   H1604     1.0  0.41904  0.47026  0.97927  1.0000
  C   C929      1.0  0.00777  0.39778  0.74886  1.0000
  Fe  Fe128     1.0  0.33786  0.41301  0.98960  1.0000
  H   H1605     1.0  0.03499  0.49178  0.75765  1.0000
  S   S250      1.0  0.23485  0.49084  0.88117  1.0000
  H   H1606     1.0  0.46319  0.46850  0.98391  1.0000
  H   H1607     1.0  0.11473  0.47246  0.90328  1.0000
  C   C930      1.0  0.28963  0.41139  0.98890  1.0000
  C   C931      1.0  0.43755  0.47822  0.96767  1.0000
  H   H1608     1.0  0.07190  0.41254  0.74217  1.0000
  H   H1609     1.0  0.10316  0.48728  0.80885  1.0000
  H   H1610     1.0  0.43676  0.25432  0.97530  1.0000
  C   C932      1.0  0.05602  0.49298  0.81824  1.0000
  H   H1611     1.0  0.48594  0.73349  0.00255  1.0000
  H   H1612     1.0  0.32427  0.52706  0.00536  1.0000
  H   H1613     1.0  0.13571  0.51439  0.19623  1.0000
  H   H1614     1.0  0.29700  0.56802  0.01327  1.0000
  C   C933      1.0  0.45974  0.57447  0.01170  1.0000
  Fe  Fe129     1.0  0.30349  0.50535  0.03324  1.0000
  C   C934      1.0  0.44357  0.64575  0.02389  1.0000
  S   S251      1.0  0.29636  0.51979  0.04316  1.0000
  C   C935      1.0  0.01099  0.53396  0.11389  1.0000
  H   H1615     1.0  0.28457  0.55186  0.00206  1.0000
  H   H1616     1.0  0.11765  0.53060  0.17434  1.0000
  H   H1617     1.0  0.23636  0.55594  0.02195  1.0000
  C   C936      1.0  0.04391  0.51956  0.13293  1.0000
  H   H1618     1.0  0.11189  0.50225  0.08459  1.0000
  H   H1619     1.0  0.10422  0.51229  0.21050  1.0000
  S   S252      1.0  0.30802  0.50976  0.01363  1.0000
  H   H1620     1.0  0.00958  0.53447  0.10513  1.0000
  N   N68       1.0  0.46092  0.56740  0.99305  1.0000
  H   H1621     1.0  0.42642  0.73895  0.00480  1.0000
  H   H1622     1.0  0.33037  0.53588  0.03405  1.0000
  H   H1623     1.0  0.00839  0.54189  0.20538  1.0000
  H   H1624     1.0  0.30005  0.55317  0.01155  1.0000
  S   S253      1.0  0.09439  0.52739  0.23528  1.0000
  H   H1625     1.0  0.24600  0.53149  0.99615  1.0000
  H   H1626     1.0  0.27117  0.54270  0.01675  1.0000
  Fe  Fe130     1.0  0.47460  0.65797  0.03710  1.0000
  S   S254      1.0  0.47086  0.64031  0.03920  1.0000
  C   C937      1.0  0.99734  0.57720  0.19305  1.0000
  C   C938      1.0  0.46549  0.63031  0.02439  1.0000
  Fe  Fe131     1.0  0.23191  0.52356  0.04396  1.0000
  S   S255      1.0  0.23901  0.52589  0.02459  1.0000
  S   S256      1.0  0.24121  0.52662  0.05605  1.0000
  Fe  Fe132     1.0  0.20985  0.51720  0.04289  1.0000
  S   S257      1.0  0.21509  0.51893  0.02344  1.0000
  S   S258      1.0  0.19349  0.51138  0.05417  1.0000
  Fe  Fe133     1.0  0.23299  0.50966  0.02649  1.0000
  H   H1627     1.0  0.06813  0.53380  0.20910  1.0000
  Fe  Fe134     1.0  0.22060  0.53507  0.02322  1.0000
  C   C939      1.0  0.24367  0.55663  0.02529  1.0000
  S   S259      1.0  0.22746  0.50627  0.04611  1.0000
  S   S260      1.0  0.21377  0.53431  0.04250  1.0000
  C   C940      1.0  0.03992  0.49881  0.16630  1.0000
  S   S261      1.0  0.08089  0.52881  0.16819  1.0000
  Fe  Fe135     1.0  0.04884  0.52845  0.18491  1.0000
  S   S262      1.0  0.05399  0.54521  0.17416  1.0000
  Fe  Fe136     1.0  0.06460  0.53417  0.16103  1.0000
  S   S263      1.0  0.06583  0.53952  0.14159  1.0000
  Fe  Fe137     1.0  0.06971  0.53833  0.18234  1.0000
  S   S264      1.0  0.07717  0.55021  0.18807  1.0000
  S   S265      1.0  0.05806  0.51800  0.17116  1.0000
  S   S266      1.0  0.06357  0.52250  0.19433  1.0000
  C   C941      1.0  0.29495  0.54983  0.03622  1.0000
  Fe  Fe138     1.0  0.29735  0.49694  0.01517  1.0000
  C   C942      1.0  0.00658  0.57807  0.19912  1.0000
  C   C943      1.0  0.09756  0.50241  0.04467  1.0000
  Fe  Fe139     1.0  0.14318  0.51196  0.02752  1.0000
  H   H1628     1.0  0.33587  0.54190  0.01908  1.0000
  S   S267      1.0  0.14607  0.52426  0.03669  1.0000
  C   C944      1.0  0.02346  0.52805  0.23397  1.0000
  Fe  Fe140     1.0  0.32286  0.49384  0.01560  1.0000
  H   H1629     1.0  0.23979  0.56285  0.03128  1.0000
  H   H1630     1.0  0.12895  0.54866  0.00815  1.0000
  S   S268      1.0  0.12945  0.51704  0.01679  1.0000
  H   H1631     1.0  0.00032  0.52244  0.21921  1.0000
  H   H1632     1.0  0.01795  0.54439  0.15812  1.0000
  H   H1633     1.0  0.12335  0.50148  0.17151  1.0000
  C   C945      1.0  0.10027  0.51104  0.04836  1.0000
  H   H1634     1.0  0.14883  0.54830  0.03173  1.0000
  H   H1635     1.0  0.10839  0.51390  0.04408  1.0000
  Fe  Fe141     1.0  0.14335  0.50710  0.00419  1.0000
  S   S269      1.0  0.48240  0.73919  0.05327  1.0000
  C   C946      1.0  0.08058  0.54492  0.20200  1.0000
  C   C947      1.0  0.08937  0.54872  0.20427  1.0000
  C   C948      1.0  0.24171  0.56480  0.99585  1.0000
  H   H1636     1.0  0.45688  0.72359  0.06730  1.0000
  H   H1637     1.0  0.09356  0.55523  0.19769  1.0000
  H   H1638     1.0  0.10060  0.54603  0.21612  1.0000
  H   H1639     1.0  0.00541  0.58732  0.19967  1.0000
  C   C949      1.0  0.05711  0.53238  0.13793  1.0000
  H   H1640     1.0  0.00059  0.49545  0.12731  1.0000
  C   C950      1.0  0.34769  0.50372  0.00691  1.0000
  H   H1641     1.0  0.43493  0.65149  0.02401  1.0000
  C   C951      1.0  0.05408  0.52216  0.12483  1.0000
  C   C952      1.0  0.06063  0.52866  0.12729  1.0000
  H   H1642     1.0  0.34404  0.52105  0.02586  1.0000
  H   H1643     1.0  0.04390  0.53314  0.15390  1.0000
  H   H1644     1.0  0.06858  0.53052  0.12111  1.0000
  H   H1645     1.0  0.13288  0.57049  0.00378  1.0000
  H   H1646     1.0  0.36216  0.50213  0.99190  1.0000
  C   C953      1.0  0.99841  0.52498  0.22772  1.0000
  C   C954      1.0  0.32311  0.53589  0.00703  1.0000
  H   H1647     1.0  0.12604  0.50073  0.19271  1.0000
  H   H1648     1.0  0.10344  0.53354  0.17082  1.0000
  H   H1649     1.0  0.14694  0.58308  0.00171  1.0000
  N   N69       1.0  0.04556  0.56912  0.20462  1.0000
  H   H1650     1.0  0.03615  0.50716  0.16941  1.0000
  H   H1651     1.0  0.38587  0.49596  0.99365  1.0000
  C   C955      1.0  0.18061  0.51560  0.04866  1.0000
  C   C956      1.0  0.18093  0.51699  0.03672  1.0000
  C   C957      1.0  0.17039  0.51924  0.03295  1.0000
  C   C958      1.0  0.15952  0.52051  0.04106  1.0000
  C   C959      1.0  0.15927  0.51940  0.05289  1.0000
  C   C960      1.0  0.16976  0.51669  0.05670  1.0000
  H   H1652     1.0  0.18928  0.51610  0.03046  1.0000
  H   H1653     1.0  0.17065  0.52019  0.02377  1.0000
  H   H1654     1.0  0.15093  0.52048  0.05916  1.0000
  H   H1655     1.0  0.16945  0.51558  0.06593  1.0000
  H   H1656     1.0  0.05698  0.51907  0.11673  1.0000
  H   H1657     1.0  0.10726  0.49680  0.18784  1.0000
  H   H1658     1.0  0.03323  0.51518  0.22394  1.0000
  C   C961      1.0  0.04520  0.58717  0.18708  1.0000
  C   C962      1.0  0.15560  0.54803  0.01285  1.0000
  H   H1659     1.0  0.04032  0.50047  0.15679  1.0000
  N   N70       1.0  0.14489  0.55370  0.00763  1.0000
  H   H1660     1.0  0.40499  0.58533  0.00258  1.0000
  H   H1661     1.0  0.27685  0.56508  0.00756  1.0000
  C   C963      1.0  0.28094  0.52321  0.04573  1.0000
  C   C964      1.0  0.27426  0.52718  0.05588  1.0000
  C   C965      1.0  0.26200  0.52860  0.05874  1.0000
  C   C966      1.0  0.25635  0.52622  0.05139  1.0000
  C   C967      1.0  0.26296  0.52294  0.04087  1.0000
  C   C968      1.0  0.27525  0.52140  0.03806  1.0000
  H   H1662     1.0  0.27860  0.52863  0.06182  1.0000
  H   H1663     1.0  0.25692  0.53119  0.06685  1.0000
  H   H1664     1.0  0.25870  0.52106  0.03517  1.0000
  H   H1665     1.0  0.28035  0.51858  0.03007  1.0000
  C   C969      1.0  0.02390  0.53642  0.17430  1.0000
  H   H1666     1.0  0.03644  0.59237  0.19065  1.0000
  C   C970      1.0  0.09337  0.54351  0.21467  1.0000
  H   H1667     1.0  0.05421  0.56928  0.18637  1.0000
  C   C971      1.0  0.08198  0.51220  0.06342  1.0000
  H   H1668     1.0  0.01447  0.50941  0.12112  1.0000
  H   H1669     1.0  0.00321  0.51801  0.10742  1.0000
  C   C972      1.0  0.46193  0.63943  0.03047  1.0000
  C   C973      1.0  0.45099  0.64723  0.03013  1.0000
  Fe  Fe142     1.0  0.49382  0.73436  0.06613  1.0000
  S   S270      1.0  0.46585  0.67200  0.04759  1.0000
  H   H1670     1.0  0.05462  0.55185  0.20119  1.0000
  H   H1671     1.0  0.44807  0.65409  0.03506  1.0000
  C   C974      1.0  0.49318  0.68451  0.06588  1.0000
  Fe  Fe143     1.0  0.07338  0.51357  0.17950  1.0000
  H   H1672     1.0  0.01751  0.51004  0.16740  1.0000
  C   C975      1.0  0.44222  0.56052  0.99348  1.0000
  H   H1673     1.0  0.49222  0.71379  0.05492  1.0000
  C   C976      1.0  0.04011  0.52377  0.14330  1.0000
  S   S271      1.0  0.08360  0.49494  0.18231  1.0000
  H   H1674     1.0  0.45880  0.69088  0.99378  1.0000
  H   H1675     1.0  0.30700  0.56368  0.00057  1.0000
  H   H1676     1.0  0.00126  0.53321  0.22643  1.0000
  H   H1677     1.0  0.03218  0.53908  0.17097  1.0000
  H   H1678     1.0  0.46560  0.56644  0.01570  1.0000
  S   S272      1.0  0.49077  0.67193  0.06332  1.0000
  C   C977      1.0  0.49134  0.69559  0.05826  1.0000
  H   H1679     1.0  0.46921  0.73195  0.99581  1.0000
  H   H1680     1.0  0.47447  0.72593  0.08214  1.0000
  H   H1681     1.0  0.01505  0.50705  0.21716  1.0000
  H   H1682     1.0  0.45311  0.57793  0.01906  1.0000
  H   H1683     1.0  0.08765  0.49790  0.09904  1.0000
  C   C978      1.0  0.11433  0.50691  0.17134  1.0000
  C   C979      1.0  0.44667  0.67421  0.00751  1.0000
  C   C980      1.0  0.31448  0.55789  0.01616  1.0000
  C   C981      1.0  0.07512  0.53658  0.21061  1.0000
  H   H1684     1.0  0.33218  0.56170  0.02289  1.0000
  H   H1685     1.0  0.02196  0.49989  0.15308  1.0000
  H   H1686     1.0  0.24451  0.54719  0.00648  1.0000
  H   H1687     1.0  0.09456  0.52270  0.06042  1.0000
  H   H1688     1.0  0.23563  0.56877  0.00315  1.0000
  C   C982      1.0  0.00226  0.52999  0.18306  1.0000
  S   S273      1.0  0.03080  0.52684  0.19524  1.0000
  H   H1689     1.0  0.05942  0.49843  0.19458  1.0000
  H   H1690     1.0  0.04913  0.49583  0.16748  1.0000
  H   H1691     1.0  0.45634  0.73594  0.07861  1.0000
  C   C983      1.0  0.10806  0.53317  0.17764  1.0000
  H   H1692     1.0  0.03228  0.56851  0.22069  1.0000
  C   C984      1.0  0.12638  0.55216  0.02491  1.0000
  H   H1693     1.0  0.25268  0.50202  0.05042  1.0000
  S   S274      1.0  0.01068  0.55783  0.23443  1.0000
  H   H1694     1.0  0.09865  0.50716  0.07877  1.0000
  H   H1695     1.0  0.19795  0.54149  0.01917  1.0000
  H   H1696     1.0  0.46482  0.58130  0.00707  1.0000
  H   H1697     1.0  0.99718  0.51507  0.17229  1.0000
  C   C985      1.0  0.44018  0.71506  0.10781  1.0000
  C   C986      1.0  0.32891  0.54385  0.02690  1.0000
  H   H1698     1.0  0.10318  0.52946  0.19658  1.0000
  H   H1699     1.0  0.26018  0.56163  0.01988  1.0000
  H   H1700     1.0  0.03626  0.50110  0.21414  1.0000
  C   C987      1.0  0.46277  0.71568  0.07148  1.0000
  S   S275      1.0  0.21867  0.55065  0.00842  1.0000
  H   H1701     1.0  0.11472  0.51596  0.16638  1.0000
  H   H1702     1.0  0.09726  0.50991  0.18281  1.0000
  H   H1703     1.0  0.02445  0.53651  0.22777  1.0000
  C   C988      1.0  0.04677  0.53004  0.14584  1.0000
  H   H1704     1.0  0.46146  0.54224  0.00118  1.0000
  Fe  Fe144     1.0  0.37472  0.54072  0.99548  1.0000
  H   H1705     1.0  0.00232  0.53215  0.13207  1.0000
  H   H1706     1.0  0.04623  0.58923  0.17738  1.0000
  H   H1707     1.0  0.09377  0.52661  0.18974  1.0000
  H   H1708     1.0  0.26965  0.50278  0.06311  1.0000
  C   C989      1.0  0.04597  0.57389  0.19167  1.0000
  H   H1709     1.0  0.99774  0.49742  0.14222  1.0000
  H   H1710     1.0  0.01910  0.52725  0.11539  1.0000
  H   H1711     1.0  0.05233  0.59007  0.18869  1.0000
  H   H1712     1.0  0.45347  0.66983  0.01279  1.0000
  Fe  Fe145     1.0  0.03475  0.50300  0.09376  1.0000
  C   C990      1.0  0.01392  0.50269  0.17387  1.0000
  H   H1713     1.0  0.00224  0.57429  0.18472  1.0000
  C   C991      1.0  0.47475  0.74071  0.02356  1.0000
  H   H1714     1.0  0.32615  0.55632  0.03834  1.0000
  H   H1715     1.0  0.45258  0.72533  0.03592  1.0000
  C   C992      1.0  0.14813  0.55216  0.99510  1.0000
  C   C993      1.0  0.45328  0.57184  0.00380  1.0000
  H   H1716     1.0  0.34106  0.55068  0.03179  1.0000
  C   C994      1.0  0.05763  0.56559  0.22025  1.0000
  H   H1717     1.0  0.04940  0.56786  0.22680  1.0000
  H   H1718     1.0  0.08799  0.50300  0.21667  1.0000
  C   C995      1.0  0.10391  0.50714  0.20435  1.0000
  H   H1719     1.0  0.08502  0.51472  0.20456  1.0000
  H   H1720     1.0  0.03510  0.54737  0.23345  1.0000
  H   H1721     1.0  0.28429  0.56594  0.99250  1.0000
  H   H1722     1.0  0.12678  0.51335  0.18137  1.0000
  N   N71       1.0  0.10907  0.51248  0.19176  1.0000
  C   C996      1.0  0.49354  0.70529  0.06083  1.0000
  H   H1723     1.0  0.02769  0.55565  0.21070  1.0000
  C   C997      1.0  0.47047  0.55679  0.99612  1.0000
  H   H1724     1.0  0.47210  0.71267  0.02676  1.0000
  H   H1725     1.0  0.46251  0.70296  0.08794  1.0000
  C   C998      1.0  0.19003  0.54274  0.00500  1.0000
  S   S276      1.0  0.15739  0.50364  0.01420  1.0000
  H   H1726     1.0  0.43167  0.68958  0.00859  1.0000
  H   H1727     1.0  0.16421  0.54646  0.02674  1.0000
  H   H1728     1.0  0.29239  0.54512  0.03111  1.0000
  C   C999      1.0  0.46069  0.72283  0.03933  1.0000
  H   H1729     1.0  0.11054  0.50312  0.16630  1.0000
  H   H1730     1.0  0.47422  0.53922  0.00690  1.0000
  H   H1731     1.0  0.35553  0.59179  0.99448  1.0000
  H   H1732     1.0  0.16675  0.49580  0.04726  1.0000
  H   H1733     1.0  0.27926  0.53776  0.99612  1.0000
  C   C1000     1.0  0.30402  0.56068  0.01020  1.0000
  C   C1001     1.0  0.25351  0.56131  0.01540  1.0000
  H   H1734     1.0  0.03781  0.54244  0.20767  1.0000
  H   H1735     1.0  0.07120  0.50072  0.06392  1.0000
  C   C1002     1.0  0.46214  0.68192  0.99196  1.0000
  C   C1003     1.0  0.41100  0.58444  0.99423  1.0000
  Fe  Fe146     1.0  0.12546  0.49939  0.02619  1.0000
  H   H1736     1.0  0.43732  0.71209  0.11748  1.0000
  H   H1737     1.0  0.18312  0.53847  0.01064  1.0000
  H   H1738     1.0  0.48824  0.69666  0.05044  1.0000
  C   C1004     1.0  0.47496  0.72303  0.10024  1.0000
  C   C1005     1.0  0.19067  0.54644  0.99291  1.0000
  C   C1006     1.0  0.26522  0.54223  0.01149  1.0000
  C   C1007     1.0  0.49592  0.72194  0.01477  1.0000
  N   N72       1.0  0.99691  0.52021  0.12542  1.0000
  C   C1008     1.0  0.15570  0.55121  0.02423  1.0000
  H   H1739     1.0  0.01262  0.54256  0.11368  1.0000
  C   C1009     1.0  0.99645  0.50262  0.09187  1.0000
  H   H1740     1.0  0.13812  0.53811  0.01688  1.0000
  N   N73       1.0  0.45850  0.72012  0.09211  1.0000
  C   C1010     1.0  0.08696  0.49886  0.05022  1.0000
  C   C1011     1.0  0.46275  0.73433  0.01404  1.0000
  H   H1741     1.0  0.31794  0.54224  0.00081  1.0000
  H   H1742     1.0  0.15518  0.56069  0.02310  1.0000
  C   C1012     1.0  0.47528  0.70007  0.00402  1.0000
  H   H1743     1.0  0.10643  0.54228  0.17888  1.0000
  H   H1744     1.0  0.06439  0.56913  0.22182  1.0000
  C   C1013     1.0  0.15107  0.53936  0.99360  1.0000
  H   H1745     1.0  0.44373  0.55287  0.00078  1.0000
  H   H1746     1.0  0.03558  0.55452  0.19576  1.0000
  C   C1014     1.0  0.33200  0.55383  0.03019  1.0000
  H   H1747     1.0  0.12275  0.52592  0.19621  1.0000
  H   H1748     1.0  0.12304  0.51264  0.20771  1.0000
  H   H1749     1.0  0.01554  0.57549  0.19369  1.0000
  C   C1015     1.0  0.26064  0.49489  0.04857  1.0000
  H   H1750     1.0  0.00648  0.57258  0.20806  1.0000
  S   S277      1.0  0.07308  0.51759  0.07591  1.0000
  H   H1751     1.0  0.30531  0.49339  0.99214  1.0000
  H   H1752     1.0  0.47516  0.65920  0.99263  1.0000
  H   H1753     1.0  0.03936  0.59181  0.20857  1.0000
  H   H1754     1.0  0.22208  0.49781  0.99425  1.0000
  S   S278      1.0  0.01766  0.50809  0.08791  1.0000
  C   C1016     1.0  0.12216  0.51035  0.19054  1.0000
  H   H1755     1.0  0.47675  0.55919  0.99968  1.0000
  C   C1017     1.0  0.34268  0.50901  0.01656  1.0000
  H   H1756     1.0  0.01286  0.49535  0.22944  1.0000
  N   N74       1.0  0.31676  0.54620  0.02461  1.0000
  H   H1757     1.0  0.25227  0.51728  0.99307  1.0000
  H   H1758     1.0  0.48132  0.73760  0.02917  1.0000
  C   C1018     1.0  0.03325  0.58653  0.21475  1.0000
  H   H1759     1.0  0.24982  0.57065  0.01155  1.0000
  S   S279      1.0  0.43798  0.63544  0.00943  1.0000
  C   C1019     1.0  0.09241  0.51604  0.05759  1.0000
  H   H1760     1.0  0.45576  0.74101  0.01832  1.0000
  H   H1761     1.0  0.03862  0.57219  0.18915  1.0000
  C   C1020     1.0  0.09099  0.50615  0.20706  1.0000
  C   C1021     1.0  0.45688  0.71279  0.00005  1.0000
  C   C1022     1.0  0.31656  0.53597  0.01994  1.0000
  H   H1762     1.0  0.29215  0.55946  0.03311  1.0000
  H   H1763     1.0  0.47693  0.71099  0.08969  1.0000
  H   H1764     1.0  0.13849  0.56840  0.01634  1.0000
  H   H1765     1.0  0.02421  0.59200  0.21463  1.0000
  H   H1766     1.0  0.44053  0.66823  0.01010  1.0000
  H   H1767     1.0  0.43466  0.72397  0.10533  1.0000
  H   H1768     1.0  0.44666  0.58000  0.00115  1.0000
  H   H1769     1.0  0.47456  0.71593  0.10830  1.0000
  H   H1770     1.0  0.30750  0.53523  0.02070  1.0000
  H   H1771     1.0  0.32034  0.52748  0.02549  1.0000
  H   H1772     1.0  0.03070  0.52484  0.23875  1.0000
  S   S280      1.0  0.28250  0.50145  0.00615  1.0000
  H   H1773     1.0  0.16358  0.55032  0.00645  1.0000
  S   S281      1.0  0.49272  0.65728  0.03859  1.0000
  C   C1023     1.0  0.35788  0.50663  0.99905  1.0000
  H   H1774     1.0  0.30973  0.53719  0.04216  1.0000
  S   S282      1.0  0.29183  0.49365  0.03461  1.0000
  H   H1775     1.0  0.46831  0.67716  0.99784  1.0000
  H   H1776     1.0  0.01058  0.51193  0.13540  1.0000
  H   H1777     1.0  0.25872  0.53745  0.01788  1.0000
  H   H1778     1.0  0.19651  0.49421  0.02890  1.0000
  H   H1779     1.0  0.28983  0.54766  0.04539  1.0000
  S   S283      1.0  0.39419  0.53838  0.99334  1.0000
  N   N75       1.0  0.01693  0.50988  0.23331  1.0000
  S   S284      1.0  0.13799  0.49519  0.03798  1.0000
  H   H1780     1.0  0.43837  0.70879  0.10382  1.0000
  C   C1024     1.0  0.00751  0.49912  0.09469  1.0000
  C   C1025     1.0  0.00598  0.55152  0.20473  1.0000
  H   H1781     1.0  0.13088  0.55214  0.03160  1.0000
  H   H1782     1.0  0.14334  0.53532  0.99712  1.0000
  C   C1026     1.0  0.10326  0.52538  0.18944  1.0000
  N   N76       1.0  0.25914  0.55433  0.00596  1.0000
  H   H1783     1.0  0.45831  0.70586  0.10745  1.0000
  C   C1027     1.0  0.36249  0.51545  0.00033  1.0000
  S   S285      1.0  0.45077  0.60475  0.99840  1.0000
  H   H1784     1.0  0.05646  0.58016  0.20557  1.0000
  H   H1785     1.0  0.30945  0.55209  0.04106  1.0000
  H   H1786     1.0  0.44856  0.71184  0.08572  1.0000
  C   C1028     1.0  0.01582  0.53948  0.16707  1.0000
  H   H1787     1.0  0.43542  0.56773  0.99704  1.0000
  C   C1029     1.0  0.30816  0.54613  0.03633  1.0000
  C   C1030     1.0  0.07923  0.50367  0.05961  1.0000
  C   C1031     1.0  0.46454  0.73910  0.00060  1.0000
  H   H1788     1.0  0.99879  0.50831  0.23978  1.0000
  H   H1789     1.0  0.46892  0.64707  0.99424  1.0000
  H   H1790     1.0  0.42729  0.67742  0.99849  1.0000
  H   H1791     1.0  0.01862  0.49760  0.06853  1.0000
  H   H1792     1.0  0.10914  0.49809  0.20715  1.0000
  C   C1032     1.0  0.02112  0.53018  0.18589  1.0000
  C   C1033     1.0  0.05621  0.57079  0.20746  1.0000
  C   C1034     1.0  0.01833  0.50195  0.22520  1.0000
  H   H1793     1.0  0.06440  0.56691  0.20164  1.0000
  C   C1035     1.0  0.12595  0.51622  0.19818  1.0000
  Fe  Fe147     1.0  0.44729  0.62442  0.99591  1.0000
  S   S286      1.0  0.47617  0.67043  0.01963  1.0000
  S   S287      1.0  0.04093  0.51754  0.09645  1.0000
  H   H1794     1.0  0.33503  0.50659  0.02286  1.0000
  C   C1036     1.0  0.45339  0.71508  0.10477  1.0000
  H   H1795     1.0  0.08996  0.49973  0.20270  1.0000
  H   H1796     1.0  0.44804  0.56549  0.00970  1.0000
  H   H1797     1.0  0.26647  0.53180  0.99885  1.0000
  Fe  Fe148     1.0  0.05905  0.50834  0.08825  1.0000
  Fe  Fe149     1.0  0.04398  0.50511  0.11331  1.0000
  C   C1037     1.0  0.44724  0.63680  0.01758  1.0000
  S   S288      1.0  0.36229  0.53262  0.01133  1.0000
  H   H1798     1.0  0.47382  0.62410  0.02484  1.0000
  H   H1799     1.0  0.44519  0.69202  0.00989  1.0000
  H   H1800     1.0  0.48308  0.71921  0.00734  1.0000
  H   H1801     1.0  0.44767  0.71659  0.00309  1.0000
  H   H1802     1.0  0.49215  0.64473  0.00206  1.0000
  C   C1038     1.0  0.08821  0.53488  0.22311  1.0000
  H   H1803     1.0  0.43700  0.68315  0.02173  1.0000
  C   C1039     1.0  0.07886  0.53164  0.22122  1.0000
  C   C1040     1.0  0.45823  0.62909  0.01784  1.0000
  C   C1041     1.0  0.13481  0.54774  0.01410  1.0000
  C   C1042     1.0  0.34767  0.51737  0.01816  1.0000
  C   C1043     1.0  0.48070  0.70292  0.99217  1.0000
  C   C1044     1.0  0.47199  0.72061  0.02970  1.0000
  H   H1804     1.0  0.45867  0.72672  0.01575  1.0000
  H   H1805     1.0  0.42116  0.59607  0.99516  1.0000
  H   H1806     1.0  0.03209  0.52207  0.14944  1.0000
  S   S289      1.0  0.03604  0.51075  0.13047  1.0000
  H   H1807     1.0  0.12026  0.54617  0.02926  1.0000
  Fe  Fe150     1.0  0.46911  0.68452  0.03007  1.0000
  H   H1808     1.0  0.26346  0.56999  0.99351  1.0000
  C   C1045     1.0  0.00400  0.51519  0.23703  1.0000
  H   H1809     1.0  0.46099  0.62193  0.01332  1.0000
  S   S290      1.0  0.39734  0.57041  0.99310  1.0000
  H   H1810     1.0  0.49253  0.64263  0.02070  1.0000
  H   H1811     1.0  0.07487  0.52495  0.22772  1.0000
  Fe  Fe151     1.0  0.48426  0.67235  0.04760  1.0000
  H   H1812     1.0  0.03428  0.58526  0.22385  1.0000
  S   S291      1.0  0.05252  0.49496  0.08388  1.0000
  C   C1046     1.0  0.20753  0.54970  0.00253  1.0000
  C   C1047     1.0  0.47135  0.71990  0.09049  1.0000
  H   H1813     1.0  0.02097  0.52416  0.21861  1.0000
  C   C1048     1.0  0.10650  0.50637  0.18383  1.0000
  S   S292      1.0  0.48676  0.68599  0.03107  1.0000
  H   H1814     1.0  0.15843  0.53373  0.99769  1.0000
  C   C1049     1.0  0.01035  0.52685  0.19022  1.0000
  H   H1815     1.0  0.46335  0.70838  0.06735  1.0000
  H   H1816     1.0  0.24711  0.54802  0.03077  1.0000
  H   H1817     1.0  0.47942  0.71802  0.03422  1.0000
  C   C1050     1.0  0.03413  0.57456  0.21201  1.0000
  C   C1051     1.0  0.04652  0.55603  0.20687  1.0000
  H   H1818     1.0  0.02668  0.57560  0.20795  1.0000
  C   C1052     1.0  0.03621  0.55219  0.20508  1.0000
  C   C1053     1.0  0.00690  0.51022  0.12881  1.0000
  S   S293      1.0  0.48523  0.59358  0.99443  1.0000
  H   H1819     1.0  0.00823  0.52184  0.19909  1.0000
  C   C1054     1.0  0.00074  0.50544  0.17373  1.0000
  C   C1055     1.0  0.02375  0.51920  0.22690  1.0000
  H   H1820     1.0  0.46103  0.54832  0.01341  1.0000
  C   C1056     1.0  0.45012  0.74172  0.09468  1.0000
  H   H1821     1.0  0.99911  0.50252  0.16663  1.0000
  C   C1057     1.0  0.43978  0.68548  0.01200  1.0000
  H   H1822     1.0  0.06092  0.55591  0.22189  1.0000
  S   S294      1.0  0.45670  0.70080  0.02287  1.0000
  H   H1823     1.0  0.45444  0.71981  0.11086  1.0000
  H   H1824     1.0  0.04737  0.55166  0.21599  1.0000
  H   H1825     1.0  0.01342  0.55499  0.19846  1.0000
  H   H1826     1.0  0.01444  0.50350  0.18263  1.0000
  C   C1058     1.0  0.48434  0.72645  0.01048  1.0000
  C   C1059     1.0  0.45781  0.71219  0.08483  1.0000
  H   H1827     1.0  0.44303  0.73233  0.08655  1.0000
  C   C1060     1.0  0.45179  0.73234  0.08769  1.0000
  H   H1828     1.0  0.00505  0.55276  0.21365  1.0000
  H   H1829     1.0  0.37021  0.51777  0.99413  1.0000
  H   H1830     1.0  0.47170  0.71726  0.06937  1.0000
  H   H1831     1.0  0.25436  0.54905  0.99265  1.0000
  C   C1061     1.0  0.19848  0.54434  0.00980  1.0000
  C   C1062     1.0  0.46338  0.70492  0.00801  1.0000
  H   H1832     1.0  0.48428  0.72381  0.09716  1.0000
  C   C1063     1.0  0.35726  0.52099  0.00980  1.0000
  C   C1064     1.0  0.25005  0.55319  0.00035  1.0000
  H   H1833     1.0  0.15728  0.53828  0.01462  1.0000
  Fe  Fe152     1.0  0.49359  0.67091  0.02187  1.0000
  H   H1834     1.0  0.03265  0.50091  0.06181  1.0000
  C   C1065     1.0  0.00489  0.53643  0.17152  1.0000
  N   N77       1.0  0.47352  0.73072  0.01928  1.0000
  H   H1835     1.0  0.33200  0.53766  0.00484  1.0000
  H   H1836     1.0  0.31300  0.56516  0.02068  1.0000
  C   C1066     1.0  0.46708  0.65578  0.99648  1.0000
  C   C1067     1.0  0.02770  0.49389  0.06403  1.0000
  C   C1068     1.0  0.09720  0.49433  0.09575  1.0000
  H   H1837     1.0  0.32247  0.55880  0.00900  1.0000
  H   H1838     1.0  0.48040  0.69402  0.00999  1.0000
  C   C1069     1.0  0.14100  0.56669  0.00733  1.0000
  H   H1839     1.0  0.12090  0.56107  0.02232  1.0000
  S   S295      1.0  0.24387  0.49734  0.01498  1.0000
  H   H1840     1.0  0.18948  0.49821  0.00317  1.0000
  H   H1841     1.0  0.26876  0.49582  0.07811  1.0000
  C   C1070     1.0  0.15009  0.57407  0.99999  1.0000
  H   H1842     1.0  0.17610  0.51198  0.99515  1.0000
  H   H1843     1.0  0.44873  0.73837  0.10428  1.0000
  H   H1844     1.0  0.49547  0.62392  0.00709  1.0000
  H   H1845     1.0  0.26828  0.49866  0.04734  1.0000
  N   N78       1.0  0.45219  0.67585  0.99455  1.0000
  C   C1071     1.0  0.00023  0.53167  0.12387  1.0000
  S   S296      1.0  0.06272  0.49725  0.10560  1.0000
  H   H1846     1.0  0.26077  0.50144  0.03000  1.0000
  C   C1072     1.0  0.03176  0.55181  0.24066  1.0000
  C   C1073     1.0  0.03094  0.49519  0.22077  1.0000
  S   S297      1.0  0.10721  0.49582  0.03322  1.0000
  S   S298      1.0  0.34115  0.49373  0.00446  1.0000
  H   H1847     1.0  0.01500  0.53007  0.24031  1.0000
  C   C1074     1.0  0.10214  0.50444  0.08679  1.0000
  H   H1848     1.0  0.99703  0.55480  0.19116  1.0000
  C   C1075     1.0  0.46636  0.54614  0.00493  1.0000
  H   H1849     1.0  0.09935  0.51228  0.09077  1.0000
  C   C1076     1.0  0.26986  0.49413  0.06930  1.0000
  H   H1850     1.0  0.46027  0.71454  0.04607  1.0000
  H   H1851     1.0  0.23099  0.52065  0.99965  1.0000
  H   H1852     1.0  0.46072  0.72959  0.04385  1.0000
  H   H1853     1.0  0.46972  0.73152  0.10239  1.0000
  C   C1077     1.0  0.27892  0.56078  0.00007  1.0000
  H   H1854     1.0  0.22238  0.50654  0.00374  1.0000
  C   C1078     1.0  0.21858  0.50657  0.99648  1.0000
  C   C1079     1.0  0.27230  0.53408  0.00299  1.0000
  H   H1855     1.0  0.15882  0.57039  0.00225  1.0000
  H   H1856     1.0  0.20894  0.50759  0.99997  1.0000
  H   H1857     1.0  0.25138  0.49541  0.07144  1.0000
  H   H1858     1.0  0.27676  0.52573  0.00808  1.0000
  H   H1859     1.0  0.44941  0.65894  0.99470  1.0000
  H   H1860     1.0  0.46524  0.65421  0.00617  1.0000
  C   C1080     1.0  0.00402  0.49796  0.13357  1.0000
  C   C1081     1.0  0.26773  0.56063  0.99656  1.0000
  H   H1861     1.0  0.45583  0.74273  0.99831  1.0000
  H   H1862     1.0  0.49592  0.62671  0.02443  1.0000
  H   H1863     1.0  0.10129  0.69332  0.48885  1.0000
  H   H1864     1.0  0.01967  0.50893  0.25044  1.0000
  H   H1865     1.0  0.05767  0.70054  0.47123  1.0000
  H   H1866     1.0  0.06006  0.74224  0.40696  1.0000
  H   H1867     1.0  0.03153  0.54123  0.38874  1.0000
  C   C1082     1.0  0.00247  0.51737  0.29890  1.0000
  H   H1868     1.0  0.00653  0.71893  0.45208  1.0000
  H   H1869     1.0  0.06357  0.53343  0.36524  1.0000
  H   H1870     1.0  0.06287  0.61200  0.44753  1.0000
  H   H1871     1.0  0.06097  0.60338  0.43872  1.0000
  C   C1083     1.0  0.99685  0.55055  0.31422  1.0000
  S   S299      1.0  0.05398  0.52817  0.34237  1.0000
  S   S300      1.0  0.00800  0.55770  0.37370  1.0000
  S   S301      1.0  0.02216  0.53033  0.35985  1.0000
  Fe  Fe153     1.0  0.03123  0.59809  0.42555  1.0000
  S   S302      1.0  0.03987  0.60620  0.40721  1.0000
  S   S303      1.0  0.04179  0.58808  0.43930  1.0000
  Fe  Fe154     1.0  0.00680  0.60836  0.42116  1.0000
  S   S304      1.0  0.01333  0.61739  0.40265  1.0000
  H   H1872     1.0  0.02896  0.70341  0.40923  1.0000
  Fe  Fe155     1.0  0.02670  0.60037  0.40140  1.0000
  S   S305      1.0  0.03105  0.59349  0.38456  1.0000
  Fe  Fe156     1.0  0.02574  0.62238  0.41007  1.0000
  S   S306      1.0  0.02708  0.64146  0.40552  1.0000
  S   S307      1.0  0.01931  0.59096  0.41956  1.0000
  S   S308      1.0  0.01799  0.61465  0.42877  1.0000
  S   S309      1.0  0.01107  0.58820  0.49103  1.0000
  C   C1084     1.0  0.01550  0.56291  0.25283  1.0000
  H   H1873     1.0  0.99855  0.70895  0.41573  1.0000
  Fe  Fe157     1.0  0.07863  0.52736  0.27800  1.0000
  S   S310      1.0  0.05974  0.52671  0.28255  1.0000
  S   S311      1.0  0.08709  0.52798  0.29194  1.0000
  C   C1085     1.0  0.02299  0.65395  0.48390  1.0000
  H   H1874     1.0  0.00364  0.59783  0.39640  1.0000
  Fe  Fe158     1.0  0.05874  0.53981  0.26564  1.0000
  H   H1875     1.0  0.03272  0.54362  0.28897  1.0000
  S   S312      1.0  0.07729  0.54155  0.26180  1.0000
  H   H1876     1.0  0.01511  0.70914  0.41796  1.0000
  H   H1877     1.0  0.00211  0.51886  0.24496  1.0000
  H   H1878     1.0  0.06321  0.56089  0.38005  1.0000
  H   H1879     1.0  0.05533  0.60004  0.45412  1.0000
  H   H1880     1.0  0.03416  0.55147  0.36738  1.0000
  H   H1881     1.0  0.05036  0.56624  0.39029  1.0000
  H   H1882     1.0  0.05898  0.50401  0.30732  1.0000
  C   C1086     1.0  0.04743  0.55435  0.38151  1.0000
  N   N79       1.0  0.00605  0.69009  0.42079  1.0000
  S   S313      1.0  0.00369  0.65660  0.45893  1.0000
  H   H1883     1.0  0.03569  0.53247  0.27588  1.0000
  H   H1884     1.0  0.03468  0.51126  0.30890  1.0000
  Fe  Fe159     1.0  0.06607  0.67245  0.42287  1.0000
  S   S314      1.0  0.06619  0.66875  0.44200  1.0000
  S   S315      1.0  0.06835  0.65583  0.41670  1.0000
  Fe  Fe160     1.0  0.06632  0.69855  0.41942  1.0000
  S   S316      1.0  0.06669  0.69645  0.43817  1.0000
  S   S317      1.0  0.06470  0.71717  0.40890  1.0000
  Fe  Fe161     1.0  0.07976  0.67959  0.43601  1.0000
  S   S318      1.0  0.09767  0.67415  0.44005  1.0000
  Fe  Fe162     1.0  0.05312  0.68604  0.44179  1.0000
  S   S319      1.0  0.03602  0.69051  0.45431  1.0000
  S   S320      1.0  0.08048  0.68239  0.41682  1.0000
  S   S321      1.0  0.05188  0.68899  0.42317  1.0000
  C   C1087     1.0  0.01249  0.66631  0.45732  1.0000
  C   C1088     1.0  0.02407  0.66430  0.45077  1.0000
  C   C1089     1.0  0.03123  0.67201  0.44938  1.0000
  C   C1090     1.0  0.02675  0.68180  0.45450  1.0000
  C   C1091     1.0  0.01504  0.68407  0.46067  1.0000
  C   C1092     1.0  0.00798  0.67622  0.46227  1.0000
  H   H1885     1.0  0.02748  0.65685  0.44671  1.0000
  H   H1886     1.0  0.04025  0.67025  0.44452  1.0000
  H   H1887     1.0  0.01152  0.69174  0.46449  1.0000
  H   H1888     1.0  0.08593  0.49726  0.30458  1.0000
  C   C1093     1.0  0.03872  0.64535  0.40844  1.0000
  C   C1094     1.0  0.04877  0.63693  0.41091  1.0000
  C   C1095     1.0  0.05782  0.64031  0.41334  1.0000
  C   C1096     1.0  0.05672  0.65203  0.41369  1.0000
  C   C1097     1.0  0.04661  0.66044  0.41135  1.0000
  C   C1098     1.0  0.03776  0.65713  0.40849  1.0000
  H   H1889     1.0  0.04963  0.62785  0.41079  1.0000
  H   H1890     1.0  0.06568  0.63378  0.41501  1.0000
  H   H1891     1.0  0.04577  0.66952  0.41143  1.0000
  H   H1892     1.0  0.03013  0.66371  0.40629  1.0000
  H   H1893     1.0  0.01876  0.72233  0.48795  1.0000
  H   H1894     1.0  0.00505  0.68192  0.43914  1.0000
  H   H1895     1.0  0.08093  0.53460  0.36844  1.0000
  H   H1896     1.0  0.06058  0.56256  0.35980  1.0000
  H   H1897     1.0  0.02041  0.62588  0.45176  1.0000
  H   H1898     1.0  0.11789  0.66478  0.40088  1.0000
  H   H1899     1.0  0.02522  0.72594  0.41370  1.0000
  H   H1900     1.0  0.05067  0.73104  0.48028  1.0000
  H   H1901     1.0  0.11553  0.61913  0.41534  1.0000
  H   H1902     1.0  0.04380  0.65862  0.47895  1.0000
  C   C1099     1.0  0.06296  0.52888  0.32821  1.0000
  C   C1100     1.0  0.05815  0.53324  0.31825  1.0000
  C   C1101     1.0  0.06553  0.53329  0.30701  1.0000
  C   C1102     1.0  0.07769  0.52888  0.30575  1.0000
  C   C1103     1.0  0.08247  0.52479  0.31574  1.0000
  C   C1104     1.0  0.07512  0.52473  0.32694  1.0000
  H   H1903     1.0  0.08090  0.72406  0.47588  1.0000
  H   H1904     1.0  0.06182  0.53681  0.29935  1.0000
  H   H1905     1.0  0.09187  0.52144  0.31481  1.0000
  H   H1906     1.0  0.07888  0.52137  0.33463  1.0000
  C   C1105     1.0  0.01456  0.56764  0.37654  1.0000
  C   C1106     1.0  0.01304  0.56849  0.38822  1.0000
  C   C1107     1.0  0.01809  0.57629  0.39085  1.0000
  C   C1108     1.0  0.02455  0.58348  0.38180  1.0000
  C   C1109     1.0  0.02610  0.58258  0.37013  1.0000
  C   C1110     1.0  0.02113  0.57473  0.36751  1.0000
  H   H1907     1.0  0.00802  0.56300  0.39528  1.0000
  H   H1908     1.0  0.01704  0.57670  0.39988  1.0000
  H   H1909     1.0  0.03110  0.58809  0.36307  1.0000
  H   H1910     1.0  0.02228  0.57424  0.35848  1.0000
  C   C1111     1.0  0.10074  0.66854  0.47785  1.0000
  C   C1112     1.0  0.11070  0.66837  0.46863  1.0000
  C   C1113     1.0  0.10966  0.66992  0.45709  1.0000
  C   C1114     1.0  0.09863  0.67164  0.45468  1.0000
  C   C1115     1.0  0.08863  0.67169  0.46385  1.0000
  C   C1116     1.0  0.08968  0.67026  0.47541  1.0000
  H   H1911     1.0  0.11925  0.66712  0.47042  1.0000
  H   H1912     1.0  0.11740  0.66991  0.45000  1.0000
  H   H1913     1.0  0.08010  0.67301  0.46200  1.0000
  H   H1914     1.0  0.07202  0.69376  0.46423  1.0000
  C   C1117     1.0  0.02298  0.56263  0.25985  1.0000
  Fe  Fe163     1.0  0.06533  0.51313  0.27177  1.0000
  H   H1915     1.0  0.01362  0.70278  0.39752  1.0000
  H   H1916     1.0  0.00828  0.67779  0.48761  1.0000
  H   H1917     1.0  0.00936  0.67875  0.40863  1.0000
  C   C1118     1.0  0.04143  0.54418  0.37017  1.0000
  C   C1119     1.0  0.11443  0.63614  0.41895  1.0000
  C   C1120     1.0  0.02724  0.63090  0.45033  1.0000
  C   C1121     1.0  0.05242  0.66841  0.48448  1.0000
  H   H1918     1.0  0.08944  0.63835  0.41030  1.0000
  H   H1919     1.0  0.00683  0.49451  0.25371  1.0000
  C   C1122     1.0  0.03217  0.58448  0.47474  1.0000
  C   C1123     1.0  0.03888  0.58423  0.46324  1.0000
  C   C1124     1.0  0.03333  0.58739  0.45377  1.0000
  C   C1125     1.0  0.02106  0.59033  0.45591  1.0000
  H   H1920     1.0  0.08900  0.64061  0.42746  1.0000
  H   H1921     1.0  0.10120  0.62497  0.42309  1.0000
  H   H1922     1.0  0.04837  0.58171  0.46166  1.0000
  H   H1923     1.0  0.01670  0.59251  0.44871  1.0000
  H   H1924     1.0  0.11238  0.65514  0.42753  1.0000
  H   H1925     1.0  0.08394  0.49909  0.32343  1.0000
  C   C1126     1.0  0.03442  0.61397  0.46478  1.0000
  H   H1926     1.0  0.03093  0.49900  0.30725  1.0000
  H   H1927     1.0  0.04068  0.71303  0.43638  1.0000
  H   H1928     1.0  0.04590  0.51238  0.32299  1.0000
  H   H1929     1.0  0.07511  0.54981  0.36560  1.0000
  S   S322      1.0  0.01256  0.56327  0.31353  1.0000
  H   H1930     1.0  0.02421  0.61176  0.48276  1.0000
  H   H1931     1.0  0.00027  0.63225  0.46339  1.0000
  H   H1932     1.0  0.00882  0.70068  0.43892  1.0000
  C   C1127     1.0  0.02139  0.49685  0.35522  1.0000
  C   C1128     1.0  0.00182  0.56438  0.29596  1.0000
  C   C1129     1.0  0.08449  0.72735  0.42448  1.0000
  C   C1130     1.0  0.07970  0.72044  0.42037  1.0000
  C   C1131     1.0  0.07082  0.72575  0.41410  1.0000
  H   H1933     1.0  0.05071  0.67594  0.47704  1.0000
  C   C1132     1.0  0.05668  0.60741  0.44649  1.0000
  H   H1934     1.0  0.09163  0.72322  0.42894  1.0000
  H   H1935     1.0  0.08318  0.71105  0.42171  1.0000
  H   H1936     1.0  0.99845  0.62305  0.45520  1.0000
  H   H1937     1.0  0.03450  0.51474  0.26873  1.0000
  C   C1133     1.0  0.03481  0.55683  0.25729  1.0000
  C   C1134     1.0  0.05754  0.55401  0.34816  1.0000
  C   C1135     1.0  0.02976  0.51359  0.29218  1.0000
  H   H1938     1.0  0.02375  0.68680  0.41003  1.0000
  H   H1939     1.0  0.04922  0.72377  0.43203  1.0000
  C   C1136     1.0  0.05373  0.55822  0.35980  1.0000
  H   H1940     1.0  0.00142  0.61684  0.46974  1.0000
  H   H1941     1.0  0.03898  0.50058  0.33255  1.0000
  C   C1137     1.0  0.04551  0.50580  0.33142  1.0000
  C   C1138     1.0  0.05458  0.49649  0.25928  1.0000
  H   H1942     1.0  0.03154  0.68393  0.48596  1.0000
  H   H1943     1.0  0.03540  0.52822  0.25826  1.0000
  C   C1139     1.0  0.00042  0.68971  0.43360  1.0000
  C   C1140     1.0  0.02711  0.53084  0.27600  1.0000
  H   H1944     1.0  0.10405  0.63399  0.40141  1.0000
  C   C1141     1.0  0.00476  0.67929  0.41785  1.0000
  H   H1945     1.0  0.03650  0.58217  0.48197  1.0000
  H   H1946     1.0  0.00493  0.59202  0.46900  1.0000
  N   N80       1.0  0.03048  0.73103  0.43444  1.0000
  H   H1947     1.0  0.10287  0.63393  0.44202  1.0000
  H   H1948     1.0  0.03938  0.61077  0.44308  1.0000
  H   H1949     1.0  0.03855  0.72975  0.40466  1.0000
  H   H1950     1.0  0.03992  0.63529  0.46246  1.0000
  H   H1951     1.0  0.00966  0.66017  0.42135  1.0000
  C   C1142     1.0  0.08090  0.73089  0.45753  1.0000
  H   H1952     1.0  0.01952  0.56666  0.26739  1.0000
  H   H1953     1.0  0.11306  0.61888  0.43053  1.0000
  H   H1954     1.0  0.03793  0.55875  0.38271  1.0000
  C   C1143     1.0  0.05243  0.63719  0.44612  1.0000
  H   H1955     1.0  0.04433  0.53884  0.36334  1.0000
  H   H1956     1.0  0.02899  0.67675  0.47661  1.0000
  H   H1957     1.0  0.00308  0.69537  0.39646  1.0000
  S   S323      1.0  0.02457  0.53306  0.33158  1.0000
  H   H1958     1.0  0.11945  0.63566  0.42552  1.0000
  H   H1959     1.0  0.05111  0.57207  0.37505  1.0000
  H   H1960     1.0  0.02681  0.54208  0.30430  1.0000
  H   H1961     1.0  0.09400  0.65892  0.40642  1.0000
  H   H1962     1.0  0.04271  0.72059  0.48068  1.0000
  C   C1144     1.0  0.02971  0.52398  0.26625  1.0000
  H   H1963     1.0  0.04230  0.52834  0.38469  1.0000
  H   H1964     1.0  0.09932  0.64913  0.44312  1.0000
  C   C1145     1.0  0.01489  0.72155  0.45094  1.0000
  H   H1965     1.0  0.00348  0.49820  0.28451  1.0000
  C   C1146     1.0  0.10109  0.65070  0.40671  1.0000
  C   C1147     1.0  0.00424  0.70233  0.40001  1.0000
  H   H1966     1.0  0.01282  0.72824  0.45621  1.0000
  H   H1967     1.0  0.03897  0.51470  0.28890  1.0000
  H   H1968     1.0  0.02102  0.71355  0.45454  1.0000
  H   H1969     1.0  0.04876  0.53650  0.31921  1.0000
  H   H1970     1.0  0.05548  0.63392  0.43793  1.0000
  H   H1971     1.0  0.09325  0.64569  0.39544  1.0000
  H   H1972     1.0  0.01810  0.62496  0.47350  1.0000
  H   H1973     1.0  0.02151  0.53966  0.27310  1.0000
  H   H1974     1.0  0.08545  0.70780  0.45045  1.0000
  H   H1975     1.0  0.02335  0.63743  0.45598  1.0000
  C   C1148     1.0  0.04248  0.72790  0.48461  1.0000
  C   C1149     1.0  0.03313  0.73542  0.42125  1.0000
  C   C1150     1.0  0.09675  0.64152  0.40351  1.0000
  S   S324      1.0  0.08454  0.51260  0.26845  1.0000
  C   C1151     1.0  0.01987  0.58751  0.47684  1.0000
  H   H1976     1.0  0.05709  0.50481  0.25584  1.0000
  S   S325      1.0  0.00119  0.54808  0.34732  1.0000
  C   C1152     1.0  0.02244  0.70134  0.41757  1.0000
  H   H1977     1.0  0.08460  0.73866  0.45613  1.0000
  H   H1978     1.0  0.10861  0.69931  0.44772  1.0000
  N   N81       1.0  0.10485  0.64724  0.41826  1.0000
  C   C1153     1.0  0.02686  0.67729  0.48590  1.0000
  C   C1154     1.0  0.09413  0.64645  0.42818  1.0000
  H   H1979     1.0  0.10763  0.70816  0.45751  1.0000
  S   S326      1.0  0.05789  0.49713  0.28057  1.0000
  C   C1155     1.0  0.08744  0.70087  0.47921  1.0000
  H   H1980     1.0  0.03542  0.64263  0.43450  1.0000
  C   C1156     1.0  0.09642  0.64244  0.44072  1.0000
  H   H1981     1.0  0.08179  0.70405  0.48719  1.0000
  H   H1982     1.0  0.00677  0.50810  0.30205  1.0000
  H   H1983     1.0  0.10845  0.65273  0.39922  1.0000
  C   C1157     1.0  0.02832  0.63778  0.43751  1.0000
  C   C1158     1.0  0.04087  0.72161  0.43785  1.0000
  Fe  Fe164     1.0  0.01348  0.54964  0.35747  1.0000
  H   H1984     1.0  0.00440  0.53156  0.28384  1.0000
  C   C1159     1.0  0.01900  0.68979  0.41835  1.0000
  C   C1160     1.0  0.04239  0.71955  0.45057  1.0000
  H   H1985     1.0  0.07395  0.54167  0.38068  1.0000
  C   C1161     1.0  0.05771  0.49793  0.33270  1.0000
  C   C1162     1.0  0.02651  0.61913  0.47539  1.0000
  H   H1986     1.0  0.06795  0.69255  0.48007  1.0000
  H   H1987     1.0  0.04718  0.62171  0.43561  1.0000
  H   H1988     1.0  0.02310  0.68302  0.42522  1.0000
  C   C1163     1.0  0.05355  0.56384  0.38155  1.0000
  C   C1164     1.0  0.06183  0.53873  0.37195  1.0000
  H   H1989     1.0  0.02673  0.70023  0.42487  1.0000
  H   H1990     1.0  0.02607  0.50370  0.35345  1.0000
  H   H1991     1.0  0.04842  0.54729  0.24550  1.0000
  S   S327      1.0  0.06244  0.52617  0.25508  1.0000
  H   H1992     1.0  0.05977  0.56140  0.34080  1.0000
  H   H1993     1.0  0.02922  0.50657  0.28822  1.0000
  N   N82       1.0  0.03826  0.62274  0.45376  1.0000
  S   S328      1.0  0.00215  0.51464  0.35049  1.0000
  H   H1994     1.0  0.04721  0.64635  0.44429  1.0000
  H   H1995     1.0  0.04608  0.71006  0.45370  1.0000
  H   H1996     1.0  0.03424  0.72189  0.45715  1.0000
  H   H1997     1.0  0.04904  0.72410  0.45075  1.0000
  Fe  Fe165     1.0  0.03471  0.53572  0.34301  1.0000
  H   H1998     1.0  0.12100  0.63638  0.41043  1.0000
  H   H1999     1.0  0.01225  0.73298  0.43435  1.0000
  H   H2000     1.0  0.05988  0.53231  0.38038  1.0000
  H   H2001     1.0  0.00632  0.56733  0.25486  1.0000
  H   H2002     1.0  0.06751  0.50919  0.31350  1.0000
  H   H2003     1.0  0.03687  0.52982  0.29901  1.0000
  C   C1165     1.0  0.02955  0.53735  0.29703  1.0000
  H   H2004     1.0  0.05177  0.49568  0.24280  1.0000
  H   H2005     1.0  0.01173  0.49557  0.32846  1.0000
  N   N83       1.0  0.08392  0.70903  0.46827  1.0000
  C   C1166     1.0  0.07095  0.71000  0.46968  1.0000
  C   C1167     1.0  0.08545  0.72114  0.46750  1.0000
  H   H2006     1.0  0.01176  0.69186  0.48397  1.0000
  C   C1168     1.0  0.09061  0.70423  0.45745  1.0000
  C   C1169     1.0  0.06714  0.69844  0.47139  1.0000
  C   C1170     1.0  0.10030  0.69875  0.48001  1.0000
  H   H2007     1.0  0.02156  0.52432  0.26365  1.0000
  H   H2008     1.0  0.06575  0.71397  0.47730  1.0000
  H   H2009     1.0  0.06779  0.71591  0.46183  1.0000
  H   H2010     1.0  0.09476  0.72127  0.46640  1.0000
  C   C1171     1.0  0.07348  0.54153  0.37172  1.0000
  H   H2011     1.0  0.04824  0.54744  0.38967  1.0000
  Fe  Fe166     1.0  0.08129  0.52679  0.25255  1.0000
  H   H2012     1.0  0.09169  0.69453  0.45944  1.0000
  C   C1172     1.0  0.01438  0.59016  0.46742  1.0000
  H   H2013     1.0  0.05195  0.62327  0.46176  1.0000
  C   C1173     1.0  0.02796  0.74157  0.43973  1.0000
  C   C1174     1.0  0.01958  0.72619  0.43777  1.0000
  C   C1175     1.0  0.00952  0.49988  0.35473  1.0000
  H   H2014     1.0  0.07743  0.50511  0.29401  1.0000
  H   H2015     1.0  0.99923  0.71080  0.39562  1.0000
  C   C1176     1.0  0.01994  0.55758  0.24318  1.0000
  H   H2016     1.0  0.04573  0.56547  0.35927  1.0000
  C   C1177     1.0  0.00605  0.73885  0.48651  1.0000
  H   H2017     1.0  0.02112  0.71861  0.43370  1.0000
  C   C1178     1.0  0.10292  0.70686  0.45160  1.0000
  H   H2018     1.0  0.10264  0.66539  0.41904  1.0000
  H   H2019     1.0  0.10242  0.71454  0.44408  1.0000
  C   C1179     1.0  0.01366  0.68280  0.48935  1.0000
  C   C1180     1.0  0.01887  0.53358  0.29599  1.0000
  H   H2020     1.0  0.10305  0.70695  0.47909  1.0000
  H   H2021     1.0  0.12365  0.66654  0.41199  1.0000
  N   N84       1.0  0.02148  0.52502  0.28820  1.0000
  H   H2022     1.0  0.06547  0.54669  0.34791  1.0000
  H   H2023     1.0  0.10635  0.69351  0.47364  1.0000
  S   S329      1.0  0.02682  0.55504  0.34124  1.0000
  H   H2024     1.0  0.08605  0.69197  0.48027  1.0000
  C   C1181     1.0  0.01005  0.52304  0.28745  1.0000
  H   H2025     1.0  0.00368  0.66581  0.43432  1.0000
  C   C1182     1.0  0.12032  0.66021  0.40942  1.0000
  C   C1183     1.0  0.02835  0.50873  0.30559  1.0000
  Fe  Fe167     1.0  0.01123  0.52923  0.34829  1.0000
  C   C1184     1.0  0.04556  0.62936  0.45652  1.0000
  C   C1185     1.0  0.06667  0.50112  0.31153  1.0000
  C   C1186     1.0  0.04499  0.61592  0.44435  1.0000
  C   C1187     1.0  0.03587  0.53635  0.38161  1.0000
  H   H2026     1.0  0.02959  0.63192  0.43150  1.0000
  H   H2027     1.0  0.02500  0.66069  0.47588  1.0000
  H   H2028     1.0  0.08803  0.64129  0.44709  1.0000
  H   H2029     1.0  0.01276  0.54176  0.29265  1.0000
  H   H2030     1.0  0.06149  0.66324  0.48171  1.0000
  H   H2031     1.0  0.02881  0.53338  0.37991  1.0000
  H   H2032     1.0  0.01858  0.66629  0.42635  1.0000
  C   C1188     1.0  0.07772  0.49790  0.30195  1.0000
  H   H2033     1.0  0.01160  0.51721  0.28131  1.0000
  N   N85       1.0  0.04903  0.57157  0.29178  1.0000
  C   C1189     1.0  0.05022  0.56398  0.30375  1.0000
  C   C1190     1.0  0.05736  0.56481  0.28285  1.0000
  C   C1191     1.0  0.03655  0.57305  0.29083  1.0000
  C   C1192     1.0  0.05169  0.58327  0.29068  1.0000
  C   C1193     1.0  0.04295  0.56930  0.31445  1.0000
  C   C1194     1.0  0.07056  0.56223  0.28286  1.0000
  C   C1195     1.0  0.03292  0.58120  0.27962  1.0000
  C   C1196     1.0  0.05551  0.59045  0.27808  1.0000
  H   H2034     1.0  0.04777  0.55550  0.30493  1.0000
  H   H2035     1.0  0.05949  0.56165  0.30469  1.0000
  H   H2036     1.0  0.05641  0.56921  0.27377  1.0000
  H   H2037     1.0  0.05517  0.55615  0.28425  1.0000
  H   H2038     1.0  0.03471  0.56433  0.29166  1.0000
  H   H2039     1.0  0.03012  0.57676  0.29814  1.0000
  H   H2040     1.0  0.04391  0.58901  0.29535  1.0000
  H   H2041     1.0  0.05892  0.58197  0.29518  1.0000
  H   H2042     1.0  0.04568  0.56331  0.32244  1.0000
  H   H2043     1.0  0.04452  0.57796  0.31401  1.0000
  H   H2044     1.0  0.03340  0.56996  0.31579  1.0000
  H   H2045     1.0  0.07590  0.55977  0.27448  1.0000
  H   H2046     1.0  0.07329  0.56986  0.28363  1.0000
  H   H2047     1.0  0.07295  0.55460  0.28998  1.0000
  H   H2048     1.0  0.03254  0.59050  0.27929  1.0000
  H   H2049     1.0  0.02389  0.58072  0.27979  1.0000
  H   H2050     1.0  0.03860  0.57857  0.27148  1.0000
  H   H2051     1.0  0.05121  0.59989  0.27776  1.0000
  H   H2052     1.0  0.05323  0.58804  0.27104  1.0000
  H   H2053     1.0  0.06512  0.59000  0.27588  1.0000
  H   H2054     1.0  0.99761  0.49777  0.32501  1.0000
  N   N86       1.0  0.05137  0.54893  0.37084  1.0000
  H   H2055     1.0  0.05030  0.55142  0.34641  1.0000
  H   H2056     1.0  0.99702  0.51402  0.26810  1.0000
  H   H2057     1.0  0.01422  0.53030  0.30506  1.0000
  H   H2058     1.0  0.02914  0.64545  0.48259  1.0000
  H   H2059     1.0  0.04210  0.60774  0.46799  1.0000
  H   H2060     1.0  0.03111  0.62385  0.47859  1.0000
  H   H2061     1.0  0.01993  0.64430  0.43669  1.0000
  H   H2062     1.0  0.01940  0.51118  0.31093  1.0000
  H   H2063     1.0  0.08780  0.65516  0.42773  1.0000
  S   S330      1.0  0.04385  0.55560  0.26661  1.0000
  H   H2064     1.0  0.08191  0.67075  0.48234  1.0000
  H   H2065     1.0  0.12770  0.65247  0.40836  1.0000
  C   C1197     1.0  0.99932  0.70058  0.41340  1.0000
  C   C1198     1.0  0.11064  0.62429  0.42218  1.0000
  H   H2066     1.0  0.99916  0.67768  0.46759  1.0000
  C   C1199     1.0  0.00951  0.66731  0.42548  1.0000
  H   H2067     1.0  0.00029  0.61324  0.37924  1.0000
  Fe  Fe168     1.0  0.01534  0.55191  0.33123  1.0000
  C   C1200     1.0  0.04363  0.66050  0.48746  1.0000
  C   C1201     1.0  0.10961  0.65713  0.41908  1.0000
  H   H2068     1.0  0.06061  0.63743  0.44831  1.0000
  H   H2069     1.0  0.02949  0.60851  0.46292  1.0000
  H   H2070     1.0  0.00052  0.59288  0.38025  1.0000
  C   C1202     1.0  0.00300  0.55921  0.30758  1.0000
  H   H2071     1.0  0.04217  0.51077  0.33855  1.0000
  H   H2072     1.0  0.00656  0.57107  0.29076  1.0000
  C   C1203     1.0  0.99997  0.70023  0.43857  1.0000
  H   H2073     1.0  0.99996  0.52242  0.30587  1.0000
  H   H2074     1.0  0.08356  0.72805  0.44908  1.0000
  C   C1204     1.0  0.99618  0.49799  0.28122  1.0000
  H   H2075     1.0  0.04665  0.74218  0.43700  1.0000
  C   C1205     1.0  0.03408  0.72658  0.41389  1.0000
  H   H2076     1.0  0.02573  0.73929  0.44942  1.0000
  H   H2077     1.0  0.06263  0.50382  0.33385  1.0000
  C   C1206     1.0  0.06670  0.73801  0.41207  1.0000
  C   C1207     1.0  0.03923  0.55154  0.24763  1.0000
  H   H2078     1.0  0.07118  0.73393  0.45980  1.0000
  H   H2079     1.0  0.03481  0.73498  0.48246  1.0000
  H   H2080     1.0  0.04161  0.73826  0.41816  1.0000
  C   C1208     1.0  0.02156  0.50317  0.24412  1.0000
  C   C1209     1.0  0.08019  0.73957  0.42271  1.0000
  H   H2081     1.0  0.01389  0.65321  0.48466  1.0000
  H   H2082     1.0  0.99767  0.54652  0.32317  1.0000
  H   H2083     1.0  0.05390  0.74104  0.49125  1.0000
  H   H2084     1.0  0.03934  0.71775  0.41710  1.0000
  C   C1210     1.0  0.99665  0.62457  0.46421  1.0000
  H   H2085     1.0  0.99615  0.58721  0.41671  1.0000
  H   H2086     1.0  0.03130  0.50029  0.24193  1.0000
  N   N87       1.0  0.05605  0.58076  0.66438  1.0000
  H   H2087     1.0  0.02969  0.53374  0.54711  1.0000
  H   H2088     1.0  0.00747  0.57635  0.58023  1.0000
  H   H2089     1.0  0.00711  0.49597  0.66377  1.0000
  C   C1211     1.0  0.03699  0.53625  0.56021  1.0000
  H   H2090     1.0  0.02141  0.73143  0.52455  1.0000
  S   S331      1.0  0.04901  0.73021  0.55526  1.0000
  S   S332      1.0  0.02014  0.52708  0.71059  1.0000
  C   C1212     1.0  0.04715  0.62696  0.52837  1.0000
  H   H2091     1.0  0.05031  0.66734  0.55488  1.0000
  H   H2092     1.0  0.04722  0.65186  0.49274  1.0000
  H   H2093     1.0  0.02796  0.56541  0.57222  1.0000
  H   H2094     1.0  0.04523  0.54096  0.57120  1.0000
  H   H2095     1.0  0.03542  0.66007  0.52199  1.0000
  C   C1213     1.0  0.00983  0.56577  0.55613  1.0000
  Fe  Fe169     1.0  0.03061  0.60623  0.50999  1.0000
  H   H2096     1.0  0.08868  0.54343  0.69559  1.0000
  C   C1214     1.0  0.00522  0.72574  0.55416  1.0000
  Fe  Fe170     1.0  0.03509  0.58047  0.52260  1.0000
  S   S333      1.0  0.01687  0.57902  0.52351  1.0000
  S   S334      1.0  0.04849  0.56739  0.53221  1.0000
  Fe  Fe171     1.0  0.01923  0.58972  0.50493  1.0000
  H   H2097     1.0  0.07536  0.59594  0.54587  1.0000
  Fe  Fe172     1.0  0.01123  0.59641  0.52871  1.0000
  H   H2098     1.0  0.02616  0.58093  0.56953  1.0000
  S   S335      1.0  0.03811  0.58954  0.50342  1.0000
  S   S336      1.0  0.02920  0.59729  0.52896  1.0000
  H   H2099     1.0  0.00859  0.51300  0.66530  1.0000
  H   H2100     1.0  0.07785  0.59850  0.51442  1.0000
  H   H2101     1.0  0.99638  0.49331  0.70472  1.0000
  H   H2102     1.0  0.07049  0.57441  0.53354  1.0000
  N   N88       1.0  0.02741  0.50561  0.66004  1.0000
  C   C1215     1.0  0.05464  0.59343  0.65785  1.0000
  H   H2103     1.0  0.08998  0.58249  0.51959  1.0000
  S   S337      1.0  0.07086  0.66189  0.50425  1.0000
  C   C1216     1.0  0.99930  0.73274  0.51101  1.0000
  H   H2104     1.0  0.02328  0.73998  0.50479  1.0000
  S   S338      1.0  0.01191  0.68920  0.55216  1.0000
  C   C1217     1.0  0.04149  0.62388  0.52147  1.0000
  C   C1218     1.0  0.05588  0.63003  0.50409  1.0000
  H   H2105     1.0  0.03277  0.72047  0.50130  1.0000
  H   H2106     1.0  0.99677  0.52328  0.62810  1.0000
  C   C1219     1.0  0.00828  0.72512  0.50491  1.0000
  C   C1220     1.0  0.04080  0.66864  0.55921  1.0000
  H   H2107     1.0  0.04369  0.62587  0.53776  1.0000
  C   C1221     1.0  0.04294  0.54321  0.56274  1.0000
  H   H2108     1.0  0.05928  0.56430  0.64344  1.0000
  H   H2109     1.0  0.04900  0.57139  0.68181  1.0000
  S   S339      1.0  0.07154  0.67849  0.54699  1.0000
  Fe  Fe173     1.0  0.03591  0.53292  0.69850  1.0000
  C   C1222     1.0  0.05814  0.55967  0.71167  1.0000
  C   C1223     1.0  0.07293  0.60075  0.53734  1.0000
  H   H2110     1.0  0.05573  0.59608  0.55603  1.0000
  C   C1224     1.0  0.00570  0.73352  0.58302  1.0000
  H   H2111     1.0  0.00953  0.65094  0.57813  1.0000
  H   H2112     1.0  0.04679  0.65572  0.51013  1.0000
  H   H2113     1.0  0.99620  0.49509  0.64768  1.0000
  H   H2114     1.0  0.00639  0.53705  0.63905  1.0000
  H   H2115     1.0  0.02229  0.64332  0.58383  1.0000
  H   H2116     1.0  0.08318  0.55493  0.71060  1.0000
  H   H2117     1.0  0.04294  0.73090  0.52243  1.0000
  H   H2118     1.0  0.00241  0.53942  0.58661  1.0000
  C   C1225     1.0  0.03805  0.67775  0.56682  1.0000
  C   C1226     1.0  0.05271  0.49742  0.69160  1.0000
  H   H2119     1.0  0.02848  0.64657  0.54935  1.0000
  C   C1227     1.0  0.02190  0.72035  0.56408  1.0000
  H   H2120     1.0  0.03620  0.67299  0.55191  1.0000
  C   C1228     1.0  0.04736  0.58035  0.67610  1.0000
  C   C1229     1.0  0.03177  0.69427  0.53638  1.0000
  C   C1230     1.0  0.08555  0.55196  0.73479  1.0000
  C   C1231     1.0  0.05568  0.59359  0.53864  1.0000
  H   H2121     1.0  0.08646  0.61029  0.53457  1.0000
  H   H2122     1.0  0.03474  0.69474  0.54377  1.0000
  C   C1232     1.0  0.05319  0.57344  0.65780  1.0000
  H   H2123     1.0  0.02886  0.58293  0.68487  1.0000
  H   H2124     1.0  0.06588  0.60860  0.53930  1.0000
  N   N89       1.0  0.04166  0.73183  0.50472  1.0000
  C   C1233     1.0  0.01671  0.69214  0.52824  1.0000
  C   C1234     1.0  0.03278  0.55072  0.63865  1.0000
  H   H2125     1.0  0.00141  0.63083  0.51629  1.0000
  H   H2126     1.0  0.03426  0.67526  0.50432  1.0000
  S   S340      1.0  0.04150  0.50984  0.60242  1.0000
  H   H2127     1.0  0.00774  0.55038  0.64130  1.0000
  H   H2128     1.0  0.05687  0.58095  0.55557  1.0000
  C   C1235     1.0  0.00846  0.55535  0.57706  1.0000
  C   C1236     1.0  0.08331  0.53025  0.71803  1.0000
  H   H2129     1.0  0.10599  0.51990  0.71080  1.0000
  H   H2130     1.0  0.09110  0.59907  0.52631  1.0000
  H   H2131     1.0  0.99640  0.55051  0.72030  1.0000
  H   H2132     1.0  0.05919  0.65879  0.57024  1.0000
  H   H2133     1.0  0.01221  0.72204  0.54718  1.0000
  C   C1237     1.0  0.06436  0.72561  0.50061  1.0000
  H   H2134     1.0  0.02196  0.51316  0.73269  1.0000
  H   H2135     1.0  0.05858  0.57849  0.72762  1.0000
  C   C1238     1.0  0.04317  0.49838  0.73475  1.0000
  N   N90       1.0  0.00488  0.56686  0.56876  1.0000
  S   S341      1.0  0.00556  0.66367  0.54413  1.0000
  H   H2136     1.0  0.02506  0.49844  0.64663  1.0000
  C   C1239     1.0  0.01926  0.50154  0.68277  1.0000
  C   C1240     1.0  0.03771  0.51014  0.65152  1.0000
  H   H2137     1.0  0.04840  0.69540  0.52434  1.0000
  H   H2138     1.0  0.07222  0.59122  0.66907  1.0000
  N   N91       1.0  0.06843  0.59308  0.53252  1.0000
  C   C1241     1.0  0.04641  0.55279  0.55411  1.0000
  H   H2139     1.0  0.04127  0.68563  0.56127  1.0000
  H   H2140     1.0  0.05133  0.55791  0.55598  1.0000
  H   H2141     1.0  0.05454  0.59927  0.66351  1.0000
  H   H2142     1.0  0.03530  0.55100  0.53209  1.0000
  C   C1242     1.0  0.06434  0.59107  0.51347  1.0000
  H   H2143     1.0  0.02131  0.70271  0.56347  1.0000
  C   C1243     1.0  0.08350  0.60584  0.52945  1.0000
  S   S342      1.0  0.05412  0.52724  0.70183  1.0000
  C   C1244     1.0  0.03627  0.54404  0.62998  1.0000
  Fe  Fe174     1.0  0.08606  0.66732  0.50648  1.0000
  H   H2144     1.0  0.99938  0.69584  0.51165  1.0000
  C   C1245     1.0  0.03420  0.58364  0.67571  1.0000
  C   C1246     1.0  0.05528  0.71607  0.55233  1.0000
  C   C1247     1.0  0.05532  0.70642  0.56183  1.0000
  C   C1248     1.0  0.06039  0.69502  0.55999  1.0000
  C   C1249     1.0  0.06502  0.69306  0.54860  1.0000
  C   C1250     1.0  0.06464  0.70267  0.53897  1.0000
  C   C1251     1.0  0.05994  0.71422  0.54085  1.0000
  H   H2145     1.0  0.05175  0.70780  0.57069  1.0000
  H   H2146     1.0  0.06073  0.68766  0.56745  1.0000
  H   H2147     1.0  0.02720  0.64843  0.50080  1.0000
  S   S343      1.0  0.03647  0.55181  0.69085  1.0000
  H   H2148     1.0  0.00806  0.69082  0.52937  1.0000
  C   C1252     1.0  0.02055  0.69242  0.53796  1.0000
  H   H2149     1.0  0.02130  0.66474  0.57652  1.0000
  H   H2150     1.0  0.05478  0.53742  0.65335  1.0000
  H   H2151     1.0  0.01062  0.57452  0.55030  1.0000
  H   H2152     1.0  0.02674  0.72339  0.56877  1.0000
  H   H2153     1.0  0.00697  0.55654  0.58617  1.0000
  H   H2154     1.0  0.10380  0.53867  0.69715  1.0000
  S   S344      1.0  0.03325  0.52366  0.57046  1.0000
  C   C1253     1.0  0.04359  0.55569  0.54306  1.0000
  H   H2155     1.0  0.06146  0.52632  0.63750  1.0000
  H   H2156     1.0  0.99721  0.57153  0.65762  1.0000
  H   H2157     1.0  0.03362  0.62054  0.52552  1.0000
  H   H2158     1.0  0.02896  0.71864  0.53325  1.0000
  Fe  Fe175     1.0  0.01212  0.53236  0.60895  1.0000
  C   C1254     1.0  0.03946  0.69478  0.52533  1.0000
  C   C1255     1.0  0.05675  0.57110  0.72569  1.0000
  C   C1256     1.0  0.08809  0.57754  0.52877  1.0000
  H   H2159     1.0  0.03394  0.64929  0.51547  1.0000
  C   C1257     1.0  0.03715  0.65741  0.51354  1.0000
  H   H2160     1.0  0.05211  0.58755  0.53597  1.0000
  Fe  Fe176     1.0  0.05928  0.52385  0.68365  1.0000
  C   C1258     1.0  0.02841  0.72333  0.52412  1.0000
  C   C1259     1.0  0.06308  0.56852  0.64807  1.0000
  S   S345      1.0  0.01190  0.60707  0.51033  1.0000
  H   H2161     1.0  0.07499  0.57735  0.54462  1.0000
  H   H2162     1.0  0.04584  0.59679  0.65564  1.0000
  H   H2163     1.0  0.01258  0.71684  0.50967  1.0000
  S   S346      1.0  0.03471  0.55627  0.65831  1.0000
  Fe  Fe177     1.0  0.03757  0.52521  0.61086  1.0000
  C   C1260     1.0  0.04962  0.53935  0.64683  1.0000
  H   H2164     1.0  0.02846  0.68075  0.57011  1.0000
  H   H2165     1.0  0.04259  0.67455  0.57421  1.0000
  H   H2166     1.0  0.04840  0.58633  0.68101  1.0000
  C   C1261     1.0  0.11002  0.52342  0.71575  1.0000
  H   H2167     1.0  0.09380  0.57889  0.53374  1.0000
  C   C1262     1.0  0.02433  0.65922  0.56985  1.0000
  H   H2168     1.0  0.01975  0.66437  0.56265  1.0000
  H   H2169     1.0  0.01892  0.56026  0.55511  1.0000
  H   H2170     1.0  0.06866  0.56620  0.67196  1.0000
  H   H2171     1.0  0.03416  0.50185  0.72030  1.0000
  N   N92       1.0  0.03126  0.66556  0.49342  1.0000
  C   C1263     1.0  0.04860  0.55378  0.73219  1.0000
  C   C1264     1.0  0.02997  0.50156  0.67219  1.0000
  H   H2172     1.0  0.06709  0.57534  0.64138  1.0000
  C   C1265     1.0  0.05339  0.53305  0.63787  1.0000
  C   C1266     1.0  0.03737  0.54892  0.54064  1.0000
  H   H2173     1.0  0.07481  0.52154  0.73571  1.0000
  C   C1267     1.0  0.00168  0.72981  0.57390  1.0000
  H   H2174     1.0  0.08803  0.52706  0.70988  1.0000
  H   H2175     1.0  0.04328  0.59150  0.55547  1.0000
  H   H2176     1.0  0.02494  0.55771  0.63883  1.0000
  H   H2177     1.0  0.05019  0.60252  0.53605  1.0000
  C   C1268     1.0  0.05296  0.59032  0.55220  1.0000
  H   H2178     1.0  0.06037  0.59548  0.63868  1.0000
  N   N93       1.0  0.08966  0.53777  0.72085  1.0000
  H   H2179     1.0  0.06142  0.64479  0.56650  1.0000
  C   C1269     1.0  0.01928  0.64816  0.57564  1.0000
  H   H2180     1.0  0.06909  0.58171  0.51443  1.0000
  S   S347      1.0  0.02827  0.53810  0.59725  1.0000
  H   H2181     1.0  0.02127  0.64215  0.56962  1.0000
  C   C1270     1.0  0.02762  0.51641  0.73616  1.0000
  C   C1271     1.0  0.02131  0.70752  0.57001  1.0000
  C   C1272     1.0  0.04667  0.53527  0.62951  1.0000
  C   C1273     1.0  0.01171  0.72820  0.49265  1.0000
  Fe  Fe178     1.0  0.07303  0.67362  0.53001  1.0000
  S   S348      1.0  0.07138  0.50736  0.67916  1.0000
  H   H2182     1.0  0.09961  0.52511  0.73304  1.0000
  S   S349      1.0  0.08518  0.65704  0.52515  1.0000
  C   C1274     1.0  0.01662  0.51549  0.65928  1.0000
  C   C1275     1.0  0.04180  0.64895  0.55701  1.0000
  C   C1276     1.0  0.03503  0.65204  0.54714  1.0000
  H   H2183     1.0  0.04170  0.64245  0.57976  1.0000
  H   H2184     1.0  0.05123  0.64864  0.55266  1.0000
  H   H2185     1.0  0.04135  0.63978  0.56182  1.0000
  H   H2186     1.0  0.04130  0.64962  0.53914  1.0000
  C   C1277     1.0  0.00998  0.53046  0.70187  1.0000
  H   H2187     1.0  0.01093  0.68359  0.49861  1.0000
  H   H2188     1.0  0.00845  0.63347  0.54631  1.0000
  H   H2189     1.0  0.07587  0.49625  0.71663  1.0000
  H   H2190     1.0  0.02565  0.71761  0.52027  1.0000
  H   H2191     1.0  0.01307  0.53159  0.73773  1.0000
  H   H2192     1.0  0.06573  0.59509  0.50392  1.0000
  C   C1278     1.0  0.06886  0.59790  0.51957  1.0000
  H   H2193     1.0  0.09414  0.54851  0.73738  1.0000
  H   H2194     1.0  0.99897  0.72142  0.57838  1.0000
  H   H2195     1.0  0.00462  0.64285  0.51946  1.0000
  H   H2196     1.0  0.01473  0.51766  0.65037  1.0000
  Fe  Fe179     1.0  0.02438  0.50647  0.61418  1.0000
  H   H2197     1.0  0.03915  0.65636  0.58301  1.0000
  S   S350      1.0  0.05690  0.66884  0.52924  1.0000
  H   H2198     1.0  0.00897  0.61769  0.53667  1.0000
  H   H2199     1.0  0.05990  0.64560  0.58132  1.0000
  N   N94       1.0  0.03751  0.65707  0.56548  1.0000
  H   H2200     1.0  0.03085  0.66147  0.54465  1.0000
  H   H2201     1.0  0.09761  0.55377  0.69188  1.0000
  H   H2202     1.0  0.02057  0.52552  0.66981  1.0000
  H   H2203     1.0  0.08927  0.51332  0.72976  1.0000
  H   H2204     1.0  0.07683  0.51418  0.72429  1.0000
  C   C1279     1.0  0.04322  0.65146  0.57583  1.0000
  H   H2205     1.0  0.02814  0.71987  0.55546  1.0000
  C   C1280     1.0  0.05668  0.65017  0.57315  1.0000
  H   H2206     1.0  0.01370  0.70662  0.57746  1.0000
  H   H2207     1.0  0.01384  0.72744  0.58533  1.0000
  C   C1281     1.0  0.04057  0.72579  0.51750  1.0000
  Fe  Fe180     1.0  0.04299  0.54619  0.67362  1.0000
  C   C1282     1.0  0.00347  0.62681  0.55092  1.0000
  S   S351      1.0  0.04619  0.69171  0.50288  1.0000
  H   H2208     1.0  0.07221  0.72950  0.49712  1.0000
  H   H2209     1.0  0.01812  0.55185  0.57469  1.0000
  C   C1283     1.0  0.01730  0.52701  0.66177  1.0000
  C   C1284     1.0  0.00297  0.54517  0.57769  1.0000
  Fe  Fe181     1.0  0.06056  0.67834  0.51044  1.0000
  H   H2210     1.0  0.03190  0.57751  0.67190  1.0000
  H   H2211     1.0  0.05936  0.63110  0.49471  1.0000
  C   C1285     1.0  0.09151  0.54808  0.71071  1.0000
  C   C1286     1.0  0.01002  0.57588  0.57081  1.0000
  H   H2212     1.0  0.04695  0.71713  0.51851  1.0000
  C   C1287     1.0  0.07504  0.58044  0.53509  1.0000
  H   H2213     1.0  0.00838  0.53286  0.66299  1.0000
  C   C1288     1.0  0.02357  0.57390  0.56732  1.0000
  H   H2214     1.0  0.99680  0.56972  0.63832  1.0000
  H   H2215     1.0  0.03112  0.54585  0.62347  1.0000
  H   H2216     1.0  0.03296  0.52125  0.72825  1.0000
  H   H2217     1.0  0.99986  0.73371  0.54942  1.0000
  C   C1289     1.0  0.05103  0.56330  0.73473  1.0000
  H   H2218     1.0  0.06924  0.63675  0.50689  1.0000
  H   H2219     1.0  0.02141  0.66977  0.51021  1.0000
  H   H2220     1.0  0.09795  0.55243  0.71176  1.0000
  C   C1290     1.0  0.08100  0.51925  0.72761  1.0000
  H   H2221     1.0  0.07467  0.53559  0.71613  1.0000
  H   H2222     1.0  0.11643  0.52844  0.70952  1.0000
  H   H2223     1.0  0.03574  0.51416  0.64265  1.0000
  H   H2224     1.0  0.02701  0.57454  0.55773  1.0000
  C   C1291     1.0  0.08174  0.54255  0.73132  1.0000
  S   S352      1.0  0.03901  0.62153  0.50055  1.0000
  S   S353      1.0  0.06204  0.54187  0.67432  1.0000
  C   C1292     1.0  0.10114  0.53092  0.72419  1.0000
  H   H2225     1.0  0.00003  0.51791  0.71318  1.0000
  C   C1293     1.0  0.09569  0.54562  0.69822  1.0000
  C   C1294     1.0  0.03422  0.53914  0.54914  1.0000
  C   C1295     1.0  0.05318  0.73560  0.50033  1.0000
  H   H2226     1.0  0.06367  0.60712  0.51811  1.0000
  H   H2227     1.0  0.08091  0.61273  0.52184  1.0000
  H   H2228     1.0  0.06512  0.57513  0.70737  1.0000
  C   C1296     1.0  0.06042  0.56921  0.71423  1.0000
  H   H2229     1.0  0.08570  0.56007  0.72779  1.0000
  S   S354      1.0  0.05154  0.52700  0.61859  1.0000
  N   N95       1.0  0.01048  0.72894  0.56241  1.0000
  H   H2230     1.0  0.04401  0.54784  0.73915  1.0000
  S   S355      1.0  0.04096  0.52776  0.68120  1.0000
  S   S356      1.0  0.06405  0.63558  0.53180  1.0000
  C   C1297     1.0  0.06351  0.59622  0.64613  1.0000
  H   H2231     1.0  0.06446  0.60539  0.64460  1.0000
  H   H2232     1.0  0.99795  0.55643  0.65870  1.0000
  C   C1298     1.0  0.05709  0.63171  0.52311  1.0000
  H   H2233     1.0  0.09062  0.56817  0.52809  1.0000
  H   H2234     1.0  0.06687  0.58159  0.68281  1.0000
  H   H2235     1.0  0.01475  0.65989  0.50018  1.0000
  C   C1299     1.0  0.05204  0.55204  0.72060  1.0000
  H   H2236     1.0  0.05044  0.56557  0.66402  1.0000
  H   H2237     1.0  0.01791  0.54383  0.68902  1.0000
  C   C1300     1.0  0.04588  0.62539  0.50932  1.0000
  H   H2238     1.0  0.02127  0.69273  0.50966  1.0000
  S   S357      1.0  0.02114  0.52110  0.62334  1.0000
  C   C1301     1.0  0.02603  0.49554  0.65594  1.0000
  C   C1302     1.0  0.06147  0.63323  0.51097  1.0000
  Fe  Fe182     1.0  0.06906  0.65299  0.52325  1.0000
  S   S358      1.0  0.07578  0.68438  0.51157  1.0000
  C   C1303     1.0  0.01101  0.53913  0.69154  1.0000
  C   C1304     1.0  0.07221  0.58197  0.67370  1.0000
  H   H2239     1.0  0.08138  0.57752  0.67450  1.0000
  S   S359      1.0  0.99657  0.59868  0.54454  1.0000
  H   H2240     1.0  0.03142  0.59282  0.67097  1.0000
  H   H2241     1.0  0.02294  0.53182  0.65422  1.0000
  H   H2242     1.0  0.02915  0.70318  0.57388  1.0000
  C   C1305     1.0  0.99715  0.60939  0.55139  1.0000
  H   H2243     1.0  0.05996  0.72166  0.53348  1.0000
  C   C1306     1.0  0.03069  0.66757  0.50527  1.0000
  H   H2244     1.0  0.06830  0.70122  0.53015  1.0000
  H   H2245     1.0  0.00647  0.58485  0.56589  1.0000
  H   H2246     1.0  0.10595  0.53693  0.72529  1.0000
  Fe  Fe183     1.0  0.03065  0.52240  0.58988  1.0000
  H   H2247     1.0  0.07000  0.56150  0.65183  1.0000
  H   H2248     1.0  0.11499  0.51550  0.72098  1.0000
  C   C1307     1.0  0.02421  0.69320  0.51707  1.0000
  S   S360      1.0  0.01384  0.51737  0.60091  1.0000
  H   H2249     1.0  0.00847  0.55888  0.54200  1.0000
  H   H2250     1.0  0.04555  0.57840  0.65376  1.0000
  C   C1308     1.0  0.03575  0.69400  0.51573  1.0000
  S   S361      1.0  0.06390  0.55705  0.69742  1.0000
  H   H2251     1.0  0.05021  0.54468  0.71866  1.0000
  H   H2252     1.0  0.07251  0.59077  0.64599  1.0000
  C   C1309     1.0  0.03937  0.54827  0.64717  1.0000
  Fe  Fe184     1.0  0.05528  0.54573  0.69239  1.0000
  H   H2253     1.0  0.07507  0.57471  0.65876  1.0000
  C   C1310     1.0  0.06815  0.57545  0.66688  1.0000
  H   H2254     1.0  0.00348  0.55018  0.62829  1.0000
  C   C1311     1.0  0.00381  0.61785  0.54550  1.0000
  C   C1312     1.0  0.00290  0.54201  0.68449  1.0000
  H   H2255     1.0  0.08085  0.53541  0.73932  1.0000
  C   C1313     1.0  0.00089  0.52454  0.70511  1.0000
  C   C1314     1.0  0.99780  0.64010  0.51705  1.0000
  H   H2256     1.0  0.02810  0.73624  0.54243  1.0000
  H   H2257     1.0  0.03506  0.50730  0.67338  1.0000
  C   C1315     1.0  0.04954  0.50105  0.64982  1.0000
  H   H2258     1.0  0.03950  0.51726  0.65440  1.0000
  H   H2259     1.0  0.04791  0.51781  0.73818  1.0000
  C   C1316     1.0  0.00294  0.56074  0.55056  1.0000
  H   H2260     1.0  0.06484  0.72065  0.50970  1.0000
  H   H2261     1.0  0.99667  0.64578  0.50838  1.0000
  H   H2262     1.0  0.00850  0.53977  0.57124  1.0000
  H   H2263     1.0  0.04991  0.50439  0.69637  1.0000
  H   H2264     1.0  0.01129  0.50013  0.68123  1.0000
  H   H2265     1.0  0.00369  0.54888  0.67664  1.0000
  H   H2266     1.0  0.07270  0.54648  0.72986  1.0000
  H   H2267     1.0  0.04795  0.71504  0.49956  1.0000
  H   H2268     1.0  0.05010  0.50258  0.72820  1.0000
  C   C1317     1.0  0.04120  0.72332  0.49801  1.0000
  Fe  Fe185     1.0  0.99870  0.68002  0.55127  1.0000
  H   H2269     1.0  0.02180  0.49428  0.69012  1.0000
  C   C1318     1.0  0.01313  0.74096  0.55700  1.0000
  H   H2270     1.0  0.05477  0.59168  0.51668  1.0000
  C   C1319     1.0  0.00247  0.54662  0.63786  1.0000
  C   C1320     1.0  0.02380  0.65697  0.49515  1.0000
  H   H2271     1.0  0.01708  0.50969  0.68615  1.0000
  H   H2272     1.0  0.05665  0.50576  0.64483  1.0000
  S   S362      1.0  0.10244  0.66704  0.49214  1.0000
  H   H2273     1.0  0.06519  0.71953  0.49502  1.0000
  H   H2274     1.0  0.00071  0.55239  0.55590  1.0000
  H   H2275     1.0  0.99710  0.70993  0.50202  1.0000
  H   H2276     1.0  0.00112  0.70873  0.56495  1.0000
  H   H2277     1.0  0.05219  0.67178  0.49210  1.0000
  H   H2278     1.0  0.05367  0.74144  0.50565  1.0000
  H   H2279     1.0  0.08005  0.49621  0.70134  1.0000
  C   C1321     1.0  0.99674  0.62708  0.56234  1.0000
  H   H2280     1.0  0.99872  0.73328  0.59123  1.0000
  S   S363      1.0  0.99631  0.63798  0.56947  1.0000
  H   H2281     1.0  0.05186  0.49599  0.65828  1.0000
  C   C1322     1.0  0.06290  0.49692  0.68259  1.0000
  C   C1323     1.0  0.03182  0.74254  0.50297  1.0000
  C   C1324     1.0  0.03696  0.49451  0.72749  1.0000
  H   H2282     1.0  0.04958  0.49499  0.64445  1.0000
  C   C1325     1.0  0.99705  0.71702  0.55957  1.0000
  H   H2283     1.0  0.00689  0.74268  0.58001  1.0000
  H   H2284     1.0  0.01847  0.74301  0.56194  1.0000
  C   C1326     1.0  0.01985  0.74296  0.54405  1.0000
  H   H2285     1.0  0.46254  0.68447  0.90489  1.0000
  H   H2286     1.0  0.33547  0.50428  0.96037  1.0000
  H   H2287     1.0  0.24395  0.57473  0.93945  1.0000
  H   H2288     1.0  0.01459  0.49851  0.80807  1.0000
  Fe  Fe186     1.0  0.31845  0.49390  0.93022  1.0000
  C   C1327     1.0  0.38431  0.52058  0.92281  1.0000
  S   S364      1.0  0.32554  0.50960  0.92812  1.0000
  H   H2289     1.0  0.07544  0.49433  0.79404  1.0000
  S   S365      1.0  0.16641  0.50244  0.92192  1.0000
  C   C1328     1.0  0.29745  0.50910  0.88506  1.0000
  H   H2290     1.0  0.27598  0.55821  0.91117  1.0000
  Fe  Fe187     1.0  0.32662  0.51231  0.90880  1.0000
  S   S366      1.0  0.32017  0.52878  0.89600  1.0000
  H   H2291     1.0  0.49184  0.64011  0.98491  1.0000
  H   H2292     1.0  0.27618  0.50961  0.95370  1.0000
  H   H2293     1.0  0.20019  0.55475  0.97627  1.0000
  Fe  Fe188     1.0  0.37431  0.55752  0.97177  1.0000
  H   H2294     1.0  0.03355  0.52455  0.84689  1.0000
  S   S367      1.0  0.36261  0.56714  0.95902  1.0000
  Fe  Fe189     1.0  0.39527  0.53731  0.97485  1.0000
  S   S368      1.0  0.40783  0.52371  0.96512  1.0000
  H   H2295     1.0  0.43841  0.55794  0.98754  1.0000
  C   C1329     1.0  0.11452  0.52108  0.84330  1.0000
  C   C1330     1.0  0.44337  0.68334  0.98738  1.0000
  S   S369      1.0  0.39375  0.55670  0.96740  1.0000
  N   N96       1.0  0.03558  0.50650  0.74276  1.0000
  S   S370      1.0  0.46591  0.60872  0.97097  1.0000
  H   H2296     1.0  0.27474  0.49469  0.97198  1.0000
  H   H2297     1.0  0.37681  0.61309  0.95494  1.0000
  H   H2298     1.0  0.00256  0.54366  0.80233  1.0000
  C   C1331     1.0  0.19779  0.50153  0.92290  1.0000
  S   S371      1.0  0.43954  0.59720  0.97333  1.0000
  Fe  Fe190     1.0  0.46100  0.62796  0.97085  1.0000
  S   S372      1.0  0.46866  0.64170  0.95648  1.0000
  C   C1332     1.0  0.23460  0.52690  0.96993  1.0000
  H   H2299     1.0  0.21101  0.50026  0.87852  1.0000
  Fe  Fe191     1.0  0.29759  0.56342  0.93935  1.0000
  S   S373      1.0  0.28803  0.57187  0.95475  1.0000
  S   S374      1.0  0.30093  0.57218  0.92023  1.0000
  Fe  Fe192     1.0  0.29926  0.53893  0.95405  1.0000
  S   S375      1.0  0.28996  0.54504  0.97071  1.0000
  S   S376      1.0  0.30565  0.51983  0.95411  1.0000
  Fe  Fe193     1.0  0.27763  0.55787  0.96001  1.0000
  S   S377      1.0  0.25803  0.56122  0.96761  1.0000
  Fe  Fe194     1.0  0.30125  0.55824  0.96409  1.0000
  S   S378      1.0  0.31015  0.56024  0.97717  1.0000
  S   S379      1.0  0.28610  0.55065  0.94386  1.0000
  S   S380      1.0  0.31160  0.55098  0.94828  1.0000
  S   S381      1.0  0.44094  0.69428  0.95586  1.0000
  S   S382      1.0  0.31762  0.49785  0.91142  1.0000
  H   H2300     1.0  0.33529  0.50525  0.85972  1.0000
  Fe  Fe195     1.0  0.18223  0.55395  0.94367  1.0000
  S   S383      1.0  0.17851  0.53851  0.95809  1.0000
  S   S384      1.0  0.16904  0.56343  0.93260  1.0000
  Fe  Fe196     1.0  0.20713  0.55065  0.94696  1.0000
  S   S385      1.0  0.20516  0.53507  0.96179  1.0000
  S   S386      1.0  0.22540  0.55405  0.93926  1.0000
  Fe  Fe197     1.0  0.19679  0.52971  0.95060  1.0000
  S   S387      1.0  0.20250  0.51122  0.94841  1.0000
  Fe  Fe198     1.0  0.18716  0.54559  0.96770  1.0000
  H   H2301     1.0  0.24859  0.49662  0.96845  1.0000
  S   S388      1.0  0.19984  0.54454  0.93526  1.0000
  S   S389      1.0  0.18960  0.56193  0.95387  1.0000
  H   H2302     1.0  0.25120  0.53027  0.98119  1.0000
  S   S390      1.0  0.04128  0.54310  0.77959  1.0000
  C   C1333     1.0  0.13553  0.49727  0.96916  1.0000
  H   H2303     1.0  0.25940  0.59788  0.93572  1.0000
  S   S391      1.0  0.05477  0.54076  0.80555  1.0000
  H   H2304     1.0  0.24648  0.57130  0.98950  1.0000
  H   H2305     1.0  0.48905  0.66527  0.91367  1.0000
  C   C1334     1.0  0.00222  0.53396  0.76943  1.0000
  H   H2306     1.0  0.35102  0.51325  0.97808  1.0000
  H   H2307     1.0  0.39991  0.49758  0.93691  1.0000
  Fe  Fe199     1.0  0.15920  0.51569  0.90729  1.0000
  H   H2308     1.0  0.09071  0.50372  0.78206  1.0000
  S   S392      1.0  0.16167  0.53422  0.90060  1.0000
  C   C1335     1.0  0.20864  0.50509  0.91385  1.0000
  C   C1336     1.0  0.20160  0.49597  0.97983  1.0000
  H   H2309     1.0  0.14360  0.50426  0.86416  1.0000
  H   H2310     1.0  0.14010  0.49363  0.85910  1.0000
  C   C1337     1.0  0.12997  0.51172  0.85421  1.0000
  S   S393      1.0  0.14095  0.51279  0.91438  1.0000
  H   H2311     1.0  0.15392  0.53930  0.98408  1.0000
  H   H2312     1.0  0.44054  0.69249  0.98877  1.0000
  H   H2313     1.0  0.12332  0.50990  0.86246  1.0000
  H   H2314     1.0  0.11243  0.51356  0.77188  1.0000
  C   C1338     1.0  0.19970  0.55183  0.98562  1.0000
  S   S394      1.0  0.04727  0.56557  0.74911  1.0000
  H   H2315     1.0  0.30234  0.51069  0.86278  1.0000
  C   C1339     1.0  0.46678  0.57712  0.98516  1.0000
  H   H2316     1.0  0.45733  0.72158  0.98192  1.0000
  H   H2317     1.0  0.39159  0.61258  0.96893  1.0000
  C   C1340     1.0  0.31784  0.52270  0.86582  1.0000
  H   H2318     1.0  0.45889  0.66473  0.98178  1.0000
  H   H2319     1.0  0.23508  0.52926  0.95143  1.0000
  C   C1341     1.0  0.08432  0.50415  0.75748  1.0000
  N   N97       1.0  0.38448  0.51988  0.93538  1.0000
  H   H2320     1.0  0.17330  0.49361  0.96715  1.0000
  H   H2321     1.0  0.01358  0.50130  0.74638  1.0000
  C   C1342     1.0  0.10849  0.51485  0.78096  1.0000
  H   H2322     1.0  0.31408  0.49774  0.88642  1.0000
  C   C1343     1.0  0.31175  0.50623  0.86211  1.0000
  H   H2323     1.0  0.22857  0.53402  0.98934  1.0000
  C   C1344     1.0  0.46229  0.71550  0.98807  1.0000
  C   C1345     1.0  0.08535  0.49407  0.75350  1.0000
  H   H2324     1.0  0.27130  0.60180  0.91576  1.0000
  H   H2325     1.0  0.45030  0.57282  0.97992  1.0000
  H   H2326     1.0  0.36864  0.53450  0.91920  1.0000
  H   H2327     1.0  0.13888  0.51668  0.81367  1.0000
  H   H2328     1.0  0.01393  0.52136  0.75138  1.0000
  H   H2329     1.0  0.11068  0.52115  0.83599  1.0000
  H   H2330     1.0  0.10757  0.50572  0.79903  1.0000
  H   H2331     1.0  0.11031  0.50544  0.88588  1.0000
  H   H2332     1.0  0.48995  0.61327  0.97536  1.0000
  H   H2333     1.0  0.23184  0.50715  0.90607  1.0000
  H   H2334     1.0  0.40179  0.52366  0.93054  1.0000
  H   H2335     1.0  0.20093  0.53214  0.88424  1.0000
  C   C1346     1.0  0.15293  0.51005  0.96300  1.0000
  C   C1347     1.0  0.06788  0.53362  0.81022  1.0000
  C   C1348     1.0  0.08914  0.52709  0.80588  1.0000
  C   C1349     1.0  0.07871  0.53318  0.80214  1.0000
  H   H2336     1.0  0.09752  0.52704  0.79973  1.0000
  H   H2337     1.0  0.07904  0.53771  0.79306  1.0000
  C   C1350     1.0  0.18110  0.50566  0.97872  1.0000
  H   H2338     1.0  0.12418  0.52395  0.81915  1.0000
  C   C1351     1.0  0.10475  0.50408  0.74813  1.0000
  C   C1352     1.0  0.09399  0.50920  0.75469  1.0000
  H   H2339     1.0  0.44745  0.68427  0.97791  1.0000
  H   H2340     1.0  0.44897  0.66462  0.93153  1.0000
  C   C1353     1.0  0.21744  0.50933  0.94181  1.0000
  C   C1354     1.0  0.22285  0.51884  0.93836  1.0000
  C   C1355     1.0  0.23427  0.51786  0.93149  1.0000
  C   C1356     1.0  0.24035  0.50728  0.92815  1.0000
  C   C1357     1.0  0.13460  0.51493  0.83265  1.0000
  H   H2341     1.0  0.11638  0.52997  0.84144  1.0000
  H   H2342     1.0  0.21822  0.52710  0.94069  1.0000
  H   H2343     1.0  0.23814  0.52545  0.92836  1.0000
  H   H2344     1.0  0.33169  0.51205  0.98686  1.0000
  H   H2345     1.0  0.19274  0.50830  0.92806  1.0000
  C   C1358     1.0  0.16740  0.55488  0.92389  1.0000
  C   C1359     1.0  0.16222  0.56058  0.91430  1.0000
  C   C1360     1.0  0.16066  0.55408  0.90722  1.0000
  C   C1361     1.0  0.16390  0.54180  0.90988  1.0000
  C   C1362     1.0  0.16888  0.53599  0.91963  1.0000
  C   C1363     1.0  0.17087  0.54255  0.92651  1.0000
  H   H2346     1.0  0.15955  0.57007  0.91223  1.0000
  H   H2347     1.0  0.15683  0.55861  0.89969  1.0000
  H   H2348     1.0  0.17134  0.52649  0.92178  1.0000
  H   H2349     1.0  0.17486  0.53808  0.93393  1.0000
  S   S395      1.0  0.44934  0.72008  0.96287  1.0000
  C   C1364     1.0  0.01195  0.53909  0.76573  1.0000
  C   C1365     1.0  0.02265  0.53273  0.76874  1.0000
  S   S396      1.0  0.26163  0.49639  0.88855  1.0000
  H   H2350     1.0  0.44864  0.67908  0.93220  1.0000
  S   S397      1.0  0.47112  0.70423  0.94677  1.0000
  H   H2351     1.0  0.01136  0.54780  0.76011  1.0000
  H   H2352     1.0  0.03027  0.53655  0.76531  1.0000
  S   S398      1.0  0.06390  0.52084  0.78400  1.0000
  C   C1366     1.0  0.47836  0.69085  0.89753  1.0000
  H   H2353     1.0  0.20072  0.49337  0.92924  1.0000
  H   H2354     1.0  0.22719  0.58437  0.92943  1.0000
  H   H2355     1.0  0.41465  0.50288  0.95575  1.0000
  C   C1367     1.0  0.06751  0.52792  0.82200  1.0000
  H   H2356     1.0  0.12644  0.49546  0.92008  1.0000
  C   C1368     1.0  0.24886  0.55741  0.96099  1.0000
  C   C1369     1.0  0.23661  0.56134  0.96427  1.0000
  C   C1370     1.0  0.22918  0.55965  0.95817  1.0000
  C   C1371     1.0  0.23401  0.55413  0.94866  1.0000
  C   C1372     1.0  0.24619  0.54963  0.94580  1.0000
  C   C1373     1.0  0.25358  0.55113  0.95203  1.0000
  H   H2357     1.0  0.23286  0.56615  0.97123  1.0000
  H   H2358     1.0  0.21979  0.56317  0.96043  1.0000
  H   H2359     1.0  0.24992  0.54522  0.93854  1.0000
  H   H2360     1.0  0.26294  0.54775  0.94965  1.0000
  C   C1374     1.0  0.29848  0.51275  0.96758  1.0000
  C   C1375     1.0  0.30499  0.50363  0.97463  1.0000
  H   H2361     1.0  0.05751  0.50966  0.82009  1.0000
  C   C1376     1.0  0.28663  0.51742  0.97203  1.0000
  H   H2362     1.0  0.03859  0.51760  0.75238  1.0000
  H   H2363     1.0  0.28159  0.52451  0.96654  1.0000
  C   C1377     1.0  0.46072  0.65589  0.95804  1.0000
  C   C1378     1.0  0.44851  0.65899  0.95935  1.0000
  C   C1379     1.0  0.44246  0.67077  0.95889  1.0000
  C   C1380     1.0  0.44861  0.67947  0.95716  1.0000
  C   C1381     1.0  0.46073  0.67623  0.95652  1.0000
  C   C1382     1.0  0.46679  0.66448  0.95690  1.0000
  H   H2364     1.0  0.44377  0.65237  0.96025  1.0000
  H   H2365     1.0  0.43305  0.67319  0.95959  1.0000
  H   H2366     1.0  0.46551  0.68275  0.95553  1.0000
  H   H2367     1.0  0.47621  0.66207  0.95612  1.0000
  C   C1383     1.0  0.34817  0.56486  0.96401  1.0000
  C   C1384     1.0  0.34112  0.56695  0.95595  1.0000
  C   C1385     1.0  0.32951  0.56537  0.95986  1.0000
  C   C1386     1.0  0.32480  0.56196  0.97188  1.0000
  H   H2368     1.0  0.12810  0.50814  0.82111  1.0000
  C   C1387     1.0  0.34354  0.56119  0.97600  1.0000
  H   H2369     1.0  0.34464  0.56983  0.94666  1.0000
  H   H2370     1.0  0.32413  0.56707  0.95358  1.0000
  H   H2371     1.0  0.19214  0.49486  0.89008  1.0000
  H   H2372     1.0  0.15596  0.55577  0.98997  1.0000
  C   C1388     1.0  0.01818  0.49590  0.75339  1.0000
  C   C1389     1.0  0.02624  0.52245  0.80867  1.0000
  S   S399      1.0  0.10153  0.51195  0.82179  1.0000
  H   H2373     1.0  0.37919  0.50359  0.93894  1.0000
  C   C1390     1.0  0.42640  0.58246  0.97267  1.0000
  C   C1391     1.0  0.41730  0.57628  0.97688  1.0000
  H   H2374     1.0  0.11269  0.52127  0.78223  1.0000
  H   H2375     1.0  0.27250  0.59901  0.90190  1.0000
  H   H2376     1.0  0.43234  0.58168  0.96426  1.0000
  H   H2377     1.0  0.41626  0.57085  0.97173  1.0000
  C   C1392     1.0  0.23532  0.49750  0.93246  1.0000
  S   S400      1.0  0.44994  0.72292  0.93505  1.0000
  H   H2378     1.0  0.21532  0.50389  0.91896  1.0000
  H   H2379     1.0  0.39003  0.52641  0.91658  1.0000
  H   H2380     1.0  0.45265  0.69546  0.91683  1.0000
  H   H2381     1.0  0.37248  0.50315  0.96199  1.0000
  H   H2382     1.0  0.31771  0.51767  0.84501  1.0000
  C   C1393     1.0  0.31623  0.54145  0.90174  1.0000
  C   C1394     1.0  0.30899  0.55170  0.89661  1.0000
  C   C1395     1.0  0.30481  0.56146  0.90191  1.0000
  C   C1396     1.0  0.30773  0.56090  0.91243  1.0000
  C   C1397     1.0  0.31541  0.55086  0.91719  1.0000
  C   C1398     1.0  0.31973  0.54120  0.91182  1.0000
  H   H2383     1.0  0.30640  0.55199  0.88871  1.0000
  H   H2384     1.0  0.29904  0.56927  0.89806  1.0000
  H   H2385     1.0  0.31810  0.55050  0.92500  1.0000
  H   H2386     1.0  0.32559  0.53348  0.91563  1.0000
  H   H2387     1.0  0.47744  0.58296  0.96797  1.0000
  S   S401      1.0  0.35609  0.49814  0.93433  1.0000
  H   H2388     1.0  0.47631  0.69343  0.92144  1.0000
  C   C1399     1.0  0.40356  0.51024  0.97042  1.0000
  H   H2389     1.0  0.35409  0.53443  0.97277  1.0000
  H   H2390     1.0  0.27676  0.57315  0.90582  1.0000
  C   C1400     1.0  0.03613  0.52028  0.82995  1.0000
  H   H2391     1.0  0.07601  0.50804  0.76261  1.0000
  C   C1401     1.0  0.13112  0.51593  0.82108  1.0000
  C   C1402     1.0  0.27303  0.50639  0.94771  1.0000
  H   H2392     1.0  0.15110  0.57500  0.99043  1.0000
  S   S402      1.0  0.09253  0.52224  0.75888  1.0000
  H   H2393     1.0  0.21230  0.49833  0.90839  1.0000
  C   C1403     1.0  0.45652  0.66392  0.99146  1.0000
  H   H2394     1.0  0.46423  0.68973  0.97298  1.0000
  C   C1404     1.0  0.15070  0.50572  0.95444  1.0000
  H   H2395     1.0  0.47583  0.55350  0.98814  1.0000
  H   H2396     1.0  0.47510  0.67345  0.90181  1.0000
  H   H2397     1.0  0.11871  0.50120  0.93284  1.0000
  H   H2398     1.0  0.30189  0.53407  0.87406  1.0000
  C   C1405     1.0  0.07788  0.52125  0.82557  1.0000
  H   H2399     1.0  0.46013  0.70638  0.91647  1.0000
  H   H2400     1.0  0.31411  0.49995  0.97111  1.0000
  C   C1406     1.0  0.13788  0.50145  0.97775  1.0000
  H   H2401     1.0  0.29362  0.53865  0.92131  1.0000
  C   C1407     1.0  0.39542  0.50827  0.98107  1.0000
  C   C1408     1.0  0.40446  0.50491  0.93272  1.0000
  C   C1409     1.0  0.01373  0.51639  0.77983  1.0000
  H   H2402     1.0  0.13641  0.52354  0.83223  1.0000
  N   N98       1.0  0.33786  0.51740  0.96797  1.0000
  C   C1410     1.0  0.34222  0.50587  0.96399  1.0000
  C   C1411     1.0  0.33332  0.52662  0.95808  1.0000
  C   C1412     1.0  0.32807  0.51604  0.97884  1.0000
  C   C1413     1.0  0.34798  0.52011  0.97073  1.0000
  C   C1414     1.0  0.45265  0.67245  0.92667  1.0000
  C   C1415     1.0  0.34236  0.52891  0.94639  1.0000
  H   H2403     1.0  0.38406  0.51037  0.95925  1.0000
  S   S403      1.0  0.13105  0.50168  0.89423  1.0000
  H   H2404     1.0  0.42677  0.50456  0.98431  1.0000
  H   H2405     1.0  0.35017  0.50606  0.95671  1.0000
  H   H2406     1.0  0.32943  0.53528  0.96049  1.0000
  H   H2407     1.0  0.32603  0.52421  0.95614  1.0000
  H   H2408     1.0  0.32308  0.50982  0.97854  1.0000
  H   H2409     1.0  0.34562  0.49779  0.87561  1.0000
  C   C1416     1.0  0.38057  0.50510  0.95555  1.0000
  H   H2410     1.0  0.35586  0.51959  0.96342  1.0000
  C   C1417     1.0  0.03823  0.51516  0.81117  1.0000
  H   H2411     1.0  0.02417  0.53103  0.74488  1.0000
  C   C1418     1.0  0.40948  0.57731  0.98767  1.0000
  H   H2412     1.0  0.34968  0.53195  0.94745  1.0000
  H   H2413     1.0  0.34572  0.52115  0.94232  1.0000
  H   H2414     1.0  0.33792  0.53606  0.94004  1.0000
  C   C1419     1.0  0.31096  0.50714  0.88242  1.0000
  H   H2415     1.0  0.03334  0.50960  0.84810  1.0000
  H   H2416     1.0  0.13279  0.49991  0.98669  1.0000
  C   C1420     1.0  0.26074  0.58894  0.94140  1.0000
  H   H2417     1.0  0.23291  0.50022  0.97308  1.0000
  H   H2418     1.0  0.35696  0.58597  0.98211  1.0000
  N   N99       1.0  0.20665  0.51733  0.90618  1.0000
  H   H2419     1.0  0.44983  0.67552  0.91822  1.0000
  C   C1421     1.0  0.21783  0.51803  0.89686  1.0000
  C   C1422     1.0  0.19664  0.51872  0.90052  1.0000
  C   C1423     1.0  0.20364  0.52613  0.91382  1.0000
  C   C1424     1.0  0.03763  0.51684  0.84274  1.0000
  C   C1425     1.0  0.19347  0.53028  0.89163  1.0000
  C   C1426     1.0  0.20494  0.53883  0.90757  1.0000
  H   H2420     1.0  0.21815  0.51472  0.97842  1.0000
  H   H2421     1.0  0.08889  0.50491  0.79675  1.0000
  H   H2422     1.0  0.21712  0.52644  0.89032  1.0000
  H   H2423     1.0  0.01219  0.50160  0.83424  1.0000
  H   H2424     1.0  0.48989  0.69897  0.98917  1.0000
  H   H2425     1.0  0.18835  0.51802  0.90724  1.0000
  H   H2426     1.0  0.19447  0.52672  0.91912  1.0000
  H   H2427     1.0  0.20921  0.52303  0.92044  1.0000
  H   H2428     1.0  0.22772  0.52238  0.90725  1.0000
  C   C1427     1.0  0.01930  0.52552  0.74311  1.0000
  H   H2429     1.0  0.25946  0.56227  0.92714  1.0000
  S   S404      1.0  0.14840  0.51488  0.98472  1.0000
  H   H2430     1.0  0.18944  0.53780  0.89603  1.0000
  H   H2431     1.0  0.18663  0.52953  0.88763  1.0000
  H   H2432     1.0  0.19672  0.54515  0.91062  1.0000
  H   H2433     1.0  0.20660  0.54086  0.89791  1.0000
  H   H2434     1.0  0.36803  0.51480  0.94469  1.0000
  S   S405      1.0  0.08894  0.49553  0.85451  1.0000
  C   C1428     1.0  0.31754  0.50830  0.84888  1.0000
  C   C1429     1.0  0.10572  0.49408  0.74403  1.0000
  C   C1430     1.0  0.33185  0.55992  0.97991  1.0000
  C   C1431     1.0  0.34564  0.53180  0.97451  1.0000
  C   C1432     1.0  0.40830  0.50139  0.96397  1.0000
  C   C1433     1.0  0.14183  0.49951  0.95745  1.0000
  H   H2435     1.0  0.27245  0.51716  0.98734  1.0000
  Fe  Fe200     1.0  0.07361  0.52939  0.76659  1.0000
  H   H2436     1.0  0.00446  0.53069  0.79729  1.0000
  H   H2437     1.0  0.20198  0.50048  0.98639  1.0000
  H   H2438     1.0  0.25137  0.50935  0.97749  1.0000
  H   H2439     1.0  0.10628  0.52285  0.86161  1.0000
  H   H2440     1.0  0.25262  0.59960  0.91862  1.0000
  N   N100      1.0  0.03880  0.51023  0.82390  1.0000
  S   S406      1.0  0.05927  0.53199  0.75727  1.0000
  C   C1434     1.0  0.45789  0.69785  0.92148  1.0000
  S   S407      1.0  0.48115  0.71329  0.96931  1.0000
  Fe  Fe201     1.0  0.44960  0.73454  0.94666  1.0000
  H   H2441     1.0  0.24147  0.59021  0.93491  1.0000
  H   H2442     1.0  0.26760  0.58815  0.94613  1.0000
  S   S408      1.0  0.34486  0.50106  0.90496  1.0000
  H   H2443     1.0  0.32234  0.53439  0.98135  1.0000
  S   S409      1.0  0.18028  0.54410  0.98695  1.0000
  Fe  Fe202     1.0  0.44703  0.60850  0.98040  1.0000
  H   H2444     1.0  0.28169  0.52967  0.93999  1.0000
  H   H2445     1.0  0.34022  0.53921  0.96936  1.0000
  H   H2446     1.0  0.21437  0.52479  0.98746  1.0000
  C   C1435     1.0  0.39205  0.49748  0.98530  1.0000
  H   H2447     1.0  0.46935  0.66099  0.92113  1.0000
  H   H2448     1.0  0.05731  0.49572  0.80857  1.0000
  C   C1436     1.0  0.26466  0.57920  0.93433  1.0000
  C   C1437     1.0  0.31860  0.52719  0.98116  1.0000
  H   H2449     1.0  0.24257  0.53043  0.96786  1.0000
  H   H2450     1.0  0.33251  0.50001  0.88658  1.0000
  H   H2451     1.0  0.02709  0.52568  0.83006  1.0000
  H   H2452     1.0  0.01421  0.51616  0.83076  1.0000
  H   H2453     1.0  0.29982  0.52899  0.86226  1.0000
  H   H2454     1.0  0.46866  0.57365  0.96763  1.0000
  C   C1438     1.0  0.20808  0.55357  0.99046  1.0000
  Fe  Fe203     1.0  0.46956  0.71982  0.93181  1.0000
  H   H2455     1.0  0.37319  0.59844  0.98694  1.0000
  N   N101      1.0  0.12569  0.51160  0.84376  1.0000
  H   H2456     1.0  0.27543  0.49844  0.92720  1.0000
  C   C1439     1.0  0.28233  0.50151  0.91979  1.0000
  H   H2457     1.0  0.25642  0.57097  0.91345  1.0000
  H   H2458     1.0  0.46749  0.66564  0.93422  1.0000
  Fe  Fe204     1.0  0.05296  0.54942  0.76238  1.0000
  H   H2459     1.0  0.27871  0.58752  0.91255  1.0000
  C   C1440     1.0  0.46611  0.66884  0.92515  1.0000
  H   H2460     1.0  0.21511  0.55768  0.98484  1.0000
  C   C1441     1.0  0.24496  0.58197  0.93154  1.0000
  N   N102      1.0  0.23320  0.51859  0.98182  1.0000
  N   N103      1.0  0.25775  0.58086  0.92522  1.0000
  H   H2461     1.0  0.19199  0.49946  0.91854  1.0000
  H   H2462     1.0  0.34155  0.53091  0.98404  1.0000
  H   H2463     1.0  0.29488  0.50502  0.92679  1.0000
  H   H2464     1.0  0.44129  0.49669  0.97901  1.0000
  H   H2465     1.0  0.49321  0.70661  0.93285  1.0000
  C   C1442     1.0  0.28148  0.51334  0.98378  1.0000
  H   H2466     1.0  0.48801  0.68733  0.89551  1.0000
  H   H2467     1.0  0.36560  0.52000  0.92581  1.0000
  C   C1443     1.0  0.46914  0.68859  0.92403  1.0000
  H   H2468     1.0  0.47692  0.68740  0.97861  1.0000
  H   H2469     1.0  0.23631  0.51818  0.89384  1.0000
  H   H2470     1.0  0.01972  0.51692  0.81118  1.0000
  C   C1444     1.0  0.33662  0.50344  0.87733  1.0000
  H   H2471     1.0  0.37805  0.57965  0.96669  1.0000
  H   H2472     1.0  0.34890  0.55951  0.98229  1.0000
  S   S410      1.0  0.44189  0.62824  0.97869  1.0000
  C   C1445     1.0  0.11586  0.49714  0.88406  1.0000
  N   N104      1.0  0.47292  0.67814  0.91834  1.0000
  C   C1446     1.0  0.10447  0.52019  0.85440  1.0000
  C   C1447     1.0  0.26145  0.57002  0.92014  1.0000
  C   C1448     1.0  0.42787  0.58967  0.97918  1.0000
  H   H2473     1.0  0.04182  0.52656  0.82494  1.0000
  H   H2474     1.0  0.43022  0.50092  0.97039  1.0000
  H   H2475     1.0  0.10365  0.49407  0.87588  1.0000
  C   C1449     1.0  0.42015  0.59057  0.99004  1.0000
  H   H2476     1.0  0.30780  0.53991  0.85883  1.0000
  H   H2477     1.0  0.03092  0.49647  0.82363  1.0000
  C   C1450     1.0  0.22385  0.49850  0.93930  1.0000
  H   H2478     1.0  0.20399  0.50207  0.97130  1.0000
  S   S411      1.0  0.46598  0.62544  0.98784  1.0000
  C   C1451     1.0  0.30609  0.53178  0.86535  1.0000
  Fe  Fe205     1.0  0.46895  0.71745  0.95728  1.0000
  C   C1452     1.0  0.49345  0.70673  0.91503  1.0000
  C   C1453     1.0  0.04363  0.51192  0.74603  1.0000
  H   H2479     1.0  0.49122  0.67916  0.91341  1.0000
  H   H2480     1.0  0.37303  0.52858  0.95716  1.0000
  H   H2481     1.0  0.13108  0.54939  0.92338  1.0000
  C   C1454     1.0  0.37114  0.60962  0.96345  1.0000
  H   H2482     1.0  0.37488  0.54306  0.95036  1.0000
  Fe  Fe206     1.0  0.14617  0.49946  0.90308  1.0000
  S   S412      1.0  0.46914  0.73282  0.94195  1.0000
  H   H2483     1.0  0.28919  0.49331  0.91884  1.0000
  C   C1455     1.0  0.18003  0.51481  0.98574  1.0000
  C   C1456     1.0  0.37185  0.59323  0.98149  1.0000
  H   H2484     1.0  0.15561  0.50749  0.94547  1.0000
  C   C1457     1.0  0.35862  0.59327  0.98477  1.0000
  H   H2485     1.0  0.23715  0.58866  0.91586  1.0000
  H   H2486     1.0  0.29304  0.51810  0.88131  1.0000
  H   H2487     1.0  0.35817  0.62075  0.97492  1.0000
  H   H2488     1.0  0.44231  0.73975  0.98932  1.0000
  C   C1458     1.0  0.43231  0.67865  0.98924  1.0000
  S   S413      1.0  0.37609  0.53815  0.97761  1.0000
  H   H2489     1.0  0.18349  0.50988  0.96923  1.0000
  H   H2490     1.0  0.01634  0.50629  0.84462  1.0000
  N   N105      1.0  0.37694  0.59719  0.96858  1.0000
  C   C1459     1.0  0.36781  0.61879  0.97120  1.0000
  Fe  Fe207     1.0  0.34322  0.49727  0.92453  1.0000
  C   C1460     1.0  0.48577  0.67269  0.91831  1.0000
  H   H2491     1.0  0.27420  0.57836  0.93053  1.0000
  C   C1461     1.0  0.27108  0.59494  0.91144  1.0000
  H   H2492     1.0  0.47560  0.69370  0.88901  1.0000
  C   C1462     1.0  0.08869  0.52086  0.81750  1.0000
  H   H2493     1.0  0.21211  0.54088  0.91010  1.0000
  C   C1463     1.0  0.02357  0.52134  0.77570  1.0000
  H   H2494     1.0  0.37659  0.58412  0.98485  1.0000
  C   C1464     1.0  0.01777  0.50703  0.83502  1.0000
  N   N106      1.0  0.12999  0.54013  0.94718  1.0000
  C   C1465     1.0  0.14302  0.53944  0.94497  1.0000
  C   C1466     1.0  0.12838  0.53432  0.93845  1.0000
  C   C1467     1.0  0.12622  0.53318  0.95944  1.0000
  C   C1468     1.0  0.12358  0.55290  0.94594  1.0000
  C   C1469     1.0  0.14696  0.54354  0.95388  1.0000
  C   C1470     1.0  0.13307  0.53966  0.92542  1.0000
  C   C1471     1.0  0.11324  0.53242  0.96356  1.0000
  C   C1472     1.0  0.11144  0.55627  0.94269  1.0000
  H   H2495     1.0  0.14821  0.53032  0.94461  1.0000
  H   H2496     1.0  0.14614  0.54492  0.93622  1.0000
  H   H2497     1.0  0.11907  0.53430  0.93942  1.0000
  H   H2498     1.0  0.13287  0.52479  0.94007  1.0000
  H   H2499     1.0  0.13150  0.52401  0.96037  1.0000
  H   H2500     1.0  0.12786  0.53682  0.96612  1.0000
  H   H2501     1.0  0.12237  0.55589  0.95416  1.0000
  H   H2502     1.0  0.12901  0.55852  0.93892  1.0000
  H   H2503     1.0  0.14166  0.55224  0.95547  1.0000
  H   H2504     1.0  0.14691  0.53694  0.96231  1.0000
  H   H2505     1.0  0.15619  0.54444  0.95027  1.0000
  H   H2506     1.0  0.32167  0.52512  0.87187  1.0000
  H   H2507     1.0  0.14271  0.53629  0.92290  1.0000
  H   H2508     1.0  0.12908  0.53689  0.91976  1.0000
  H   H2509     1.0  0.11050  0.52853  0.95783  1.0000
  H   H2510     1.0  0.10737  0.54109  0.96461  1.0000
  H   H2511     1.0  0.11203  0.52648  0.97241  1.0000
  H   H2512     1.0  0.10574  0.56359  0.94690  1.0000
  H   H2513     1.0  0.10657  0.54920  0.94555  1.0000
  H   H2514     1.0  0.11232  0.55986  0.93309  1.0000
  N   N107      1.0  0.28002  0.52009  0.92810  1.0000
  C   C1473     1.0  0.28733  0.52363  0.93416  1.0000
  C   C1474     1.0  0.26975  0.51640  0.93734  1.0000
  C   C1475     1.0  0.27556  0.53086  0.91936  1.0000
  C   C1476     1.0  0.28791  0.51041  0.92201  1.0000
  C   C1477     1.0  0.29718  0.52960  0.92590  1.0000
  H   H2515     1.0  0.09626  0.52637  0.85226  1.0000
  C   C1478     1.0  0.26609  0.53013  0.91367  1.0000
  C   C1479     1.0  0.11796  0.49647  0.92656  1.0000
  H   H2516     1.0  0.21972  0.51130  0.89155  1.0000
  H   H2517     1.0  0.33761  0.51247  0.87633  1.0000
  H   H2518     1.0  0.26395  0.51364  0.93355  1.0000
  H   H2519     1.0  0.26398  0.52402  0.94111  1.0000
  H   H2520     1.0  0.27179  0.53855  0.92361  1.0000
  H   H2521     1.0  0.28289  0.53326  0.91193  1.0000
  H   H2522     1.0  0.29304  0.51421  0.91331  1.0000
  H   H2523     1.0  0.04471  0.52081  0.80680  1.0000
  H   H2524     1.0  0.30290  0.53046  0.93112  1.0000
  H   H2525     1.0  0.30287  0.52435  0.91942  1.0000
  H   H2526     1.0  0.37294  0.52349  0.91080  1.0000
  H   H2527     1.0  0.27984  0.49892  0.94472  1.0000
  H   H2528     1.0  0.02602  0.50498  0.76097  1.0000
  H   H2529     1.0  0.13127  0.52062  0.85355  1.0000
  H   H2530     1.0  0.26922  0.52308  0.90869  1.0000
  H   H2531     1.0  0.26393  0.53849  0.90724  1.0000
  H   H2532     1.0  0.25776  0.52914  0.92017  1.0000
  H   H2533     1.0  0.29476  0.50262  0.88209  1.0000
  H   H2534     1.0  0.29411  0.50759  0.89471  1.0000
  H   H2535     1.0  0.48871  0.72949  0.97948  1.0000
  C   C1480     1.0  0.39721  0.51662  0.93620  1.0000
  H   H2536     1.0  0.31301  0.51220  0.88764  1.0000
  H   H2537     1.0  0.02284  0.53018  0.81279  1.0000
  C   C1481     1.0  0.27444  0.56657  0.91396  1.0000
  H   H2538     1.0  0.39816  0.51606  0.94513  1.0000
  S   S414      1.0  0.16410  0.50353  0.89486  1.0000
  C   C1482     1.0  0.25888  0.59176  0.91563  1.0000
  H   H2539     1.0  0.06000  0.49793  0.74554  1.0000
  H   H2540     1.0  0.32407  0.52453  0.85720  1.0000
  C   C1483     1.0  0.24257  0.50733  0.98187  1.0000
  S   S415      1.0  0.13789  0.49510  0.94671  1.0000
  C   C1484     1.0  0.14644  0.50804  0.97464  1.0000
  N   N108      1.0  0.18950  0.49398  0.98149  1.0000
  S   S416      1.0  0.48111  0.71843  0.91393  1.0000
  H   H2541     1.0  0.19850  0.51148  0.89590  1.0000
  H   H2542     1.0  0.04071  0.50806  0.80624  1.0000
  C   C1485     1.0  0.00305  0.52274  0.77677  1.0000
  H   H2543     1.0  0.38796  0.51179  0.92052  1.0000
  H   H2544     1.0  0.26410  0.57075  0.94081  1.0000
  H   H2545     1.0  0.28048  0.56493  0.91984  1.0000
  C   C1486     1.0  0.24673  0.52599  0.98996  1.0000
  H   H2546     1.0  0.05246  0.49998  0.83338  1.0000
  H   H2547     1.0  0.36280  0.60973  0.96127  1.0000
  C   C1487     1.0  0.37210  0.52492  0.91967  1.0000
  H   H2548     1.0  0.22711  0.53477  0.96996  1.0000
  H   H2549     1.0  0.09898  0.51903  0.78185  1.0000
  H   H2550     1.0  0.05922  0.52844  0.82834  1.0000
  C   C1488     1.0  0.45351  0.56481  0.98634  1.0000
  Fe  Fe208     1.0  0.04890  0.52543  0.77515  1.0000
  H   H2551     1.0  0.01433  0.50767  0.78537  1.0000
  H   H2552     1.0  0.38766  0.53167  0.95174  1.0000
  C   C1489     1.0  0.23559  0.52192  0.95925  1.0000
  H   H2553     1.0  0.46783  0.68560  0.93371  1.0000
  H   H2554     1.0  0.25628  0.59116  0.90777  1.0000
  H   H2555     1.0  0.04705  0.51436  0.84315  1.0000
  C   C1490     1.0  0.23635  0.58208  0.92428  1.0000
  H   H2556     1.0  0.27896  0.50480  0.91165  1.0000
  H   H2557     1.0  0.39117  0.60100  0.98232  1.0000
  H   H2558     1.0  0.23746  0.57324  0.92266  1.0000
  H   H2559     1.0  0.24423  0.51585  0.95709  1.0000
  C   C1491     1.0  0.22086  0.51657  0.98557  1.0000
  Fe  Fe209     1.0  0.05711  0.53914  0.78710  1.0000
  H   H2560     1.0  0.31258  0.52505  0.98981  1.0000
  H   H2561     1.0  0.07750  0.51653  0.83460  1.0000
  Fe  Fe210     1.0  0.45149  0.70818  0.95089  1.0000
  C   C1492     1.0  0.47180  0.68138  0.90572  1.0000
  H   H2562     1.0  0.45192  0.69955  0.92993  1.0000
  S   S417      1.0  0.06816  0.54740  0.77038  1.0000
  H   H2563     1.0  0.29174  0.51584  0.94004  1.0000
  H   H2564     1.0  0.02732  0.52600  0.79905  1.0000
  C   C1493     1.0  0.37890  0.53197  0.93790  1.0000
  C   C1494     1.0  0.37765  0.51095  0.94333  1.0000
  S   S418      1.0  0.25380  0.50671  0.91799  1.0000
  H   H2565     1.0  0.25258  0.58793  0.94822  1.0000
  C   C1495     1.0  0.37875  0.53366  0.95002  1.0000
  H   H2566     1.0  0.31226  0.50581  0.84423  1.0000
  H   H2567     1.0  0.47634  0.69879  0.90116  1.0000
  C   C1496     1.0  0.22894  0.51635  0.90143  1.0000
  H   H2568     1.0  0.10915  0.49693  0.77109  1.0000
  N   N109      1.0  0.31734  0.50991  0.86971  1.0000
  H   H2569     1.0  0.38335  0.53863  0.93119  1.0000
  H   H2570     1.0  0.36953  0.53466  0.93725  1.0000
  H   H2571     1.0  0.15958  0.51514  0.96054  1.0000
  S   S419      1.0  0.03704  0.51317  0.77906  1.0000
  C   C1497     1.0  0.32984  0.50269  0.86866  1.0000
  H   H2572     1.0  0.22838  0.51763  0.96030  1.0000
  C   C1498     1.0  0.09241  0.49857  0.79080  1.0000
  H   H2573     1.0  0.24324  0.50283  0.99104  1.0000
  Fe  Fe211     1.0  0.14854  0.49838  0.92804  1.0000
  H   H2574     1.0  0.35273  0.49517  0.97719  1.0000
  Fe  Fe212     1.0  0.39118  0.55802  0.98614  1.0000
  H   H2575     1.0  0.14327  0.50872  0.83242  1.0000
  C   C1499     1.0  0.02898  0.49988  0.75394  1.0000
  H   H2576     1.0  0.36548  0.59011  0.96285  1.0000
  H   H2577     1.0  0.11226  0.50796  0.74603  1.0000
  H   H2578     1.0  0.39188  0.51498  0.98619  1.0000
  H   H2579     1.0  0.14090  0.55719  0.99048  1.0000
  H   H2580     1.0  0.32832  0.55729  0.98917  1.0000
  H   H2581     1.0  0.14900  0.50370  0.84906  1.0000
  C   C1500     1.0  0.30002  0.49996  0.98652  1.0000
  H   H2582     1.0  0.39429  0.58632  0.96963  1.0000
  H   H2583     1.0  0.47296  0.57889  0.98930  1.0000
  H   H2584     1.0  0.38667  0.49636  0.95538  1.0000
  H   H2585     1.0  0.36977  0.62724  0.96557  1.0000
  H   H2586     1.0  0.40671  0.50584  0.92304  1.0000
  H   H2587     1.0  0.10262  0.51130  0.85753  1.0000
  S   S420      1.0  0.37145  0.56038  0.98986  1.0000
  H   H2588     1.0  0.39062  0.58654  0.94784  1.0000
  H   H2589     1.0  0.47333  0.67512  0.97629  1.0000
  C   C1501     1.0  0.39413  0.60303  0.97263  1.0000
  H   H2590     1.0  0.37249  0.61651  0.97837  1.0000
  C   C1502     1.0  0.03080  0.50179  0.82979  1.0000
  C   C1503     1.0  0.47418  0.71048  0.98415  1.0000
  C   C1504     1.0  0.24118  0.49807  0.97609  1.0000
  H   H2591     1.0  0.31309  0.53030  0.97454  1.0000
  Fe  Fe213     1.0  0.46921  0.60622  0.98878  1.0000
  C   C1505     1.0  0.14136  0.50276  0.85652  1.0000
  C   C1506     1.0  0.38099  0.59025  0.94915  1.0000
  H   H2592     1.0  0.31170  0.49669  0.86524  1.0000
  C   C1507     1.0  0.05135  0.50363  0.82418  1.0000
  H   H2593     1.0  0.48583  0.67469  0.93590  1.0000
  C   C1508     1.0  0.34562  0.49476  0.97340  1.0000
  C   C1509     1.0  0.46948  0.68353  0.97921  1.0000
  H   H2594     1.0  0.43452  0.67032  0.98621  1.0000
  H   H2595     1.0  0.40390  0.60079  0.97073  1.0000
  H   H2596     1.0  0.35322  0.60172  0.98091  1.0000
  C   C1510     1.0  0.99793  0.53704  0.80229  1.0000
  C   C1511     1.0  0.28832  0.50499  0.99112  1.0000
  C   C1512     1.0  0.23426  0.52495  0.99042  1.0000
  H   H2597     1.0  0.23613  0.56287  0.99112  1.0000
  H   H2598     1.0  0.39412  0.59824  0.95718  1.0000
  C   C1513     1.0  0.47402  0.57500  0.97294  1.0000
  C   C1514     1.0  0.39004  0.59574  0.96667  1.0000
  H   H2599     1.0  0.48605  0.65982  0.93526  1.0000
  H   H2600     1.0  0.42637  0.68515  0.98380  1.0000
  C   C1515     1.0  0.37502  0.58898  0.96233  1.0000
  H   H2601     1.0  0.32652  0.50267  0.84709  1.0000
  H   H2602     1.0  0.37917  0.59947  0.94417  1.0000
  H   H2603     1.0  0.05848  0.50822  0.75410  1.0000
  C   C1516     1.0  0.11079  0.50334  0.79027  1.0000
  H   H2604     1.0  0.17206  0.50444  0.98023  1.0000
  Fe  Fe214     1.0  0.09617  0.49651  0.83523  1.0000
  H   H2605     1.0  0.37749  0.58505  0.94528  1.0000
  H   H2606     1.0  0.26513  0.50299  0.95287  1.0000
  C   C1517     1.0  0.43191  0.49759  0.97938  1.0000
  H   H2607     1.0  0.41292  0.50238  0.93556  1.0000
  H   H2608     1.0  0.11085  0.50217  0.92213  1.0000
  C   C1518     1.0  0.12294  0.49992  0.84493  1.0000
  H   H2609     1.0  0.07896  0.55459  0.74259  1.0000
  H   H2610     1.0  0.27060  0.55688  0.98855  1.0000
  H   H2611     1.0  0.12052  0.50043  0.78897  1.0000
  H   H2612     1.0  0.18846  0.51727  0.98451  1.0000
  C   C1519     1.0  0.05355  0.50318  0.75169  1.0000
  H   H2613     1.0  0.48181  0.56760  0.97357  1.0000
  H   H2614     1.0  0.11644  0.50107  0.83960  1.0000
  H   H2615     1.0  0.11853  0.49658  0.85412  1.0000
  H   H2616     1.0  0.44351  0.74112  0.97408  1.0000
  N   N110      1.0  0.10546  0.49364  0.79002  1.0000
  H   H2617     1.0  0.46008  0.58550  0.98364  1.0000
  C   C1520     1.0  0.48907  0.66801  0.93042  1.0000
  H   H2618     1.0  0.05007  0.49729  0.75993  1.0000
  H   H2619     1.0  0.03423  0.49538  0.83724  1.0000
  H   H2620     1.0  0.01140  0.49654  0.76166  1.0000
  H   H2621     1.0  0.45886  0.55830  0.98091  1.0000
  H   H2622     1.0  0.17383  0.52297  0.98248  1.0000
  H   H2623     1.0  0.33005  0.49321  0.86990  1.0000
  H   H2624     1.0  0.49259  0.78670  0.05096  1.0000
  S   S421      1.0  0.48391  0.76675  0.05002  1.0000
  H   H2625     1.0  0.48766  0.84873  0.02004  1.0000
  C   C1521     1.0  0.49477  0.84068  0.02119  1.0000
  H   H2626     1.0  0.45846  0.98557  0.23423  1.0000
  H   H2627     1.0  0.45765  0.78580  0.04268  1.0000
  H   H2628     1.0  0.42291  0.76492  0.00562  1.0000
  C   C1522     1.0  0.45207  0.81564  0.03235  1.0000
  H   H2629     1.0  0.49223  0.92575  0.17501  1.0000
  H   H2630     1.0  0.49340  0.97087  0.21438  1.0000
  S   S422      1.0  0.45639  0.91503  0.23651  1.0000
  H   H2631     1.0  0.43630  0.94163  0.23800  1.0000
  H   H2632     1.0  0.43602  0.79835  0.02020  1.0000
  H   H2633     1.0  0.47134  0.94830  0.15783  1.0000
  H   H2634     1.0  0.45946  0.76798  0.02243  1.0000
  H   H2635     1.0  0.48409  0.97798  0.23731  1.0000
  S   S423      1.0  0.47476  0.92482  0.20303  1.0000
  S   S424      1.0  0.43666  0.77438  0.01714  1.0000
  C   C1523     1.0  0.49023  0.90226  0.17153  1.0000
  H   H2636     1.0  0.47516  0.92589  0.16149  1.0000
  Fe  Fe215     1.0  0.47067  0.92240  0.22274  1.0000
  C   C1524     1.0  0.49220  0.90304  0.18210  1.0000
  H   H2637     1.0  0.48136  0.90322  0.17068  1.0000
  H   H2638     1.0  0.47523  0.96936  0.23610  1.0000
  H   H2639     1.0  0.43404  0.81009  0.02715  1.0000
  C   C1525     1.0  0.45681  0.76380  0.04120  1.0000
  H   H2640     1.0  0.46184  0.93309  0.16990  1.0000
  H   H2641     1.0  0.43641  0.75705  0.99860  1.0000
  C   C1526     1.0  0.47057  0.80217  0.02580  1.0000
  H   H2642     1.0  0.45457  0.80448  0.01401  1.0000
  H   H2643     1.0  0.41420  0.74795  0.01312  1.0000
  Fe  Fe216     1.0  0.45040  0.78045  0.00146  1.0000
  H   H2644     1.0  0.47210  0.79303  0.04863  1.0000
  H   H2645     1.0  0.49050  0.83328  0.02612  1.0000
  H   H2646     1.0  0.48054  0.94236  0.14194  1.0000
  H   H2647     1.0  0.47375  0.92553  0.17686  1.0000
  Fe  Fe217     1.0  0.49455  0.75094  0.04276  1.0000
  H   H2648     1.0  0.46941  0.74618  0.99720  1.0000
  H   H2649     1.0  0.43008  0.76527  0.06011  1.0000
  C   C1527     1.0  0.40918  0.76361  0.99228  1.0000
  H   H2650     1.0  0.47162  0.75547  0.00866  1.0000
  C   C1528     1.0  0.47486  0.97709  0.23948  1.0000
  C   C1529     1.0  0.42674  0.75792  0.00047  1.0000
  Fe  Fe218     1.0  0.47282  0.75436  0.06183  1.0000
  C   C1530     1.0  0.49484  0.93466  0.15192  1.0000
  H   H2651     1.0  0.48182  0.78936  0.01532  1.0000
  C   C1531     1.0  0.48250  0.98931  0.19124  1.0000
  H   H2652     1.0  0.48488  0.90452  0.18944  1.0000
  C   C1532     1.0  0.49011  0.93870  0.14058  1.0000
  S   S425      1.0  0.47473  0.95932  0.19005  1.0000
  H   H2653     1.0  0.46075  0.82555  0.01538  1.0000
  H   H2654     1.0  0.47333  0.78255  0.02871  1.0000
  H   H2655     1.0  0.48709  0.74872  0.00836  1.0000
  H   H2656     1.0  0.42596  0.78221  0.99471  1.0000
  H   H2657     1.0  0.49001  0.80829  0.04353  1.0000
  C   C1533     1.0  0.46248  0.79596  0.05175  1.0000
  N   N111      1.0  0.45765  0.80311  0.03116  1.0000
  H   H2658     1.0  0.49232  0.80904  0.01552  1.0000
  H   H2659     1.0  0.44201  0.74855  0.09333  1.0000
  C   C1534     1.0  0.48497  0.96595  0.20376  1.0000
  C   C1535     1.0  0.47575  0.94264  0.16494  1.0000
  C   C1536     1.0  0.45232  0.79957  0.02326  1.0000
  H   H2660     1.0  0.47461  0.80593  0.03066  1.0000
  C   C1537     1.0  0.43288  0.76904  0.04120  1.0000
  H   H2661     1.0  0.47189  0.80770  0.01676  1.0000
  H   H2662     1.0  0.42362  0.77106  0.04122  1.0000
  H   H2663     1.0  0.40547  0.76942  0.99871  1.0000
  C   C1538     1.0  0.48915  0.97386  0.20702  1.0000
  H   H2664     1.0  0.45765  0.74610  0.09151  1.0000
  S   S426      1.0  0.48905  0.91343  0.22467  1.0000
  H   H2665     1.0  0.44614  0.79703  0.04768  1.0000
  Fe  Fe219     1.0  0.47872  0.94194  0.20267  1.0000
  H   H2666     1.0  0.49072  0.95683  0.16599  1.0000
  S   S427      1.0  0.45311  0.75929  0.06516  1.0000
  H   H2667     1.0  0.48564  0.78767  0.02894  1.0000
  S   S428      1.0  0.46854  0.78133  0.00155  1.0000
  C   C1539     1.0  0.44852  0.76316  0.05187  1.0000
  C   C1540     1.0  0.45562  0.79517  0.04321  1.0000
  C   C1541     1.0  0.47158  0.93103  0.16846  1.0000
  H   H2668     1.0  0.47185  0.94719  0.17242  1.0000
  H   H2669     1.0  0.42845  0.74425  0.01623  1.0000
  H   H2670     1.0  0.43619  0.79495  0.03540  1.0000
  C   C1542     1.0  0.45180  0.82496  0.02073  1.0000
  C   C1543     1.0  0.47961  0.96957  0.19418  1.0000
  H   H2671     1.0  0.44749  0.83374  0.02281  1.0000
  H   H2672     1.0  0.44663  0.82344  0.01533  1.0000
  H   H2673     1.0  0.44288  0.81645  0.03765  1.0000
  H   H2674     1.0  0.45614  0.79022  0.02283  1.0000
  N   N112      1.0  0.48890  0.94147  0.16149  1.0000
  C   C1544     1.0  0.43654  0.76577  0.05187  1.0000
  C   C1545     1.0  0.45310  0.76732  0.03059  1.0000
  H   H2675     1.0  0.46608  0.76175  0.04108  1.0000
  S   S429      1.0  0.48311  0.74852  0.07593  1.0000
  H   H2676     1.0  0.47136  0.98879  0.22375  1.0000
  H   H2677     1.0  0.45677  0.81850  0.03732  1.0000
  Fe  Fe220     1.0  0.49338  0.91717  0.20504  1.0000
  H   H2678     1.0  0.48393  0.96092  0.14232  1.0000
  Fe  Fe221     1.0  0.49112  0.93159  0.22277  1.0000
  C   C1546     1.0  0.43887  0.80091  0.02687  1.0000
  C   C1547     1.0  0.48796  0.98552  0.20078  1.0000
  C   C1548     1.0  0.49539  0.79178  0.05521  1.0000
  C   C1549     1.0  0.47827  0.75118  0.01401  1.0000
  H   H2679     1.0  0.47886  0.75789  0.01827  1.0000
  H   H2680     1.0  0.46001  0.78994  0.06034  1.0000
  C   C1550     1.0  0.44119  0.76992  0.03052  1.0000
  S   S430      1.0  0.47242  0.94035  0.22210  1.0000
  C   C1551     1.0  0.46695  0.98793  0.23322  1.0000
  C   C1552     1.0  0.42374  0.74658  0.00900  1.0000
  H   H2681     1.0  0.48604  0.95699  0.20867  1.0000
  C   C1553     1.0  0.47809  0.78971  0.02473  1.0000
  H   H2682     1.0  0.46037  0.80492  0.05343  1.0000
  Fe  Fe222     1.0  0.49513  0.75983  0.06337  1.0000
  C   C1554     1.0  0.48432  0.96335  0.15027  1.0000
  H   H2683     1.0  0.40627  0.75526  0.99672  1.0000
  H   H2684     1.0  0.47421  0.98416  0.18049  1.0000
  H   H2685     1.0  0.49484  0.94513  0.13394  1.0000
  H   H2686     1.0  0.48832  0.97114  0.14729  1.0000
  C   C1555     1.0  0.49368  0.93479  0.17227  1.0000
  H   H2687     1.0  0.46638  0.74432  0.02933  1.0000
  H   H2688     1.0  0.47527  0.96624  0.15539  1.0000
  C   C1556     1.0  0.49175  0.95345  0.15802  1.0000
  C   C1557     1.0  0.47835  0.98130  0.18791  1.0000
  H   H2689     1.0  0.48892  0.93898  0.17987  1.0000
  H   H2690     1.0  0.49163  0.93092  0.13678  1.0000
  H   H2691     1.0  0.49036  0.82354  0.00732  1.0000
  C   C1558     1.0  0.49410  0.80398  0.05092  1.0000
  H   H2692     1.0  0.49505  0.92511  0.15528  1.0000
  S   S431      1.0  0.47092  0.81313  0.99251  1.0000
  Fe  Fe223     1.0  0.39253  0.97704  0.46106  1.0000
  S   S432      1.0  0.40281  0.96127  0.45338  1.0000
  H   H2693     1.0  0.29721  0.95697  0.42411  1.0000
  H   H2694     1.0  0.99763  0.78308  0.47261  1.0000
  C   C1559     1.0  0.48852  0.95440  0.33144  1.0000
  H   H2695     1.0  0.27091  0.98234  0.46801  1.0000
  Fe  Fe224     1.0  0.39199  0.96899  0.43974  1.0000
  S   S433      1.0  0.38494  0.95815  0.43231  1.0000
  Fe  Fe225     1.0  0.41461  0.97311  0.44146  1.0000
  H   H2696     1.0  0.47378  0.92075  0.24472  1.0000
  C   C1560     1.0  0.04525  0.80664  0.48361  1.0000
  Fe  Fe226     1.0  0.33664  0.92533  0.46715  1.0000
  H   H2697     1.0  0.27951  0.92088  0.43836  1.0000
  S   S434      1.0  0.35179  0.92878  0.47193  1.0000
  Fe  Fe227     1.0  0.32576  0.91366  0.45491  1.0000
  C   C1561     1.0  0.13291  0.86446  0.48691  1.0000
  S   S435      1.0  0.32851  0.90319  0.44137  1.0000
  C   C1562     1.0  0.47873  0.93663  0.33025  1.0000
  C   C1563     1.0  0.28787  0.95861  0.42876  1.0000
  S   S436      1.0  0.33186  0.93057  0.44956  1.0000
  Fe  Fe228     1.0  0.47414  0.92717  0.30944  1.0000
  H   H2698     1.0  0.44016  0.92691  0.25573  1.0000
  H   H2699     1.0  0.44338  0.96321  0.31388  1.0000
  S   S437      1.0  0.45920  0.92662  0.30238  1.0000
  H   H2700     1.0  0.21782  0.86546  0.48306  1.0000
  H   H2701     1.0  0.03872  0.75342  0.42700  1.0000
  S   S438      1.0  0.99793  0.77330  0.45148  1.0000
  H   H2702     1.0  0.45546  0.92988  0.26758  1.0000
  H   H2703     1.0  0.47634  0.95470  0.34821  1.0000
  H   H2704     1.0  0.01516  0.84846  0.43628  1.0000
  H   H2705     1.0  0.43869  0.95882  0.26548  1.0000
  H   H2706     1.0  0.49251  0.98070  0.29112  1.0000
  H   H2707     1.0  0.31791  0.95970  0.48327  1.0000
  C   C1564     1.0  0.20178  0.96205  0.48743  1.0000
  S   S439      1.0  0.14855  0.90918  0.47635  1.0000
  Fe  Fe229     1.0  0.07519  0.76589  0.43034  1.0000
  H   H2708     1.0  0.09080  0.78740  0.44993  1.0000
  H   H2709     1.0  0.05890  0.83012  0.41818  1.0000
  S   S440      1.0  0.43442  0.96751  0.43649  1.0000
  H   H2710     1.0  0.43057  0.95984  0.25510  1.0000
  Fe  Fe230     1.0  0.09834  0.82322  0.48005  1.0000
  H   H2711     1.0  0.13922  0.99270  0.46708  1.0000
  S   S441      1.0  0.10325  0.80638  0.47355  1.0000
  H   H2712     1.0  0.26673  0.97962  0.39601  1.0000
  C   C1565     1.0  0.25513  0.90337  0.41221  1.0000
  H   H2713     1.0  0.44056  0.97052  0.34778  1.0000
  S   S442      1.0  0.08633  0.74794  0.42814  1.0000
  C   C1566     1.0  0.47962  0.95061  0.34071  1.0000
  H   H2714     1.0  0.42373  0.93581  0.24547  1.0000
  S   S443      1.0  0.06415  0.85675  0.47563  1.0000
  H   H2715     1.0  0.45628  0.93683  0.24714  1.0000
  S   S444      1.0  0.09755  0.84181  0.46979  1.0000
  Fe  Fe231     1.0  0.26567  0.89767  0.44516  1.0000
  S   S445      1.0  0.26244  0.90105  0.46308  1.0000
  S   S446      1.0  0.28274  0.89627  0.43162  1.0000
  Fe  Fe232     1.0  0.23989  0.89798  0.44775  1.0000
  H   H2716     1.0  0.28285  0.93374  0.40598  1.0000
  S   S447      1.0  0.22837  0.89475  0.43801  1.0000
  Fe  Fe233     1.0  0.24635  0.91416  0.45847  1.0000
  S   S448      1.0  0.24205  0.93148  0.46360  1.0000
  S   S449      1.0  0.25044  0.91180  0.44001  1.0000
  C   C1567     1.0  0.45286  0.96112  0.31390  1.0000
  H   H2717     1.0  0.44851  0.89906  0.25802  1.0000
  C   C1568     1.0  0.49301  0.94880  0.32201  1.0000
  C   C1569     1.0  0.44074  0.96542  0.42204  1.0000
  S   S450      1.0  0.49018  0.95639  0.36581  1.0000
  C   C1570     1.0  0.44035  0.99206  0.38959  1.0000
  C   C1571     1.0  0.45392  0.98042  0.28290  1.0000
  H   H2718     1.0  0.44492  0.92093  0.42033  1.0000
  H   H2719     1.0  0.41648  0.94902  0.27156  1.0000
  S   S451      1.0  0.01123  0.74320  0.47139  1.0000
  H   H2720     1.0  0.26454  0.87358  0.39866  1.0000
  H   H2721     1.0  0.35850  0.97236  0.40844  1.0000
  S   S452      1.0  0.40544  0.98816  0.45051  1.0000
  S   S453      1.0  0.38068  0.98377  0.44826  1.0000
  S   S454      1.0  0.40439  0.97978  0.42735  1.0000
  H   H2722     1.0  0.23898  0.89644  0.48944  1.0000
  C   C1572     1.0  0.46083  0.91023  0.24999  1.0000
  C   C1573     1.0  0.48807  0.94000  0.32138  1.0000
  H   H2723     1.0  0.42358  0.95021  0.24652  1.0000
  H   H2724     1.0  0.07098  0.78172  0.46974  1.0000
  H   H2725     1.0  0.02514  0.76215  0.47640  1.0000
  C   C1574     1.0  0.20963  0.94602  0.47625  1.0000
  H   H2726     1.0  0.02331  0.85566  0.47920  1.0000
  S   S455      1.0  0.05570  0.76769  0.43480  1.0000
  H   H2727     1.0  0.34263  0.97591  0.47109  1.0000
  H   H2728     1.0  0.27965  0.95214  0.47691  1.0000
  S   S456      1.0  0.15166  0.94098  0.47627  1.0000
  S   S457      1.0  0.07950  0.80651  0.43327  1.0000
  H   H2729     1.0  0.22218  0.97118  0.48666  1.0000
  H   H2730     1.0  0.43167  0.94340  0.45154  1.0000
  S   S458      1.0  0.46960  0.90095  0.28611  1.0000
  H   H2731     1.0  0.02182  0.80256  0.48455  1.0000
  S   S459      1.0  0.48138  0.97831  0.37974  1.0000
  H   H2732     1.0  0.24925  0.86631  0.41144  1.0000
  S   S460      1.0  0.25589  0.97253  0.42130  1.0000
  H   H2733     1.0  0.04965  0.83230  0.47361  1.0000
  Fe  Fe234     1.0  0.15278  0.92165  0.48433  1.0000
  H   H2734     1.0  0.03600  0.75441  0.44195  1.0000
  H   H2735     1.0  0.00041  0.80399  0.48702  1.0000
  H   H2736     1.0  0.27756  0.92502  0.41987  1.0000
  C   C1575     1.0  0.43353  0.95399  0.26306  1.0000
  C   C1576     1.0  0.08748  0.81690  0.44583  1.0000
  H   H2737     1.0  0.47430  0.98211  0.31623  1.0000
  H   H2738     1.0  0.11195  0.76854  0.48813  1.0000
  S   S461      1.0  0.04489  0.77266  0.46709  1.0000
  H   H2739     1.0  0.26891  0.95512  0.48969  1.0000
  H   H2740     1.0  0.49149  0.93574  0.31406  1.0000
  C   C1577     1.0  0.34821  0.99292  0.41561  1.0000
  C   C1578     1.0  0.45269  0.96530  0.41722  1.0000
  H   H2741     1.0  0.25449  0.97847  0.48928  1.0000
  C   C1579     1.0  0.02138  0.85222  0.43838  1.0000
  H   H2742     1.0  0.06461  0.83032  0.47498  1.0000
  Fe  Fe235     1.0  0.05520  0.78577  0.42339  1.0000
  H   H2743     1.0  0.40496  0.91421  0.44348  1.0000
  H   H2744     1.0  0.01999  0.74805  0.43733  1.0000
  H   H2745     1.0  0.99666  0.79446  0.42439  1.0000
  C   C1580     1.0  0.44333  0.91800  0.43004  1.0000
  H   H2746     1.0  0.46275  0.94733  0.25980  1.0000
  Fe  Fe236     1.0  0.05596  0.77590  0.44895  1.0000
  C   C1581     1.0  0.35130  0.97092  0.47293  1.0000
  H   H2747     1.0  0.22888  0.87370  0.48065  1.0000
  C   C1582     1.0  0.46956  0.91458  0.25169  1.0000
  H   H2748     1.0  0.42922  0.91530  0.44536  1.0000
  H   H2749     1.0  0.14992  0.97598  0.48961  1.0000
  H   H2750     1.0  0.45777  0.96528  0.30532  1.0000
  H   H2751     1.0  0.41769  0.96241  0.27394  1.0000
  C   C1583     1.0  0.47473  0.94168  0.34013  1.0000
  C   C1584     1.0  0.09125  0.79567  0.45128  1.0000
  C   C1585     1.0  0.19746  0.88481  0.44830  1.0000
  C   C1586     1.0  0.45873  0.96958  0.27969  1.0000
  H   H2752     1.0  0.40589  0.97957  0.47828  1.0000
  C   C1587     1.0  0.03606  0.81777  0.48635  1.0000
  H   H2753     1.0  0.46701  0.96369  0.40199  1.0000
  C   C1588     1.0  0.22545  0.96889  0.47791  1.0000
  C   C1589     1.0  0.20766  0.96652  0.46589  1.0000
  H   H2754     1.0  0.06802  0.75433  0.41489  1.0000
  H   H2755     1.0  0.27636  0.91342  0.47766  1.0000
  C   C1590     1.0  0.12191  0.86347  0.48618  1.0000
  H   H2756     1.0  0.00287  0.81409  0.44766  1.0000
  C   C1591     1.0  0.46985  0.98170  0.30961  1.0000
  S   S462      1.0  0.05351  0.79414  0.43812  1.0000
  Fe  Fe237     1.0  0.25091  0.88815  0.46879  1.0000
  H   H2757     1.0  0.21233  0.90345  0.45834  1.0000
  C   C1592     1.0  0.44653  0.93511  0.27069  1.0000
  C   C1593     1.0  0.24573  0.94286  0.45173  1.0000
  C   C1594     1.0  0.24536  0.94284  0.44034  1.0000
  C   C1595     1.0  0.24874  0.95184  0.43090  1.0000
  C   C1596     1.0  0.25207  0.96106  0.43294  1.0000
  C   C1597     1.0  0.25218  0.96121  0.44436  1.0000
  C   C1598     1.0  0.24920  0.95203  0.45371  1.0000
  H   H2758     1.0  0.24228  0.93604  0.43880  1.0000
  H   H2759     1.0  0.24842  0.95183  0.42209  1.0000
  H   H2760     1.0  0.25484  0.96828  0.44597  1.0000
  H   H2761     1.0  0.24958  0.95203  0.46248  1.0000
  C   C1599     1.0  0.01520  0.77538  0.48695  1.0000
  H   H2762     1.0  0.48687  0.97246  0.26752  1.0000
  Fe  Fe238     1.0  0.10532  0.84437  0.48350  1.0000
  H   H2763     1.0  0.15862  0.96125  0.47711  1.0000
  H   H2764     1.0  0.14074  0.85803  0.48415  1.0000
  C   C1600     1.0  0.04114  0.85653  0.47786  1.0000
  N   N113      1.0  0.45092  0.97734  0.32466  1.0000
  S   S463      1.0  0.31893  0.93390  0.47661  1.0000
  H   H2765     1.0  0.33723  0.98030  0.43531  1.0000
  H   H2766     1.0  0.04180  0.86252  0.46936  1.0000
  C   C1601     1.0  0.21421  0.89299  0.44595  1.0000
  C   C1602     1.0  0.20874  0.88642  0.44228  1.0000
  H   H2767     1.0  0.21326  0.88246  0.43480  1.0000
  H   H2768     1.0  0.19337  0.87958  0.44546  1.0000
  C   C1603     1.0  0.33793  0.97100  0.42260  1.0000
  C   C1604     1.0  0.28431  0.94761  0.43746  1.0000
  C   C1605     1.0  0.45947  0.95144  0.25166  1.0000
  H   H2769     1.0  0.27499  0.93501  0.45746  1.0000
  C   C1606     1.0  0.02854  0.78015  0.42402  1.0000
  N   N114      1.0  0.05795  0.80702  0.48150  1.0000
  H   H2770     1.0  0.48838  0.96289  0.29152  1.0000
  H   H2771     1.0  0.28544  0.92111  0.45615  1.0000
  H   H2772     1.0  0.01422  0.75740  0.48871  1.0000
  C   C1607     1.0  0.02694  0.78819  0.40380  1.0000
  C   C1608     1.0  0.01787  0.78243  0.40566  1.0000
  C   C1609     1.0  0.01391  0.77580  0.41679  1.0000
  C   C1610     1.0  0.22259  0.95719  0.47822  1.0000
  S   S464      1.0  0.25185  0.87370  0.48486  1.0000
  H   H2773     1.0  0.02988  0.79347  0.39524  1.0000
  H   H2774     1.0  0.01376  0.78338  0.39854  1.0000
  H   H2775     1.0  0.45599  0.95145  0.31480  1.0000
  H   H2776     1.0  0.05604  0.78945  0.47031  1.0000
  C   C1611     1.0  0.09652  0.79580  0.46015  1.0000
  C   C1612     1.0  0.09708  0.80648  0.46202  1.0000
  C   C1613     1.0  0.09258  0.81705  0.45481  1.0000
  H   H2777     1.0  0.02213  0.83187  0.45141  1.0000
  H   H2778     1.0  0.99921  0.80157  0.40926  1.0000
  C   C1614     1.0  0.35056  0.95970  0.48270  1.0000
  H   H2779     1.0  0.09305  0.82532  0.45614  1.0000
  C   C1615     1.0  0.31883  0.98401  0.45384  1.0000
  C   C1616     1.0  0.45634  0.98500  0.31353  1.0000
  S   S465      1.0  0.30401  0.95511  0.45060  1.0000
  H   H2780     1.0  0.20625  0.90928  0.47998  1.0000
  C   C1617     1.0  0.45095  0.94508  0.24994  1.0000
  H   H2781     1.0  0.22185  0.97636  0.47133  1.0000
  H   H2782     1.0  0.24541  0.91540  0.49030  1.0000
  S   S466      1.0  0.07481  0.78348  0.41766  1.0000
  H   H2783     1.0  0.27923  0.98044  0.38351  1.0000
  Fe  Fe239     1.0  0.48847  0.97009  0.34936  1.0000
  H   H2784     1.0  0.46471  0.96146  0.32399  1.0000
  H   H2785     1.0  0.21295  0.88888  0.48047  1.0000
  H   H2786     1.0  0.22100  0.89235  0.48848  1.0000
  C   C1618     1.0  0.05901  0.82859  0.47015  1.0000
  H   H2787     1.0  0.11117  0.78336  0.48724  1.0000
  C   C1619     1.0  0.31584  0.90036  0.43945  1.0000
  C   C1620     1.0  0.30558  0.90022  0.44838  1.0000
  C   C1621     1.0  0.29539  0.89868  0.44623  1.0000
  C   C1622     1.0  0.29545  0.89729  0.43514  1.0000
  C   C1623     1.0  0.30579  0.89712  0.42637  1.0000
  C   C1624     1.0  0.31595  0.89858  0.42854  1.0000
  H   H2788     1.0  0.30556  0.90115  0.45697  1.0000
  H   H2789     1.0  0.28753  0.89859  0.45312  1.0000
  H   H2790     1.0  0.30594  0.89597  0.41781  1.0000
  H   H2791     1.0  0.32386  0.89857  0.42165  1.0000
  C   C1625     1.0  0.31050  0.96613  0.45077  1.0000
  C   C1626     1.0  0.30637  0.97781  0.44540  1.0000
  H   H2792     1.0  0.08123  0.74674  0.47722  1.0000
  C   C1627     1.0  0.27843  0.91333  0.48601  1.0000
  C   C1628     1.0  0.32346  0.97227  0.45856  1.0000
  C   C1629     1.0  0.31942  0.96334  0.45689  1.0000
  N   N115      1.0  0.35377  0.98141  0.42275  1.0000
  H   H2793     1.0  0.28202  0.87371  0.41166  1.0000
  H   H2794     1.0  0.33009  0.97006  0.46361  1.0000
  H   H2795     1.0  0.32304  0.95432  0.46059  1.0000
  C   C1630     1.0  0.05083  0.85251  0.48316  1.0000
  C   C1631     1.0  0.05191  0.76825  0.48745  1.0000
  C   C1632     1.0  0.43012  0.91906  0.43576  1.0000
  C   C1633     1.0  0.27646  0.97776  0.39318  1.0000
  H   H2796     1.0  0.28226  0.88275  0.39297  1.0000
  H   H2797     1.0  0.47148  0.97484  0.24910  1.0000
  C   C1634     1.0  0.36260  0.97377  0.41488  1.0000
  H   H2798     1.0  0.29959  0.98000  0.44050  1.0000
  H   H2799     1.0  0.28168  0.99241  0.47573  1.0000
  H   H2800     1.0  0.02858  0.81327  0.46342  1.0000
  H   H2801     1.0  0.29077  0.94396  0.49081  1.0000
  C   C1635     1.0  0.37598  0.94968  0.44325  1.0000
  C   C1636     1.0  0.36869  0.94451  0.44015  1.0000
  C   C1637     1.0  0.36114  0.93814  0.44890  1.0000
  C   C1638     1.0  0.36118  0.93658  0.46073  1.0000
  C   C1639     1.0  0.36885  0.94134  0.46377  1.0000
  C   C1640     1.0  0.37604  0.94811  0.45507  1.0000
  H   H2802     1.0  0.36884  0.94542  0.43102  1.0000
  H   H2803     1.0  0.35547  0.93424  0.44650  1.0000
  H   H2804     1.0  0.36914  0.93987  0.47288  1.0000
  H   H2805     1.0  0.38169  0.95199  0.45753  1.0000
  C   C1641     1.0  0.42681  0.93980  0.43725  1.0000
  N   N116      1.0  0.03792  0.83304  0.43747  1.0000
  S   S467      1.0  0.25551  0.88351  0.45126  1.0000
  H   H2806     1.0  0.47438  0.95836  0.27162  1.0000
  S   S468      1.0  0.47170  0.92663  0.32864  1.0000
  H   H2807     1.0  0.03329  0.82359  0.47832  1.0000
  H   H2808     1.0  0.42306  0.92815  0.41647  1.0000
  H   H2809     1.0  0.28773  0.90829  0.48523  1.0000
  C   C1642     1.0  0.46678  0.90393  0.27203  1.0000
  C   C1643     1.0  0.45833  0.89921  0.27025  1.0000
  C   C1644     1.0  0.45525  0.90248  0.25928  1.0000
  H   H2810     1.0  0.45391  0.89333  0.27745  1.0000
  H   H2811     1.0  0.29941  0.98612  0.40844  1.0000
  S   S469      1.0  0.45043  0.95894  0.28392  1.0000
  S   S470      1.0  0.47642  0.93225  0.27601  1.0000
  H   H2812     1.0  0.41994  0.93599  0.45653  1.0000
  H   H2813     1.0  0.30731  0.94018  0.41652  1.0000
  C   C1645     1.0  0.47771  0.97471  0.27188  1.0000
  H   H2814     1.0  0.42714  0.91296  0.43248  1.0000
  H   H2815     1.0  0.44723  0.97803  0.35367  1.0000
  C   C1646     1.0  0.43438  0.93554  0.25720  1.0000
  H   H2816     1.0  0.44477  0.98255  0.28735  1.0000
  H   H2817     1.0  0.36570  0.96490  0.42017  1.0000
  H   H2818     1.0  0.25674  0.97082  0.47499  1.0000
  H   H2819     1.0  0.25889  0.91119  0.41035  1.0000
  H   H2820     1.0  0.47911  0.91499  0.26391  1.0000
  H   H2821     1.0  0.29564  0.96865  0.48420  1.0000
  H   H2822     1.0  0.40464  0.94285  0.41864  1.0000
  N   N117      1.0  0.21042  0.95796  0.47695  1.0000
  H   H2823     1.0  0.45277  0.98861  0.33488  1.0000
  H   H2824     1.0  0.06783  0.79627  0.46122  1.0000
  C   C1647     1.0  0.43774  0.98083  0.32596  1.0000
  H   H2825     1.0  0.42692  0.93337  0.26448  1.0000
  H   H2826     1.0  0.37967  0.97132  0.40294  1.0000
  C   C1648     1.0  0.27976  0.97768  0.46972  1.0000
  H   H2827     1.0  0.41001  0.92759  0.45001  1.0000
  H   H2828     1.0  0.20103  0.94636  0.47450  1.0000
  H   H2829     1.0  0.44800  0.90862  0.43201  1.0000
  H   H2830     1.0  0.42847  0.98856  0.41378  1.0000
  C   C1649     1.0  0.26447  0.89214  0.41565  1.0000
  H   H2831     1.0  0.35552  0.97673  0.47518  1.0000
  H   H2832     1.0  0.34788  0.96676  0.43595  1.0000
  H   H2833     1.0  0.44794  0.94079  0.27567  1.0000
  C   C1650     1.0  0.34429  0.97482  0.42975  1.0000
  S   S471      1.0  0.12134  0.85211  0.48002  1.0000
  C   C1651     1.0  0.44904  0.97251  0.34718  1.0000
  S   S472      1.0  0.49411  0.96614  0.33144  1.0000
  H   H2834     1.0  0.21003  0.92795  0.48570  1.0000
  Fe  Fe240     1.0  0.16616  0.89776  0.47881  1.0000
  S   S473      1.0  0.17107  0.91096  0.48499  1.0000
  N   N118      1.0  0.26330  0.88102  0.41335  1.0000
  C   C1652     1.0  0.03572  0.82754  0.42882  1.0000
  C   C1653     1.0  0.02280  0.82849  0.42885  1.0000
  H   H2835     1.0  0.05422  0.81988  0.43892  1.0000
  H   H2836     1.0  0.04037  0.81812  0.42971  1.0000
  H   H2837     1.0  0.01937  0.83667  0.42279  1.0000
  H   H2838     1.0  0.01687  0.82803  0.43764  1.0000
  H   H2839     1.0  0.02228  0.82083  0.42587  1.0000
  C   C1654     1.0  0.40402  0.92299  0.43740  1.0000
  H   H2840     1.0  0.25588  0.85897  0.42400  1.0000
  H   H2841     1.0  0.06136  0.83361  0.46099  1.0000
  C   C1655     1.0  0.06497  0.75768  0.47280  1.0000
  H   H2842     1.0  0.27556  0.87468  0.43261  1.0000
  H   H2843     1.0  0.08403  0.82510  0.44028  1.0000
  H   H2844     1.0  0.24715  0.90416  0.41943  1.0000
  C   C1656     1.0  0.42295  0.93540  0.42046  1.0000
  H   H2845     1.0  0.21415  0.97215  0.44709  1.0000
  C   C1657     1.0  0.08665  0.80623  0.44414  1.0000
  H   H2846     1.0  0.26370  0.89117  0.42518  1.0000
  H   H2847     1.0  0.35696  0.96841  0.46467  1.0000
  H   H2848     1.0  0.21633  0.94303  0.46867  1.0000
  H   H2849     1.0  0.25068  0.87857  0.43003  1.0000
  H   H2850     1.0  0.24061  0.86586  0.42606  1.0000
  H   H2851     1.0  0.25240  0.90383  0.40414  1.0000
  C   C1658     1.0  0.03390  0.81524  0.45434  1.0000
  H   H2852     1.0  0.26616  0.86455  0.43536  1.0000
  H   H2853     1.0  0.24427  0.88543  0.41781  1.0000
  H   H2854     1.0  0.28654  0.96546  0.43374  1.0000
  C   C1659     1.0  0.41014  0.93091  0.44048  1.0000
  H   H2855     1.0  0.20584  0.97573  0.46678  1.0000
  H   H2856     1.0  0.19937  0.96577  0.46427  1.0000
  Fe  Fe241     1.0  0.31447  0.91655  0.47970  1.0000
  H   H2857     1.0  0.42510  0.94892  0.28167  1.0000
  H   H2858     1.0  0.07482  0.79455  0.47958  1.0000
  H   H2859     1.0  0.07132  0.81297  0.46683  1.0000
  H   H2860     1.0  0.40434  0.93988  0.44006  1.0000
  C   C1660     1.0  0.06165  0.81543  0.47010  1.0000
  N   N119      1.0  0.00855  0.78731  0.48169  1.0000
  C   C1661     1.0  0.14541  0.95112  0.48545  1.0000
  H   H2861     1.0  0.36674  0.98774  0.42721  1.0000
  C   C1662     1.0  0.01581  0.79276  0.47023  1.0000
  H   H2862     1.0  0.34366  0.96359  0.41857  1.0000
  H   H2863     1.0  0.47259  0.98817  0.30149  1.0000
  H   H2864     1.0  0.44875  0.98561  0.39078  1.0000
  C   C1663     1.0  0.01773  0.78756  0.45944  1.0000
  N   N120      1.0  0.44111  0.94244  0.26040  1.0000
  C   C1664     1.0  0.28182  0.98344  0.39963  1.0000
  H   H2865     1.0  0.04387  0.77442  0.49028  1.0000
  Fe  Fe242     1.0  0.47323  0.91638  0.29013  1.0000
  H   H2866     1.0  0.01180  0.80231  0.46767  1.0000
  H   H2867     1.0  0.02478  0.79214  0.47122  1.0000
  H   H2868     1.0  0.03917  0.82284  0.49057  1.0000
  H   H2869     1.0  0.25945  0.95574  0.47476  1.0000
  H   H2870     1.0  0.44743  0.92294  0.43357  1.0000
  S   S474      1.0  0.00138  0.77016  0.41953  1.0000
  C   C1665     1.0  0.28604  0.98737  0.46880  1.0000
  H   H2871     1.0  0.27844  0.98027  0.40921  1.0000
  H   H2872     1.0  0.46349  0.99095  0.25546  1.0000
  H   H2873     1.0  0.02181  0.77807  0.46085  1.0000
  H   H2874     1.0  0.02395  0.79188  0.45204  1.0000
  H   H2875     1.0  0.00957  0.78936  0.45635  1.0000
  H   H2876     1.0  0.43336  0.97399  0.33236  1.0000
  H   H2877     1.0  0.00995  0.76662  0.47583  1.0000
  H   H2878     1.0  0.49315  0.99050  0.30535  1.0000
  H   H2879     1.0  0.01920  0.85181  0.44799  1.0000
  H   H2880     1.0  0.06683  0.75538  0.46439  1.0000
  C   C1666     1.0  0.03226  0.78706  0.41300  1.0000
  C   C1667     1.0  0.27302  0.95937  0.48068  1.0000
  H   H2881     1.0  0.05297  0.83267  0.44394  1.0000
  C   C1668     1.0  0.05098  0.82960  0.43704  1.0000
  C   C1669     1.0  0.01944  0.77447  0.42586  1.0000
  S   S475      1.0  0.30738  0.92138  0.46346  1.0000
  C   C1670     1.0  0.47061  0.96675  0.27413  1.0000
  H   H2882     1.0  0.03973  0.83154  0.41967  1.0000
  H   H2883     1.0  0.30000  0.92672  0.44178  1.0000
  H   H2884     1.0  0.45272  0.98514  0.30603  1.0000
  C   C1671     1.0  0.42260  0.95333  0.27315  1.0000
  H   H2885     1.0  0.29956  0.92083  0.43049  1.0000
  C   C1672     1.0  0.05444  0.76548  0.47650  1.0000
  C   C1673     1.0  0.29845  0.92936  0.43275  1.0000
  C   C1674     1.0  0.45101  0.96194  0.39902  1.0000
  S   S476      1.0  0.48795  0.91542  0.29843  1.0000
  H   H2886     1.0  0.29323  0.92403  0.41418  1.0000
  N   N121      1.0  0.28622  0.93683  0.43268  1.0000
  C   C1675     1.0  0.45780  0.96372  0.40567  1.0000
  C   C1676     1.0  0.19142  0.89000  0.45789  1.0000
  H   H2887     1.0  0.06821  0.83167  0.42632  1.0000
  H   H2888     1.0  0.28212  0.96236  0.42238  1.0000
  C   C1677     1.0  0.45448  0.97911  0.33485  1.0000
  H   H2889     1.0  0.39450  0.92717  0.43820  1.0000
  C   C1678     1.0  0.03179  0.82869  0.44997  1.0000
  H   H2890     1.0  0.25754  0.92105  0.48065  1.0000
  S   S477      1.0  0.23442  0.90156  0.46583  1.0000
  N   N122      1.0  0.13890  0.88661  0.45305  1.0000
  C   C1679     1.0  0.12887  0.88608  0.44830  1.0000
  C   C1680     1.0  0.13334  0.89164  0.46390  1.0000
  C   C1681     1.0  0.14576  0.87416  0.45643  1.0000
  C   C1682     1.0  0.14649  0.89402  0.44362  1.0000
  C   C1683     1.0  0.13226  0.87996  0.43787  1.0000
  C   C1684     1.0  0.12634  0.90453  0.46187  1.0000
  C   C1685     1.0  0.15627  0.87235  0.46194  1.0000
  C   C1686     1.0  0.15496  0.89879  0.44756  1.0000
  H   H2891     1.0  0.12254  0.88145  0.45535  1.0000
  H   H2892     1.0  0.12371  0.89506  0.44526  1.0000
  H   H2893     1.0  0.13977  0.89111  0.46898  1.0000
  H   H2894     1.0  0.12715  0.88634  0.47012  1.0000
  H   H2895     1.0  0.13978  0.86857  0.46260  1.0000
  H   H2896     1.0  0.14961  0.87015  0.44862  1.0000
  H   H2897     1.0  0.15197  0.88900  0.43680  1.0000
  H   H2898     1.0  0.14089  0.90180  0.43886  1.0000
  H   H2899     1.0  0.12434  0.88149  0.43434  1.0000
  H   H2900     1.0  0.13905  0.88346  0.43056  1.0000
  H   H2901     1.0  0.13517  0.87027  0.44071  1.0000
  H   H2902     1.0  0.12354  0.90738  0.47038  1.0000
  H   H2903     1.0  0.13169  0.91058  0.45559  1.0000
  H   H2904     1.0  0.11817  0.90554  0.45898  1.0000
  H   H2905     1.0  0.15394  0.87590  0.46996  1.0000
  H   H2906     1.0  0.16356  0.87594  0.45548  1.0000
  H   H2907     1.0  0.15985  0.86276  0.46468  1.0000
  H   H2908     1.0  0.16414  0.89600  0.44266  1.0000
  H   H2909     1.0  0.15510  0.89587  0.45696  1.0000
  H   H2910     1.0  0.15277  0.90856  0.44543  1.0000
  H   H2911     1.0  0.27229  0.89710  0.39186  1.0000
  H   H2912     1.0  0.43135  0.93816  0.41570  1.0000
  C   C1687     1.0  0.03067  0.85265  0.48342  1.0000
  H   H2913     1.0  0.37865  0.98008  0.41279  1.0000
  C   C1688     1.0  0.47251  0.91143  0.26267  1.0000
  H   H2914     1.0  0.41528  0.94946  0.40730  1.0000
  H   H2915     1.0  0.29143  0.97953  0.39779  1.0000
  H   H2916     1.0  0.41127  0.95297  0.42148  1.0000
  H   H2917     1.0  0.04348  0.80495  0.47584  1.0000
  C   C1689     1.0  0.07122  0.74488  0.41654  1.0000
  C   C1690     1.0  0.26353  0.88230  0.40058  1.0000
  H   H2918     1.0  0.10009  0.78759  0.46561  1.0000
  H   H2919     1.0  0.03252  0.77933  0.43118  1.0000
  C   C1691     1.0  0.26378  0.96312  0.47306  1.0000
  Fe  Fe243     1.0  0.07318  0.79066  0.43342  1.0000
  S   S478      1.0  0.47058  0.97950  0.35721  1.0000
  H   H2920     1.0  0.40741  0.92166  0.42829  1.0000
  H   H2921     1.0  0.46417  0.97608  0.33394  1.0000
  C   C1692     1.0  0.27340  0.88778  0.39163  1.0000
  H   H2922     1.0  0.28440  0.97332  0.46221  1.0000
  S   S479      1.0  0.38235  0.97680  0.47986  1.0000
  C   C1693     1.0  0.41293  0.94578  0.41690  1.0000
  C   C1694     1.0  0.27407  0.86755  0.42957  1.0000
  H   H2923     1.0  0.25499  0.88753  0.39836  1.0000
  C   C1695     1.0  0.37361  0.97829  0.40745  1.0000
  H   H2924     1.0  0.99833  0.81234  0.42960  1.0000
  H   H2925     1.0  0.47304  0.97293  0.30736  1.0000
  S   S480      1.0  0.07553  0.77291  0.44554  1.0000
  S   S481      1.0  0.47736  0.94386  0.29684  1.0000
  C   C1696     1.0  0.27353  0.87123  0.41649  1.0000
  N   N123      1.0  0.42248  0.93127  0.43349  1.0000
  C   C1697     1.0  0.24942  0.86666  0.42040  1.0000
  H   H2926     1.0  0.28172  0.86004  0.43073  1.0000
  S   S482      1.0  0.00024  0.85631  0.47468  1.0000
  H   H2927     1.0  0.03432  0.83233  0.45612  1.0000
  H   H2928     1.0  0.27484  0.95067  0.44134  1.0000
  C   C1698     1.0  0.44000  0.92603  0.27973  1.0000
  S   S483      1.0  0.23400  0.98843  0.44516  1.0000
  S   S484      1.0  0.33252  0.90751  0.47151  1.0000
  H   H2929     1.0  0.43540  0.94132  0.43147  1.0000
  H   H2930     1.0  0.27341  0.89390  0.41162  1.0000
  H   H2931     1.0  0.27377  0.86318  0.41368  1.0000
  H   H2932     1.0  0.33450  0.97841  0.41582  1.0000
  C   C1699     1.0  0.40045  0.98075  0.48680  1.0000
  C   C1700     1.0  0.27838  0.92606  0.48602  1.0000
  C   C1701     1.0  0.45513  0.96452  0.32423  1.0000
  S   S485      1.0  0.04334  0.79453  0.41072  1.0000
  Fe  Fe244     1.0  0.48991  0.93226  0.28523  1.0000
  C   C1702     1.0  0.21711  0.96522  0.45449  1.0000
  H   H2933     1.0  0.24706  0.92976  0.48997  1.0000
  H   H2934     1.0  0.28948  0.94576  0.41423  1.0000
  H   H2935     1.0  0.31660  0.92764  0.42311  1.0000
  H   H2936     1.0  0.43073  0.92986  0.28344  1.0000
  H   H2937     1.0  0.44454  0.92209  0.28715  1.0000
  H   H2938     1.0  0.44033  0.91865  0.27586  1.0000
  C   C1703     1.0  0.43397  0.96384  0.41528  1.0000
  H   H2939     1.0  0.42479  0.96400  0.41884  1.0000
  H   H2940     1.0  0.03093  0.81112  0.44896  1.0000
  H   H2941     1.0  0.43381  0.96065  0.39875  1.0000
  C   C1704     1.0  0.11183  0.87177  0.48989  1.0000
  H   H2942     1.0  0.12692  0.99165  0.46216  1.0000
  C   C1705     1.0  0.43911  0.96192  0.40390  1.0000
  H   H2943     1.0  0.45091  0.95897  0.33241  1.0000
  H   H2944     1.0  0.45518  0.96408  0.34997  1.0000
  H   H2945     1.0  0.22561  0.96647  0.45493  1.0000
  H   H2946     1.0  0.28885  0.94545  0.44480  1.0000
  C   C1706     1.0  0.30882  0.93484  0.42516  1.0000
  H   H2947     1.0  0.01687  0.76894  0.43429  1.0000
  C   C1707     1.0  0.06491  0.79051  0.46977  1.0000
  H   H2948     1.0  0.26799  0.96491  0.46355  1.0000
  Fe  Fe245     1.0  0.31389  0.93781  0.45933  1.0000
  S   S486      1.0  0.17732  0.88752  0.46516  1.0000
  C   C1708     1.0  0.20825  0.89815  0.45561  1.0000
  H   H2949     1.0  0.31112  0.94012  0.42996  1.0000
  H   H2950     1.0  0.43497  0.92811  0.45182  1.0000
  H   H2951     1.0  0.04320  0.81109  0.45467  1.0000
  H   H2952     1.0  0.37137  0.98607  0.40043  1.0000
  H   H2953     1.0  0.33024  0.96770  0.42867  1.0000
  H   H2954     1.0  0.46761  0.93895  0.34712  1.0000
  C   C1709     1.0  0.06538  0.79490  0.48036  1.0000
  H   H2955     1.0  0.01982  0.86171  0.43403  1.0000
  C   C1710     1.0  0.27763  0.92959  0.44065  1.0000
  C   C1711     1.0  0.27717  0.92697  0.45394  1.0000
  C   C1712     1.0  0.28441  0.93006  0.41500  1.0000
  H   H2956     1.0  0.26856  0.93399  0.43948  1.0000
  Fe  Fe246     1.0  0.46359  0.94236  0.28886  1.0000
  C   C1713     1.0  0.42836  0.93643  0.45003  1.0000
  H   H2957     1.0  0.23513  0.96802  0.47522  1.0000
  H   H2958     1.0  0.42072  0.94861  0.43618  1.0000
  Fe  Fe247     1.0  0.47305  0.96702  0.37425  1.0000
  C   C1714     1.0  0.25172  0.87840  0.42067  1.0000
  H   H2959     1.0  0.27454  0.94597  0.42089  1.0000
  C   C1715     1.0  0.19678  0.89677  0.46150  1.0000
  H   H2960     1.0  0.03950  0.85036  0.43760  1.0000
  H   H2961     1.0  0.05774  0.81479  0.46313  1.0000
  H   H2962     1.0  0.21849  0.95662  0.45224  1.0000
  H   H2963     1.0  0.05681  0.84392  0.42244  1.0000
  C   C1716     1.0  0.03440  0.84632  0.43411  1.0000
  H   H2964     1.0  0.27000  0.92235  0.45871  1.0000
  H   H2965     1.0  0.36388  0.97433  0.43618  1.0000
  Fe  Fe248     1.0  0.08015  0.84572  0.48251  1.0000
  H   H2966     1.0  0.19214  0.90087  0.46884  1.0000
  H   H2967     1.0  0.45800  0.96651  0.42240  1.0000
  C   C1717     1.0  0.05898  0.83421  0.42525  1.0000
  S   S487      1.0  0.45689  0.96014  0.38448  1.0000
  H   H2968     1.0  0.27303  0.88768  0.38263  1.0000
  C   C1718     1.0  0.07309  0.75278  0.48004  1.0000
  H   H2969     1.0  0.43539  0.98142  0.31756  1.0000
  H   H2970     1.0  0.29544  0.98380  0.46906  1.0000
  C   C1719     1.0  0.31069  0.98676  0.44680  1.0000
  C   C1720     1.0  0.28359  0.94030  0.42061  1.0000
  H   H2971     1.0  0.03661  0.84944  0.42438  1.0000
  H   H2972     1.0  0.22947  0.95273  0.47171  1.0000
  C   C1721     1.0  0.42927  0.94134  0.24615  1.0000
  C   C1722     1.0  0.01612  0.76499  0.48153  1.0000
  N   N124      1.0  0.27892  0.96861  0.48112  1.0000
  C   C1723     1.0  0.03800  0.74814  0.43615  1.0000
  C   C1724     1.0  0.27994  0.88722  0.49061  1.0000
  H   H2973     1.0  0.45535  0.96085  0.25163  1.0000
  H   H2974     1.0  0.29680  0.95969  0.47447  1.0000
  H   H2975     1.0  0.09190  0.78537  0.48868  1.0000
  H   H2976     1.0  0.27952  0.96806  0.39561  1.0000
  H   H2977     1.0  0.13113  0.77463  0.48034  1.0000
  H   H2978     1.0  0.26975  0.93216  0.48525  1.0000
  H   H2979     1.0  0.28492  0.92936  0.47829  1.0000
  C   C1725     1.0  0.20368  0.90339  0.48861  1.0000
  C   C1726     1.0  0.35128  0.98944  0.44103  1.0000
  H   H2980     1.0  0.13258  0.98040  0.47335  1.0000
  C   C1727     1.0  0.47301  0.98541  0.27541  1.0000
  H   H2981     1.0  0.20070  0.87927  0.48117  1.0000
  H   H2982     1.0  0.01061  0.80728  0.41882  1.0000
  H   H2983     1.0  0.04309  0.79901  0.49078  1.0000
  H   H2984     1.0  0.06290  0.78811  0.48830  1.0000
  Fe  Fe249     1.0  0.99696  0.75541  0.46274  1.0000
  H   H2985     1.0  0.22081  0.93384  0.48798  1.0000
  H   H2986     1.0  0.30448  0.98256  0.48633  1.0000
  H   H2987     1.0  0.22415  0.95139  0.48678  1.0000
  H   H2988     1.0  0.34635  0.98337  0.44792  1.0000
  H   H2989     1.0  0.34946  0.95304  0.47870  1.0000
  H   H2990     1.0  0.26437  0.89938  0.48617  1.0000
  H   H2991     1.0  0.10332  0.87115  0.48931  1.0000
  C   C1728     1.0  0.21215  0.89119  0.48890  1.0000
  H   H2992     1.0  0.28636  0.89073  0.48286  1.0000
  C   C1729     1.0  0.35957  0.98302  0.43147  1.0000
  H   H2993     1.0  0.44746  0.95077  0.24220  1.0000
  Fe  Fe250     1.0  0.48008  0.99005  0.36203  1.0000
  C   C1730     1.0  0.22418  0.86710  0.48699  1.0000
  H   H2994     1.0  0.19449  0.90298  0.48955  1.0000
  H   H2995     1.0  0.26161  0.99092  0.48416  1.0000
  C   C1731     1.0  0.26075  0.98263  0.49070  1.0000
  C   C1732     1.0  0.15063  0.96054  0.48377  1.0000
  H   H2996     1.0  0.43861  0.98497  0.37577  1.0000
  H   H2997     1.0  0.23097  0.85878  0.48824  1.0000
  H   H2998     1.0  0.27743  0.88016  0.48832  1.0000
  H   H2999     1.0  0.33220  0.95095  0.48095  1.0000
  H   H3000     1.0  0.43347  0.98745  0.39537  1.0000
  H   H3001     1.0  0.02437  0.77561  0.48657  1.0000
  C   C1733     1.0  0.21159  0.93601  0.48701  1.0000
  C   C1734     1.0  0.25186  0.92057  0.48956  1.0000
  C   C1735     1.0  0.29127  0.96256  0.48263  1.0000
  C   C1736     1.0  0.13066  0.99006  0.46988  1.0000
  C   C1737     1.0  0.38867  0.98003  0.48966  1.0000
  H   H3002     1.0  0.18549  0.96917  0.48075  1.0000
  Fe  Fe251     1.0  0.24706  0.98904  0.42800  1.0000
  H   H3003     1.0  0.35944  0.95628  0.48478  1.0000
  C   C1738     1.0  0.00602  0.79524  0.49015  1.0000
  C   C1739     1.0  0.32534  0.95511  0.48765  1.0000
  C   C1740     1.0  0.27269  0.97421  0.49152  1.0000
  H   H3004     1.0  0.32722  0.97280  0.48547  1.0000
  H   H3005     1.0  0.11562  0.99083  0.48439  1.0000
  H   H3006     1.0  0.46731  0.95108  0.24425  1.0000
  H   H3007     1.0  0.20223  0.97105  0.48751  1.0000
  H   H3008     1.0  0.18720  0.95396  0.48880  1.0000
  H   H3009     1.0  0.99989  0.82004  0.41431  1.0000
  C   C1741     1.0  0.19556  0.87560  0.48976  1.0000
  H   H3010     1.0  0.18625  0.87900  0.48897  1.0000
  C   C1742     1.0  0.18877  0.96265  0.48821  1.0000
  C   C1743     1.0  0.00101  0.81131  0.42040  1.0000
  S   S488      1.0  0.99730  0.83411  0.45804  1.0000
  C   C1744     1.0  0.46112  0.98824  0.28093  1.0000
  H   H3011     1.0  0.48190  0.99030  0.24961  1.0000
  C   C1745     1.0  0.07057  0.75563  0.49101  1.0000
  C   C1746     1.0  0.12765  0.77217  0.48997  1.0000
  C   C1747     1.0  0.99681  0.78710  0.47999  1.0000
  C   C1748     1.0  0.14565  0.96894  0.49078  1.0000
  H   H3012     1.0  0.02634  0.74340  0.41854  1.0000
  C   C1749     1.0  0.13388  0.87377  0.49108  1.0000
  H   H3013     1.0  0.35645  0.99228  0.44546  1.0000
  H   H3014     1.0  0.34668  0.99154  0.40753  1.0000
  C   C1750     1.0  0.43159  0.99273  0.32948  1.0000
  H   H3015     1.0  0.07026  0.80840  0.49062  1.0000
  H   H3016     1.0  0.43220  0.99263  0.33844  1.0000
  H   H3017     1.0  0.49591  0.97083  0.30409  1.0000
  H   H3018     1.0  0.14240  0.87447  0.49154  1.0000
  H   H3019     1.0  0.19766  0.86587  0.49107  1.0000
  N   N125      1.0  0.10784  0.77290  0.50515  1.0000
  S   S489      1.0  0.39978  0.96496  0.54878  1.0000
  H   H3020     1.0  0.48689  0.97295  0.55566  1.0000
  H   H3021     1.0  0.12120  0.75778  0.51095  1.0000
  S   S490      1.0  0.38049  0.97716  0.56937  1.0000
  C   C1751     1.0  0.99670  0.74623  0.49258  1.0000
  Fe  Fe252     1.0  0.39992  0.97531  0.56156  1.0000
  S   S491      1.0  0.41380  0.96839  0.57274  1.0000
  Fe  Fe253     1.0  0.38015  0.96836  0.55554  1.0000
  S   S492      1.0  0.37008  0.95420  0.55906  1.0000
  C   C1752     1.0  0.05539  0.80334  0.50400  1.0000
  H   H3022     1.0  0.29677  0.99242  0.57743  1.0000
  S   S493      1.0  0.47536  0.96605  0.71930  1.0000
  H   H3023     1.0  0.00708  0.80194  0.55668  1.0000
  S   S494      1.0  0.44657  0.95664  0.64370  1.0000
  C   C1753     1.0  0.08888  0.79100  0.54235  1.0000
  C   C1754     1.0  0.99676  0.80802  0.54304  1.0000
  H   H3024     1.0  0.02240  0.75153  0.54160  1.0000
  Fe  Fe254     1.0  0.46585  0.95360  0.71763  1.0000
  C   C1755     1.0  0.09022  0.80259  0.53789  1.0000
  H   H3025     1.0  0.30146  0.94923  0.49416  1.0000
  C   C1756     1.0  0.27151  0.91574  0.54087  1.0000
  H   H3026     1.0  0.39812  0.93609  0.53034  1.0000
  H   H3027     1.0  0.44758  0.94265  0.68538  1.0000
  C   C1757     1.0  0.31322  0.90157  0.51740  1.0000
  C   C1758     1.0  0.12983  0.95891  0.50075  1.0000
  Fe  Fe255     1.0  0.30909  0.96003  0.54578  1.0000
  S   S495      1.0  0.31553  0.95366  0.52899  1.0000
  S   S496      1.0  0.31880  0.97178  0.54890  1.0000
  Fe  Fe256     1.0  0.28670  0.95067  0.55233  1.0000
  S   S497      1.0  0.29132  0.94397  0.53591  1.0000
  S   S498      1.0  0.27069  0.94751  0.56647  1.0000
  Fe  Fe257     1.0  0.30932  0.93746  0.53968  1.0000
  S   S499      1.0  0.31870  0.91896  0.53850  1.0000
  Fe  Fe258     1.0  0.29694  0.96081  0.52696  1.0000
  S   S500      1.0  0.29383  0.97059  0.50913  1.0000
  S   S501      1.0  0.30446  0.94309  0.55679  1.0000
  S   S502      1.0  0.29069  0.96829  0.54311  1.0000
  Fe  Fe259     1.0  0.44770  0.95062  0.70656  1.0000
  H   H3028     1.0  0.01404  0.82742  0.52505  1.0000
  H   H3029     1.0  0.46768  0.97020  0.56528  1.0000
  H   H3030     1.0  0.20592  0.97453  0.50846  1.0000
  H   H3031     1.0  0.28103  0.92014  0.57053  1.0000
  H   H3032     1.0  0.39292  0.93583  0.51361  1.0000
  C   C1759     1.0  0.43736  0.96040  0.68174  1.0000
  H   H3033     1.0  0.26232  0.92034  0.56761  1.0000
  C   C1760     1.0  0.38106  0.92382  0.53573  1.0000
  C   C1761     1.0  0.37451  0.93681  0.53496  1.0000
  Fe  Fe260     1.0  0.22650  0.93342  0.54056  1.0000
  S   S503      1.0  0.24320  0.92518  0.52940  1.0000
  S   S504      1.0  0.22545  0.93883  0.55711  1.0000
  Fe  Fe261     1.0  0.21132  0.93362  0.52434  1.0000
  S   S505      1.0  0.22671  0.92572  0.51165  1.0000
  S   S506      1.0  0.19387  0.93910  0.51923  1.0000
  Fe  Fe262     1.0  0.23236  0.91373  0.52779  1.0000
  S   S507      1.0  0.23936  0.89419  0.53017  1.0000
  Fe  Fe263     1.0  0.23598  0.93777  0.51440  1.0000
  H   H3034     1.0  0.20319  0.98609  0.52259  1.0000
  S   S508      1.0  0.21616  0.92082  0.54041  1.0000
  S   S509      1.0  0.22012  0.94687  0.52563  1.0000
  H   H3035     1.0  0.08993  0.77627  0.51528  1.0000
  S   S510      1.0  0.30514  0.90767  0.49718  1.0000
  S   S511      1.0  0.17176  0.89848  0.51800  1.0000
  H   H3036     1.0  0.02955  0.74794  0.51966  1.0000
  H   H3037     1.0  0.17358  0.98776  0.55345  1.0000
  C   C1762     1.0  0.36099  0.96052  0.52479  1.0000
  H   H3038     1.0  0.25273  0.91050  0.50692  1.0000
  C   C1763     1.0  0.99870  0.77397  0.54701  1.0000
  H   H3039     1.0  0.14981  0.94018  0.55327  1.0000
  H   H3040     1.0  0.43920  0.97264  0.59571  1.0000
  H   H3041     1.0  0.38031  0.93419  0.50394  1.0000
  Fe  Fe264     1.0  0.06968  0.76429  0.53723  1.0000
  H   H3042     1.0  0.20070  0.89336  0.51140  1.0000
  C   C1764     1.0  0.27013  0.90406  0.56082  1.0000
  C   C1765     1.0  0.02290  0.80986  0.53206  1.0000
  S   S512      1.0  0.46678  0.95076  0.70001  1.0000
  C   C1766     1.0  0.11717  0.85849  0.52045  1.0000
  H   H3043     1.0  0.29365  0.90291  0.53720  1.0000
  H   H3044     1.0  0.15509  0.92512  0.55139  1.0000
  H   H3045     1.0  0.49432  0.96314  0.73105  1.0000
  H   H3046     1.0  0.25169  0.96371  0.57970  1.0000
  H   H3047     1.0  0.10639  0.76104  0.52968  1.0000
  C   C1767     1.0  0.11633  0.82687  0.52122  1.0000
  Fe  Fe265     1.0  0.00193  0.84485  0.49238  1.0000
  H   H3048     1.0  0.23315  0.90411  0.50748  1.0000
  H   H3049     1.0  0.45366  0.97570  0.71112  1.0000
  H   H3050     1.0  0.17357  0.97245  0.55532  1.0000
  H   H3051     1.0  0.33733  0.98053  0.51213  1.0000
  H   H3052     1.0  0.42386  0.97215  0.63921  1.0000
  H   H3053     1.0  0.15594  0.96401  0.51293  1.0000
  H   H3054     1.0  0.14102  0.92907  0.54126  1.0000
  C   C1768     1.0  0.39182  0.94468  0.53093  1.0000
  H   H3055     1.0  0.22614  0.87125  0.50210  1.0000
  H   H3056     1.0  0.05798  0.76578  0.50298  1.0000
  N   N126      1.0  0.11127  0.84822  0.52449  1.0000
  S   S513      1.0  0.12908  0.97824  0.50849  1.0000
  C   C1769     1.0  0.09795  0.83823  0.54335  1.0000
  S   S514      1.0  0.05147  0.75106  0.52509  1.0000
  Fe  Fe266     1.0  0.08975  0.83061  0.50352  1.0000
  C   C1770     1.0  0.48270  0.98726  0.65438  1.0000
  H   H3057     1.0  0.02178  0.75830  0.50945  1.0000
  C   C1771     1.0  0.47977  0.98724  0.68298  1.0000
  S   S515      1.0  0.08054  0.82695  0.49189  1.0000
  H   H3058     1.0  0.43329  0.94173  0.61780  1.0000
  H   H3059     1.0  0.28361  0.89351  0.54318  1.0000
  H   H3060     1.0  0.17899  0.97608  0.53261  1.0000
  C   C1772     1.0  0.08236  0.78643  0.53762  1.0000
  H   H3061     1.0  0.19356  0.96258  0.55481  1.0000
  Fe  Fe267     1.0  0.44542  0.99120  0.60900  1.0000
  H   H3062     1.0  0.45198  0.94037  0.66477  1.0000
  N   N127      1.0  0.27051  0.90727  0.49649  1.0000
  C   C1773     1.0  0.42653  0.95012  0.61741  1.0000
  C   C1774     1.0  0.25089  0.97868  0.55823  1.0000
  H   H3063     1.0  0.12615  0.83408  0.52847  1.0000
  H   H3064     1.0  0.38878  0.92167  0.53972  1.0000
  S   S516      1.0  0.24563  0.95003  0.50044  1.0000
  C   C1775     1.0  0.09204  0.86187  0.51913  1.0000
  H   H3065     1.0  0.00870  0.76893  0.56040  1.0000
  S   S517      1.0  0.08125  0.77169  0.54342  1.0000
  H   H3066     1.0  0.34018  0.97972  0.49178  1.0000
  C   C1776     1.0  0.01932  0.77924  0.53130  1.0000
  C   C1777     1.0  0.48404  0.97436  0.57804  1.0000
  H   H3067     1.0  0.04568  0.80635  0.50640  1.0000
  C   C1778     1.0  0.13524  0.96814  0.49927  1.0000
  S   S518      1.0  0.47036  0.93463  0.72629  1.0000
  C   C1779     1.0  0.30531  0.98649  0.49291  1.0000
  H   H3068     1.0  0.02643  0.80835  0.52299  1.0000
  N   N128      1.0  0.25233  0.98714  0.56442  1.0000
  C   C1780     1.0  0.16044  0.93825  0.53552  1.0000
  H   H3069     1.0  0.13132  0.86527  0.52174  1.0000
  H   H3070     1.0  0.26665  0.90994  0.53943  1.0000
  Fe  Fe268     1.0  0.05627  0.74516  0.54251  1.0000
  H   H3071     1.0  0.37257  0.98122  0.50292  1.0000
  H   H3072     1.0  0.43309  0.97599  0.65466  1.0000
  H   H3073     1.0  0.31374  0.89256  0.51731  1.0000
  N   N129      1.0  0.00067  0.81724  0.53247  1.0000
  H   H3074     1.0  0.13906  0.93355  0.51569  1.0000
  Fe  Fe269     1.0  0.45028  0.97332  0.63123  1.0000
  H   H3075     1.0  0.09777  0.84355  0.51922  1.0000
  H   H3076     1.0  0.07204  0.79018  0.52469  1.0000
  S   S519      1.0  0.12474  0.89414  0.49965  1.0000
  H   H3077     1.0  0.26139  0.90262  0.52208  1.0000
  H   H3078     1.0  0.42548  0.94784  0.63581  1.0000
  C   C1781     1.0  0.17287  0.98114  0.54915  1.0000
  C   C1782     1.0  0.38172  0.98164  0.50070  1.0000
  C   C1783     1.0  0.15720  0.93391  0.54897  1.0000
  C   C1784     1.0  0.26982  0.89702  0.51839  1.0000
  H   H3079     1.0  0.48671  0.98216  0.68793  1.0000
  H   H3080     1.0  0.28403  0.92654  0.52934  1.0000
  C   C1785     1.0  0.19928  0.97292  0.51681  1.0000
  C   C1786     1.0  0.46235  0.97238  0.57370  1.0000
  H   H3081     1.0  0.43389  0.95779  0.62678  1.0000
  Fe  Fe270     1.0  0.13900  0.99212  0.50620  1.0000
  C   C1787     1.0  0.34715  0.93815  0.49948  1.0000
  H   H3082     1.0  0.11974  0.77646  0.51349  1.0000
  N   N130      1.0  0.15031  0.94222  0.52942  1.0000
  H   H3083     1.0  0.00921  0.78458  0.51800  1.0000
  H   H3084     1.0  0.23021  0.97298  0.50154  1.0000
  C   C1788     1.0  0.28751  0.91469  0.56455  1.0000
  H   H3085     1.0  0.14757  0.94863  0.51175  1.0000
  C   C1789     1.0  0.13500  0.95031  0.49397  1.0000
  H   H3086     1.0  0.09514  0.80607  0.54172  1.0000
  C   C1790     1.0  0.24487  0.96066  0.50800  1.0000
  C   C1791     1.0  0.25236  0.95816  0.51565  1.0000
  C   C1792     1.0  0.25131  0.96619  0.52240  1.0000
  C   C1793     1.0  0.24263  0.97663  0.52172  1.0000
  C   C1794     1.0  0.23503  0.97912  0.51416  1.0000
  C   C1795     1.0  0.23613  0.97110  0.50731  1.0000
  H   H3087     1.0  0.25894  0.95000  0.51642  1.0000
  H   H3088     1.0  0.25720  0.96426  0.52825  1.0000
  H   H3089     1.0  0.28531  0.89812  0.50460  1.0000
  C   C1796     1.0  0.14505  0.93170  0.53177  1.0000
  C   C1797     1.0  0.24153  0.88825  0.51792  1.0000
  H   H3090     1.0  0.13173  0.76275  0.49283  1.0000
  Fe  Fe271     1.0  0.47014  0.98293  0.61371  1.0000
  H   H3091     1.0  0.36824  0.93924  0.51481  1.0000
  H   H3092     1.0  0.09272  0.83745  0.53764  1.0000
  C   C1798     1.0  0.24747  0.87651  0.51818  1.0000
  H   H3093     1.0  0.40095  0.94528  0.63276  1.0000
  H   H3094     1.0  0.40493  0.95891  0.65533  1.0000
  C   C1799     1.0  0.47422  0.97861  0.68038  1.0000
  H   H3095     1.0  0.25010  0.87102  0.52612  1.0000
  C   C1800     1.0  0.18939  0.92707  0.51795  1.0000
  C   C1801     1.0  0.18360  0.92846  0.50905  1.0000
  C   C1802     1.0  0.17844  0.91959  0.50885  1.0000
  C   C1803     1.0  0.17897  0.90930  0.51761  1.0000
  C   C1804     1.0  0.18514  0.90771  0.52630  1.0000
  C   C1805     1.0  0.19046  0.91653  0.52640  1.0000
  C   C1806     1.0  0.11168  0.76011  0.51087  1.0000
  H   H3096     1.0  0.09225  0.76801  0.50453  1.0000
  H   H3097     1.0  0.18564  0.89973  0.53308  1.0000
  H   H3098     1.0  0.19490  0.91539  0.53333  1.0000
  C   C1807     1.0  0.25834  0.94538  0.56317  1.0000
  C   C1808     1.0  0.24880  0.94324  0.57246  1.0000
  C   C1809     1.0  0.23878  0.94140  0.57041  1.0000
  C   C1810     1.0  0.23822  0.94148  0.55905  1.0000
  C   C1811     1.0  0.24773  0.94364  0.54966  1.0000
  C   C1812     1.0  0.25777  0.94568  0.55171  1.0000
  H   H3099     1.0  0.24916  0.94296  0.58133  1.0000
  H   H3100     1.0  0.23147  0.93975  0.57769  1.0000
  H   H3101     1.0  0.24727  0.94391  0.54083  1.0000
  H   H3102     1.0  0.26501  0.94751  0.54444  1.0000
  C   C1813     1.0  0.31568  0.91575  0.52664  1.0000
  C   C1814     1.0  0.31189  0.92487  0.51763  1.0000
  H   H3103     1.0  0.48793  0.98949  0.73176  1.0000
  H   H3104     1.0  0.10302  0.82935  0.54681  1.0000
  H   H3105     1.0  0.30202  0.89666  0.55441  1.0000
  C   C1815     1.0  0.31655  0.90408  0.52642  1.0000
  H   H3106     1.0  0.31133  0.93389  0.51768  1.0000
  S   S520      1.0  0.18188  0.99298  0.49341  1.0000
  N   N131      1.0  0.19461  0.97550  0.53841  1.0000
  H   H3107     1.0  0.32238  0.94824  0.49527  1.0000
  H   H3108     1.0  0.34728  0.93094  0.50746  1.0000
  H   H3109     1.0  0.10894  0.74674  0.52697  1.0000
  H   H3110     1.0  0.16495  0.93285  0.55261  1.0000
  C   C1816     1.0  0.48046  0.99050  0.56045  1.0000
  Fe  Fe272     1.0  0.04770  0.76927  0.52793  1.0000
  S   S521      1.0  0.08729  0.82409  0.52306  1.0000
  H   H3111     1.0  0.11192  0.79563  0.49630  1.0000
  C   C1817     1.0  0.13535  0.93327  0.52520  1.0000
  H   H3112     1.0  0.40192  0.96367  0.62239  1.0000
  H   H3113     1.0  0.48157  0.97186  0.67681  1.0000
  H   H3114     1.0  0.01416  0.74354  0.53812  1.0000
  C   C1818     1.0  0.12057  0.83742  0.52186  1.0000
  H   H3115     1.0  0.14318  0.96144  0.54582  1.0000
  H   H3116     1.0  0.12664  0.83965  0.51317  1.0000
  H   H3117     1.0  0.40834  0.97751  0.64191  1.0000
  C   C1819     1.0  0.30164  0.98770  0.51323  1.0000
  C   C1820     1.0  0.30045  0.98256  0.50479  1.0000
  C   C1821     1.0  0.11081  0.78024  0.51161  1.0000
  C   C1822     1.0  0.15488  0.94558  0.51634  1.0000
  H   H3118     1.0  0.10494  0.77992  0.52053  1.0000
  H   H3119     1.0  0.19852  0.87383  0.52428  1.0000
  C   C1823     1.0  0.11279  0.88105  0.49414  1.0000
  H   H3120     1.0  0.09573  0.75711  0.52454  1.0000
  C   C1824     1.0  0.44289  0.95806  0.65834  1.0000
  H   H3121     1.0  0.48395  0.99281  0.67488  1.0000
  H   H3122     1.0  0.38120  0.98460  0.51755  1.0000
  H   H3123     1.0  0.16047  0.93777  0.51292  1.0000
  C   C1825     1.0  0.44425  0.94985  0.67873  1.0000
  C   C1826     1.0  0.44674  0.94858  0.66707  1.0000
  H   H3124     1.0  0.26645  0.89773  0.55862  1.0000
  H   H3125     1.0  0.27459  0.89875  0.56799  1.0000
  H   H3126     1.0  0.38378  0.92138  0.52707  1.0000
  H   H3127     1.0  0.11090  0.86669  0.52255  1.0000
  H   H3128     1.0  0.03728  0.75659  0.50681  1.0000
  H   H3129     1.0  0.13130  0.92551  0.52866  1.0000
  H   H3130     1.0  0.29784  0.98479  0.52240  1.0000
  C   C1827     1.0  0.10207  0.85093  0.51741  1.0000
  C   C1828     1.0  0.19777  0.98268  0.54494  1.0000
  S   S522      1.0  0.06591  0.77178  0.51937  1.0000
  C   C1829     1.0  0.43304  0.96967  0.67310  1.0000
  H   H3131     1.0  0.16709  0.93094  0.53196  1.0000
  S   S523      1.0  0.37657  0.98502  0.54202  1.0000
  H   H3132     1.0  0.27765  0.91154  0.50872  1.0000
  C   C1830     1.0  0.35578  0.95899  0.55630  1.0000
  C   C1831     1.0  0.35099  0.97094  0.55262  1.0000
  C   C1832     1.0  0.33980  0.97466  0.55005  1.0000
  C   C1833     1.0  0.33318  0.96649  0.55131  1.0000
  C   C1834     1.0  0.33797  0.95448  0.55486  1.0000
  C   C1835     1.0  0.34925  0.95075  0.55739  1.0000
  H   H3133     1.0  0.35580  0.97738  0.55193  1.0000
  H   H3134     1.0  0.33623  0.98393  0.54715  1.0000
  H   H3135     1.0  0.33288  0.94812  0.55592  1.0000
  H   H3136     1.0  0.35286  0.94148  0.56030  1.0000
  H   H3137     1.0  0.20603  0.95863  0.54388  1.0000
  S   S524      1.0  0.07535  0.74550  0.53518  1.0000
  H   H3138     1.0  0.09281  0.78558  0.54959  1.0000
  C   C1836     1.0  0.24744  0.87918  0.49765  1.0000
  C   C1837     1.0  0.14490  0.96203  0.53621  1.0000
  H   H3139     1.0  0.47000  0.97375  0.68903  1.0000
  Fe  Fe273     1.0  0.46999  0.93173  0.70898  1.0000
  H   H3140     1.0  0.37504  0.91817  0.54160  1.0000
  C   C1838     1.0  0.08532  0.80963  0.52843  1.0000
  C   C1839     1.0  0.07725  0.79354  0.52827  1.0000
  C   C1840     1.0  0.41941  0.97679  0.57884  1.0000
  C   C1841     1.0  0.42793  0.97095  0.58557  1.0000
  C   C1842     1.0  0.43261  0.97724  0.59062  1.0000
  H   H3141     1.0  0.30212  0.88449  0.54902  1.0000
  H   H3142     1.0  0.28412  0.91413  0.52392  1.0000
  H   H3143     1.0  0.16958  0.95349  0.51548  1.0000
  H   H3144     1.0  0.43096  0.96150  0.58683  1.0000
  C   C1843     1.0  0.27852  0.92101  0.52872  1.0000
  H   H3145     1.0  0.01110  0.82350  0.54039  1.0000
  C   C1844     1.0  0.14084  0.95214  0.53378  1.0000
  H   H3146     1.0  0.48090  0.98787  0.71690  1.0000
  C   C1845     1.0  0.28778  0.89940  0.54545  1.0000
  H   H3147     1.0  0.18341  0.96564  0.49634  1.0000
  S   S525      1.0  0.14462  0.91371  0.50281  1.0000
  H   H3148     1.0  0.23943  0.96734  0.55937  1.0000
  H   H3149     1.0  0.15417  0.96246  0.53228  1.0000
  H   H3150     1.0  0.42075  0.95259  0.65274  1.0000
  N   N132      1.0  0.27852  0.90924  0.55017  1.0000
  H   H3151     1.0  0.24015  0.98391  0.58136  1.0000
  C   C1846     1.0  0.40345  0.96291  0.63123  1.0000
  S   S526      1.0  0.45753  0.97343  0.61207  1.0000
  S   S527      1.0  0.24166  0.98631  0.53044  1.0000
  H   H3152     1.0  0.19619  0.94600  0.54243  1.0000
  H   H3153     1.0  0.31955  0.89702  0.53336  1.0000
  H   H3154     1.0  0.29158  0.88730  0.56205  1.0000
  C   C1847     1.0  0.43316  0.97836  0.74061  1.0000
  H   H3155     1.0  0.28882  0.90535  0.56907  1.0000
  H   H3156     1.0  0.34122  0.93681  0.49483  1.0000
  C   C1848     1.0  0.00876  0.77245  0.55117  1.0000
  H   H3157     1.0  0.07495  0.81056  0.51635  1.0000
  H   H3158     1.0  0.42343  0.96812  0.73645  1.0000
  H   H3159     1.0  0.08748  0.86144  0.52848  1.0000
  H   H3160     1.0  0.38932  0.94497  0.54043  1.0000
  H   H3161     1.0  0.11055  0.75430  0.50579  1.0000
  C   C1849     1.0  0.29235  0.95165  0.49283  1.0000
  C   C1850     1.0  0.37364  0.95795  0.52648  1.0000
  C   C1851     1.0  0.25863  0.91528  0.49957  1.0000
  C   C1852     1.0  0.41543  0.96956  0.64059  1.0000
  C   C1853     1.0  0.25959  0.91300  0.56621  1.0000
  H   H3162     1.0  0.25384  0.96779  0.59179  1.0000
  C   C1854     1.0  0.33550  0.97287  0.51025  1.0000
  H   H3163     1.0  0.00979  0.80437  0.52174  1.0000
  C   C1855     1.0  0.41715  0.97537  0.61936  1.0000
  H   H3164     1.0  0.18260  0.95302  0.55025  1.0000
  C   C1856     1.0  0.24978  0.98271  0.57758  1.0000
  H   H3165     1.0  0.11323  0.84396  0.54244  1.0000
  H   H3166     1.0  0.25768  0.97034  0.55909  1.0000
  C   C1857     1.0  0.47010  0.99183  0.66122  1.0000
  H   H3167     1.0  0.33489  0.94970  0.51019  1.0000
  C   C1858     1.0  0.42884  0.98947  0.58894  1.0000
  C   C1859     1.0  0.19649  0.96288  0.54519  1.0000
  H   H3168     1.0  0.00152  0.79910  0.54150  1.0000
  H   H3169     1.0  0.35215  0.97017  0.49786  1.0000
  H   H3170     1.0  0.32591  0.97493  0.51085  1.0000
  C   C1860     1.0  0.20828  0.88579  0.51020  1.0000
  H   H3171     1.0  0.18275  0.93656  0.50249  1.0000
  S   S528      1.0  0.43465  0.96253  0.69605  1.0000
  H   H3172     1.0  0.08533  0.86231  0.51434  1.0000
  S   S529      1.0  0.45079  0.93113  0.71397  1.0000
  C   C1861     1.0  0.21079  0.97956  0.54580  1.0000
  C   C1862     1.0  0.07888  0.80509  0.52356  1.0000
  S   S530      1.0  0.44647  0.95527  0.72349  1.0000
  H   H3173     1.0  0.42175  0.98286  0.72806  1.0000
  H   H3174     1.0  0.12823  0.94118  0.52641  1.0000
  H   H3175     1.0  0.19521  0.87212  0.50799  1.0000
  C   C1863     1.0  0.99877  0.77877  0.53511  1.0000
  H   H3176     1.0  0.25292  0.91655  0.56073  1.0000
  H   H3177     1.0  0.25510  0.90853  0.57492  1.0000
  S   S531      1.0  0.05097  0.76333  0.54618  1.0000
  H   H3178     1.0  0.20662  0.88096  0.52909  1.0000
  H   H3179     1.0  0.16533  0.94516  0.53383  1.0000
  H   H3180     1.0  0.44908  0.99303  0.73226  1.0000
  H   H3181     1.0  0.01132  0.77287  0.49652  1.0000
  H   H3182     1.0  0.13948  0.97068  0.53265  1.0000
  H   H3183     1.0  0.26466  0.92329  0.54376  1.0000
  H   H3184     1.0  0.39619  0.96968  0.63508  1.0000
  C   C1864     1.0  0.26874  0.89669  0.49368  1.0000
  C   C1865     1.0  0.16177  0.95538  0.51174  1.0000
  C   C1866     1.0  0.10524  0.75621  0.52373  1.0000
  H   H3185     1.0  0.10985  0.82391  0.52914  1.0000
  H   H3186     1.0  0.40799  0.94554  0.64382  1.0000
  H   H3187     1.0  0.10128  0.85558  0.53975  1.0000
  H   H3188     1.0  0.15203  0.92388  0.52950  1.0000
  S   S532      1.0  0.03229  0.78207  0.52136  1.0000
  C   C1867     1.0  0.10610  0.84692  0.53750  1.0000
  C   C1868     1.0  0.40859  0.98744  0.61992  1.0000
  C   C1869     1.0  0.18201  0.98075  0.53742  1.0000
  C   C1870     1.0  0.99883  0.80830  0.55494  1.0000
  H   H3189     1.0  0.35622  0.93694  0.49398  1.0000
  H   H3190     1.0  0.45827  0.99129  0.57023  1.0000
  C   C1871     1.0  0.01908  0.77506  0.54330  1.0000
  H   H3191     1.0  0.39274  0.95183  0.64481  1.0000
  H   H3192     1.0  0.27224  0.92675  0.52325  1.0000
  H   H3193     1.0  0.41452  0.96491  0.65933  1.0000
  Fe  Fe274     1.0  0.07003  0.75309  0.51796  1.0000
  H   H3194     1.0  0.29597  0.91723  0.56317  1.0000
  C   C1872     1.0  0.12789  0.85713  0.52552  1.0000
  H   H3195     1.0  0.42756  0.97777  0.67545  1.0000
  C   C1873     1.0  0.43612  0.96865  0.66135  1.0000
  H   H3196     1.0  0.27534  0.89447  0.52496  1.0000
  H   H3197     1.0  0.42959  0.95607  0.60904  1.0000
  H   H3198     1.0  0.27795  0.92654  0.55206  1.0000
  H   H3199     1.0  0.18695  0.95774  0.53457  1.0000
  C   C1874     1.0  0.29620  0.89162  0.55339  1.0000
  H   H3200     1.0  0.02683  0.77379  0.54656  1.0000
  C   C1875     1.0  0.40143  0.95069  0.63855  1.0000
  C   C1876     1.0  0.20261  0.97673  0.52629  1.0000
  C   C1877     1.0  0.23807  0.89524  0.50767  1.0000
  H   H3201     1.0  0.13501  0.94862  0.54215  1.0000
  H   H3202     1.0  0.12551  0.85615  0.53519  1.0000
  H   H3203     1.0  0.48740  0.97863  0.65860  1.0000
  H   H3204     1.0  0.27824  0.97938  0.49283  1.0000
  C   C1878     1.0  0.03015  0.75174  0.51019  1.0000
  H   H3205     1.0  0.21377  0.97019  0.54999  1.0000
  N   N133      1.0  0.34129  0.96112  0.49379  1.0000
  H   H3206     1.0  0.41045  0.99183  0.62585  1.0000
  H   H3207     1.0  0.36593  0.93755  0.53308  1.0000
  H   H3208     1.0  0.27110  0.97981  0.56188  1.0000
  C   C1879     1.0  0.23860  0.97589  0.56151  1.0000
  H   H3209     1.0  0.37795  0.96435  0.51946  1.0000
  H   H3210     1.0  0.41641  0.97306  0.61141  1.0000
  H   H3211     1.0  0.01387  0.80310  0.49915  1.0000
  C   C1880     1.0  0.42545  0.95523  0.62805  1.0000
  H   H3212     1.0  0.19256  0.98180  0.55416  1.0000
  H   H3213     1.0  0.48866  0.94019  0.70604  1.0000
  H   H3214     1.0  0.25263  0.98221  0.54861  1.0000
  C   C1881     1.0  0.27633  0.90369  0.50676  1.0000
  C   C1882     1.0  0.45503  0.99156  0.67953  1.0000
  H   H3215     1.0  0.40187  0.95483  0.51497  1.0000
  H   H3216     1.0  0.36076  0.95940  0.51618  1.0000
  C   C1883     1.0  0.39848  0.98384  0.50636  1.0000
  C   C1884     1.0  0.01687  0.79756  0.49253  1.0000
  H   H3217     1.0  0.13521  0.84976  0.52302  1.0000
  H   H3218     1.0  0.03329  0.74736  0.49363  1.0000
  H   H3219     1.0  0.09130  0.84143  0.55083  1.0000
  N   N134      1.0  0.41520  0.96551  0.63001  1.0000
  H   H3220     1.0  0.23254  0.98279  0.55650  1.0000
  H   H3221     1.0  0.18992  0.88689  0.50216  1.0000
  H   H3222     1.0  0.37293  0.96050  0.53479  1.0000
  C   C1885     1.0  0.28406  0.91772  0.55254  1.0000
  H   H3223     1.0  0.37217  0.93851  0.54398  1.0000
  H   H3224     1.0  0.16514  0.95620  0.50212  1.0000
  H   H3225     1.0  0.29212  0.91896  0.54559  1.0000
  S   S533      1.0  0.08780  0.84987  0.49531  1.0000
  H   H3226     1.0  0.41822  0.94821  0.61725  1.0000
  N   N135      1.0  0.38109  0.94568  0.52644  1.0000
  H   H3227     1.0  0.23455  0.97484  0.57100  1.0000
  H   H3228     1.0  0.47355  0.99085  0.58965  1.0000
  N   N136      1.0  0.47600  0.98565  0.57331  1.0000
  C   C1886     1.0  0.38526  0.94349  0.51413  1.0000
  C   C1887     1.0  0.20689  0.87671  0.52199  1.0000
  H   H3229     1.0  0.35538  0.95538  0.53201  1.0000
  H   H3230     1.0  0.32242  0.96551  0.49990  1.0000
  H   H3231     1.0  0.09516  0.87014  0.51537  1.0000
  H   H3232     1.0  0.21176  0.97174  0.52671  1.0000
  H   H3233     1.0  0.13497  0.95641  0.52747  1.0000
  H   H3234     1.0  0.33781  0.96520  0.51733  1.0000
  C   C1888     1.0  0.19011  0.95473  0.54279  1.0000
  Fe  Fe275     1.0  0.45095  0.93594  0.73053  1.0000
  C   C1889     1.0  0.37619  0.94157  0.50854  1.0000
  H   H3235     1.0  0.34985  0.95009  0.50778  1.0000
  H   H3236     1.0  0.41450  0.98304  0.49294  1.0000
  C   C1890     1.0  0.40532  0.98269  0.49513  1.0000
  C   C1891     1.0  0.00912  0.78122  0.52723  1.0000
  H   H3237     1.0  0.42622  0.97681  0.61742  1.0000
  H   H3238     1.0  0.12028  0.86031  0.51075  1.0000
  H   H3239     1.0  0.02997  0.81215  0.53450  1.0000
  C   C1892     1.0  0.06000  0.76341  0.49464  1.0000
  H   H3240     1.0  0.49160  0.94276  0.73715  1.0000
  C   C1893     1.0  0.25554  0.96975  0.58205  1.0000
  H   H3241     1.0  0.00483  0.74791  0.55745  1.0000
  C   C1894     1.0  0.47029  0.96488  0.66504  1.0000
  H   H3242     1.0  0.21541  0.86282  0.50516  1.0000
  H   H3243     1.0  0.05723  0.84190  0.49847  1.0000
  C   C1895     1.0  0.38661  0.98352  0.50902  1.0000
  H   H3244     1.0  0.26830  0.88876  0.51753  1.0000
  H   H3245     1.0  0.25510  0.86291  0.50825  1.0000
  H   H3246     1.0  0.45608  0.97009  0.67901  1.0000
  C   C1896     1.0  0.48323  0.98224  0.55194  1.0000
  H   H3247     1.0  0.26521  0.96776  0.57872  1.0000
  S   S534      1.0  0.08007  0.74884  0.50061  1.0000
  H   H3248     1.0  0.26260  0.89231  0.50104  1.0000
  C   C1897     1.0  0.34308  0.95007  0.50326  1.0000
  N   N137      1.0  0.20899  0.88160  0.49936  1.0000
  Fe  Fe276     1.0  0.16273  0.90225  0.50301  1.0000
  C   C1898     1.0  0.01192  0.82010  0.53259  1.0000
  H   H3249     1.0  0.43952  0.99039  0.67436  1.0000
  C   C1899     1.0  0.21861  0.87053  0.49901  1.0000
  H   H3250     1.0  0.45901  0.98416  0.58495  1.0000
  H   H3251     1.0  0.21445  0.86900  0.52215  1.0000
  C   C1900     1.0  0.42236  0.97738  0.73696  1.0000
  C   C1901     1.0  0.24122  0.89080  0.49747  1.0000
  S   S535      1.0  0.15361  0.98886  0.51532  1.0000
  C   C1902     1.0  0.39902  0.95416  0.52459  1.0000
  H   H3252     1.0  0.05894  0.80521  0.51059  1.0000
  H   H3253     1.0  0.10627  0.85207  0.50786  1.0000
  H   H3254     1.0  0.30600  0.92930  0.50151  1.0000
  C   C1903     1.0  0.46777  0.98044  0.71488  1.0000
  S   S536      1.0  0.43711  0.99041  0.62818  1.0000
  H   H3255     1.0  0.46453  0.96492  0.58105  1.0000
  H   H3256     1.0  0.12175  0.95827  0.50728  1.0000
  H   H3257     1.0  0.20416  0.90759  0.49543  1.0000
  C   C1904     1.0  0.41565  0.98902  0.57716  1.0000
  H   H3258     1.0  0.35682  0.96990  0.52503  1.0000
  H   H3259     1.0  0.12398  0.81930  0.52028  1.0000
  H   H3260     1.0  0.03880  0.83505  0.50829  1.0000
  C   C1905     1.0  0.30892  0.92230  0.50844  1.0000
  C   C1906     1.0  0.45708  0.98279  0.71154  1.0000
  H   H3261     1.0  0.45179  0.98630  0.68839  1.0000
  H   H3262     1.0  0.48400  0.96692  0.57449  1.0000
  H   H3263     1.0  0.27119  0.96749  0.49978  1.0000
  H   H3264     1.0  0.47323  0.99286  0.68870  1.0000
  C   C1907     1.0  0.00291  0.81265  0.52152  1.0000
  H   H3265     1.0  0.38884  0.95096  0.50794  1.0000
  H   H3266     1.0  0.47528  0.96837  0.65623  1.0000
  H   H3267     1.0  0.25920  0.92257  0.50313  1.0000
  C   C1908     1.0  0.46103  0.97460  0.67057  1.0000
  H   H3268     1.0  0.17363  0.92097  0.50218  1.0000
  H   H3269     1.0  0.25276  0.98797  0.58187  1.0000
  C   C1909     1.0  0.26489  0.98851  0.56038  1.0000
  N   N138      1.0  0.46542  0.98408  0.67267  1.0000
  H   H3270     1.0  0.07962  0.78789  0.50051  1.0000
  H   H3271     1.0  0.21181  0.98492  0.55135  1.0000
  H   H3272     1.0  0.25680  0.98532  0.49924  1.0000
  H   H3273     1.0  0.28418  0.88299  0.49818  1.0000
  H   H3274     1.0  0.11263  0.82884  0.51335  1.0000
  H   H3275     1.0  0.28088  0.92656  0.49392  1.0000
  H   H3276     1.0  0.02275  0.78937  0.49623  1.0000
  C   C1910     1.0  0.04990  0.84484  0.49420  1.0000
  H   H3277     1.0  0.02113  0.80156  0.53814  1.0000
  H   H3278     1.0  0.19554  0.99223  0.54085  1.0000
  H   H3279     1.0  0.39411  0.96289  0.52646  1.0000
  C   C1911     1.0  0.30947  0.91070  0.50837  1.0000
  H   H3280     1.0  0.16389  0.98388  0.54737  1.0000
  H   H3281     1.0  0.45476  0.97845  0.66464  1.0000
  H   H3282     1.0  0.00091  0.79155  0.49889  1.0000
  H   H3283     1.0  0.26895  0.98870  0.54139  1.0000
  S   S537      1.0  0.10770  0.82526  0.49257  1.0000
  C   C1912     1.0  0.34273  0.97117  0.49789  1.0000
  C   C1913     1.0  0.03941  0.84106  0.49980  1.0000
  H   H3284     1.0  0.46565  0.95889  0.66368  1.0000
  H   H3285     1.0  0.21626  0.88904  0.50927  1.0000
  H   H3286     1.0  0.20407  0.95649  0.49581  1.0000
  C   C1914     1.0  0.25032  0.87194  0.50808  1.0000
  C   C1915     1.0  0.19722  0.87927  0.50025  1.0000
  H   H3287     1.0  0.19950  0.96343  0.51893  1.0000
  H   H3288     1.0  0.31800  0.98645  0.56966  1.0000
  H   H3289     1.0  0.09148  0.79461  0.49826  1.0000
  H   H3290     1.0  0.29966  0.98621  0.56497  1.0000
  Fe  Fe277     1.0  0.39610  0.98237  0.53620  1.0000
  S   S538      1.0  0.48925  0.97655  0.60578  1.0000
  H   H3291     1.0  0.48083  0.97152  0.58772  1.0000
  H   H3292     1.0  0.02821  0.81535  0.49287  1.0000
  H   H3293     1.0  0.11665  0.79645  0.50835  1.0000
  S   S539      1.0  0.39778  0.99246  0.54839  1.0000
  H   H3294     1.0  0.20542  0.93798  0.49521  1.0000
  H   H3295     1.0  0.48240  0.98664  0.64552  1.0000
  H   H3296     1.0  0.39925  0.98686  0.62248  1.0000
  H   H3297     1.0  0.40714  0.95187  0.52800  1.0000
  H   H3298     1.0  0.49019  0.98484  0.54423  1.0000
  C   C1916     1.0  0.41381  0.96081  0.65253  1.0000
  H   H3299     1.0  0.33606  0.98581  0.56912  1.0000
  C   C1917     1.0  0.11414  0.77443  0.49238  1.0000
  H   H3300     1.0  0.21674  0.98172  0.53712  1.0000
  S   S540      1.0  0.15930  0.88791  0.49692  1.0000
  H   H3301     1.0  0.00641  0.81897  0.51357  1.0000
  S   S541      1.0  0.01732  0.83890  0.50114  1.0000
  H   H3302     1.0  0.99880  0.81703  0.55600  1.0000
  C   C1918     1.0  0.09474  0.77547  0.50618  1.0000
  H   H3303     1.0  0.47530  0.98290  0.54877  1.0000
  H   H3304     1.0  0.47617  0.95930  0.67094  1.0000
  C   C1919     1.0  0.12383  0.88218  0.49461  1.0000
  H   H3305     1.0  0.28651  0.95324  0.50131  1.0000
  S   S542      1.0  0.48581  0.92004  0.69993  1.0000
  H   H3306     1.0  0.37345  0.94954  0.50187  1.0000
  C   C1920     1.0  0.47242  0.98969  0.71480  1.0000
  H   H3307     1.0  0.10497  0.88751  0.49687  1.0000
  H   H3308     1.0  0.22835  0.98721  0.51356  1.0000
  H   H3309     1.0  0.45305  0.97323  0.57361  1.0000
  H   H3310     1.0  0.10122  0.79877  0.50935  1.0000
  C   C1921     1.0  0.02982  0.84486  0.49438  1.0000
  H   H3311     1.0  0.18118  0.98985  0.53201  1.0000
  S   S543      1.0  0.40493  0.98584  0.51679  1.0000
  C   C1922     1.0  0.46365  0.98392  0.57564  1.0000
  H   H3312     1.0  0.13052  0.77763  0.49408  1.0000
  C   C1923     1.0  0.08932  0.78653  0.49787  1.0000
  H   H3313     1.0  0.19069  0.97818  0.51487  1.0000
  H   H3314     1.0  0.13083  0.94317  0.49516  1.0000
  Fe  Fe278     1.0  0.14192  0.90013  0.49492  1.0000
  H   H3315     1.0  0.44065  0.97669  0.73305  1.0000
  C   C1924     1.0  0.10998  0.79344  0.50599  1.0000
  H   H3316     1.0  0.05763  0.79373  0.50487  1.0000
  S   S544      1.0  0.46393  0.98126  0.63317  1.0000
  C   C1925     1.0  0.32904  0.96418  0.49167  1.0000
  H   H3317     1.0  0.05726  0.81940  0.49188  1.0000
  C   C1926     1.0  0.06058  0.80997  0.49163  1.0000
  H   H3318     1.0  0.45514  0.90598  0.76162  1.0000
  C   C1927     1.0  0.46923  0.92001  0.76431  1.0000
  C   C1928     1.0  0.49221  0.91175  0.89141  1.0000
  H   H3319     1.0  0.39497  0.76613  0.98357  1.0000
  H   H3320     1.0  0.44145  0.90193  0.76799  1.0000
  C   C1929     1.0  0.48383  0.75736  0.96406  1.0000
  C   C1930     1.0  0.48966  0.98524  0.84040  1.0000
  H   H3321     1.0  0.45029  0.81373  0.92282  1.0000
  S   S545      1.0  0.45733  0.94633  0.80332  1.0000
  C   C1931     1.0  0.42729  0.75182  0.98232  1.0000
  S   S546      1.0  0.48328  0.95255  0.79771  1.0000
  H   H3322     1.0  0.48392  0.90856  0.89469  1.0000
  S   S547      1.0  0.43758  0.96408  0.78120  1.0000
  Fe  Fe279     1.0  0.45417  0.78919  0.97509  1.0000
  H   H3323     1.0  0.46757  0.99272  0.77785  1.0000
  S   S548      1.0  0.44583  0.79422  0.95961  1.0000
  C   C1932     1.0  0.48332  0.93448  0.84087  1.0000
  H   H3324     1.0  0.48313  0.79353  0.90247  1.0000
  H   H3325     1.0  0.48812  0.78330  0.94648  1.0000
  Fe  Fe280     1.0  0.46522  0.79862  0.98891  1.0000
  H   H3326     1.0  0.49132  0.91768  0.88272  1.0000
  S   S549      1.0  0.47255  0.79081  0.97294  1.0000
  C   C1933     1.0  0.44054  0.74613  0.98117  1.0000
  H   H3327     1.0  0.46235  0.98246  0.74543  1.0000
  S   S550      1.0  0.46329  0.96386  0.82456  1.0000
  C   C1934     1.0  0.47904  0.79993  0.93630  1.0000
  H   H3328     1.0  0.49121  0.91492  0.90876  1.0000
  H   H3329     1.0  0.48604  0.90952  0.83029  1.0000
  H   H3330     1.0  0.49247  0.88994  0.89018  1.0000
  H   H3331     1.0  0.48914  0.74342  0.90900  1.0000
  C   C1935     1.0  0.44074  0.92790  0.79487  1.0000
  C   C1936     1.0  0.42859  0.95073  0.77278  1.0000
  H   H3332     1.0  0.45736  0.78043  0.93032  1.0000
  C   C1937     1.0  0.47265  0.95414  0.83346  1.0000
  H   H3333     1.0  0.42075  0.95264  0.77952  1.0000
  Fe  Fe281     1.0  0.45438  0.96034  0.78722  1.0000
  H   H3334     1.0  0.48098  0.80883  0.93244  1.0000
  H   H3335     1.0  0.45156  0.93127  0.77772  1.0000
  H   H3336     1.0  0.47418  0.90991  0.78041  1.0000
  H   H3337     1.0  0.43316  0.92610  0.79287  1.0000
  H   H3338     1.0  0.43876  0.93750  0.79448  1.0000
  H   H3339     1.0  0.44195  0.91981  0.77333  1.0000
  H   H3340     1.0  0.47025  0.76942  0.92736  1.0000
  H   H3341     1.0  0.41232  0.78586  0.98977  1.0000
  H   H3342     1.0  0.44150  0.92347  0.80403  1.0000
  H   H3343     1.0  0.47501  0.75803  0.96940  1.0000
  H   H3344     1.0  0.49184  0.84451  0.97148  1.0000
  H   H3345     1.0  0.48968  0.75116  0.89429  1.0000
  C   C1938     1.0  0.47386  0.82386  0.96904  1.0000
  H   H3346     1.0  0.49545  0.90491  0.77738  1.0000
  H   H3347     1.0  0.47890  0.75702  0.94844  1.0000
  H   H3348     1.0  0.47346  0.96765  0.84130  1.0000
  H   H3349     1.0  0.48711  0.89458  0.91019  1.0000
  H   H3350     1.0  0.46878  0.81820  0.96833  1.0000
  H   H3351     1.0  0.45660  0.94398  0.74853  1.0000
  H   H3352     1.0  0.45211  0.88794  0.79319  1.0000
  H   H3353     1.0  0.46771  0.88812  0.78900  1.0000
  C   C1939     1.0  0.43990  0.76343  0.94924  1.0000
  C   C1940     1.0  0.43255  0.77463  0.94709  1.0000
  C   C1941     1.0  0.43472  0.78411  0.94990  1.0000
  C   C1942     1.0  0.44401  0.78236  0.95528  1.0000
  C   C1943     1.0  0.45150  0.77120  0.95729  1.0000
  C   C1944     1.0  0.44957  0.76177  0.95408  1.0000
  H   H3354     1.0  0.42511  0.77597  0.94328  1.0000
  H   H3355     1.0  0.42895  0.79272  0.94826  1.0000
  H   H3356     1.0  0.45882  0.76989  0.96123  1.0000
  H   H3357     1.0  0.41296  0.97961  0.76262  1.0000
  H   H3358     1.0  0.46987  0.90193  0.77297  1.0000
  C   C1945     1.0  0.47638  0.95843  0.84102  1.0000
  H   H3359     1.0  0.47086  0.80117  0.94329  1.0000
  C   C1946     1.0  0.40314  0.76931  0.98177  1.0000
  H   H3360     1.0  0.42251  0.74458  0.98608  1.0000
  S   S551      1.0  0.47191  0.95444  0.77569  1.0000
  H   H3361     1.0  0.48817  0.77865  0.91065  1.0000
  C   C1947     1.0  0.45579  0.90380  0.79532  1.0000
  H   H3362     1.0  0.45951  0.92602  0.78900  1.0000
  C   C1948     1.0  0.47626  0.94218  0.83326  1.0000
  C   C1949     1.0  0.44835  0.95290  0.76282  1.0000
  S   S552      1.0  0.44651  0.79849  0.99007  1.0000
  C   C1950     1.0  0.47782  0.83218  0.95915  1.0000
  H   H3363     1.0  0.42594  0.75520  0.97318  1.0000
  H   H3364     1.0  0.47323  0.93884  0.82755  1.0000
  C   C1951     1.0  0.44587  0.91120  0.77848  1.0000
  H   H3365     1.0  0.43144  0.98177  0.76208  1.0000
  S   S553      1.0  0.48296  0.92230  0.79127  1.0000
  H   H3366     1.0  0.40984  0.99246  0.76858  1.0000
  S   S554      1.0  0.46011  0.97358  0.79269  1.0000
  C   C1952     1.0  0.43934  0.94069  0.75690  1.0000
  H   H3367     1.0  0.47024  0.92806  0.76618  1.0000
  C   C1953     1.0  0.46740  0.91046  0.77566  1.0000
  H   H3368     1.0  0.47208  0.81221  0.91649  1.0000
  N   N139      1.0  0.45532  0.91233  0.78367  1.0000
  H   H3369     1.0  0.42393  0.77485  0.97314  1.0000
  H   H3370     1.0  0.48182  0.91309  0.81677  1.0000
  S   S555      1.0  0.45639  0.77113  0.98660  1.0000
  H   H3371     1.0  0.46712  0.80140  0.91345  1.0000
  C   C1954     1.0  0.49528  0.74663  0.90076  1.0000
  H   H3372     1.0  0.48195  0.98533  0.83724  1.0000
  H   H3373     1.0  0.44604  0.75263  0.97882  1.0000
  H   H3374     1.0  0.45238  0.80025  0.93345  1.0000
  S   S556      1.0  0.44051  0.93043  0.74871  1.0000
  C   C1955     1.0  0.44877  0.94584  0.75528  1.0000
  Fe  Fe282     1.0  0.47523  0.94121  0.79210  1.0000
  Fe  Fe283     1.0  0.46506  0.95895  0.80757  1.0000
  C   C1956     1.0  0.42924  0.94319  0.76563  1.0000
  H   H3375     1.0  0.48998  0.97809  0.84843  1.0000
  C   C1957     1.0  0.48718  0.93882  0.84830  1.0000
  H   H3376     1.0  0.46208  0.90544  0.79950  1.0000
  C   C1958     1.0  0.45234  0.92456  0.78595  1.0000
  H   H3377     1.0  0.43835  0.90865  0.78555  1.0000
  S   S557      1.0  0.48878  0.85026  0.94759  1.0000
  H   H3378     1.0  0.46192  0.92231  0.75975  1.0000
  H   H3379     1.0  0.44710  0.90505  0.80157  1.0000
  C   C1959     1.0  0.47321  0.78365  0.93300  1.0000
  N   N140      1.0  0.43259  0.98976  0.74370  1.0000
  H   H3380     1.0  0.45537  0.75316  0.95563  1.0000
  N   N141      1.0  0.47735  0.79487  0.92702  1.0000
  H   H3381     1.0  0.45583  0.95646  0.76180  1.0000
  H   H3382     1.0  0.43615  0.77068  0.97955  1.0000
  C   C1960     1.0  0.48436  0.83960  0.95999  1.0000
  H   H3383     1.0  0.48427  0.92717  0.89904  1.0000
  H   H3384     1.0  0.42191  0.93928  0.76687  1.0000
  C   C1961     1.0  0.43826  0.95536  0.77159  1.0000
  C   C1962     1.0  0.46859  0.80413  0.92076  1.0000
  H   H3385     1.0  0.47579  0.83290  0.95083  1.0000
  H   H3386     1.0  0.48919  0.92247  0.81928  1.0000
  S   S558      1.0  0.43618  0.75168  0.94649  1.0000
  Fe  Fe284     1.0  0.47801  0.96652  0.78248  1.0000
  H   H3387     1.0  0.48418  0.83029  0.98915  1.0000
  C   C1963     1.0  0.48260  0.83065  0.98074  1.0000
  C   C1964     1.0  0.48885  0.79256  0.94281  1.0000
  H   H3388     1.0  0.48351  0.98529  0.80755  1.0000
  H   H3389     1.0  0.45649  0.81295  0.93472  1.0000
  C   C1965     1.0  0.45921  0.89064  0.79511  1.0000
  C   C1966     1.0  0.48380  0.95082  0.84829  1.0000
  H   H3390     1.0  0.46025  0.88547  0.80402  1.0000
  S   S559      1.0  0.49026  0.75905  0.98326  1.0000
  C   C1967     1.0  0.49204  0.91968  0.89943  1.0000
  C   C1968     1.0  0.48691  0.83871  0.97076  1.0000
  C   C1969     1.0  0.48896  0.91315  0.82077  1.0000
  N   N142      1.0  0.42241  0.76140  0.98925  1.0000
  S   S560      1.0  0.49076  0.97807  0.77212  1.0000
  H   H3391     1.0  0.45505  0.97253  0.74378  1.0000
  C   C1970     1.0  0.48954  0.97679  0.80606  1.0000
  H   H3392     1.0  0.49261  0.80065  0.91505  1.0000
  C   C1971     1.0  0.48591  0.99194  0.77582  1.0000
  H   H3393     1.0  0.48854  0.97545  0.79780  1.0000
  C   C1972     1.0  0.48940  0.78780  0.90787  1.0000
  C   C1973     1.0  0.47612  0.82319  0.97989  1.0000
  C   C1974     1.0  0.46692  0.77910  0.92630  1.0000
  H   H3394     1.0  0.42494  0.79085  0.98045  1.0000
  H   H3395     1.0  0.49337  0.90070  0.96967  1.0000
  H   H3396     1.0  0.40025  0.77899  0.98088  1.0000
  C   C1975     1.0  0.48907  0.79252  0.91850  1.0000
  H   H3397     1.0  0.48576  0.92518  0.84104  1.0000
  C   C1976     1.0  0.42683  0.98955  0.75647  1.0000
  H   H3398     1.0  0.46700  0.78464  0.94154  1.0000
  C   C1977     1.0  0.48607  0.75663  0.95226  1.0000
  C   C1978     1.0  0.44949  0.90262  0.77013  1.0000
  H   H3399     1.0  0.48071  0.77646  0.93530  1.0000
  H   H3400     1.0  0.47749  0.91676  0.75818  1.0000
  C   C1979     1.0  0.49303  0.75728  0.96889  1.0000
  H   H3401     1.0  0.48662  0.95419  0.85413  1.0000
  C   C1980     1.0  0.45630  0.80787  0.92851  1.0000
  H   H3402     1.0  0.45395  0.89365  0.77394  1.0000
  H   H3403     1.0  0.46814  0.78284  0.91678  1.0000
  C   C1981     1.0  0.41380  0.98888  0.76051  1.0000
  C   C1982     1.0  0.42643  0.77232  0.98177  1.0000
  C   C1983     1.0  0.42203  0.78331  0.98716  1.0000
  H   H3404     1.0  0.48821  0.79643  0.95028  1.0000
  H   H3405     1.0  0.40854  0.76720  0.97329  1.0000
  H   H3406     1.0  0.49040  0.80023  0.97755  1.0000
  H   H3407     1.0  0.49028  0.90553  0.87191  1.0000
  Fe  Fe285     1.0  0.47419  0.77346  0.98575  1.0000
  H   H3408     1.0  0.45075  0.97814  0.75715  1.0000
  H   H3409     1.0  0.48652  0.96986  0.81351  1.0000
  H   H3410     1.0  0.43490  0.97076  0.74801  1.0000
  C   C1984     1.0  0.45361  0.98035  0.74745  1.0000
  H   H3411     1.0  0.41398  0.97965  0.74325  1.0000
  C   C1985     1.0  0.49493  0.92218  0.77926  1.0000
  H   H3412     1.0  0.49572  0.78581  0.92297  1.0000
  C   C1986     1.0  0.44503  0.99106  0.74178  1.0000
  H   H3413     1.0  0.54326  0.05486  0.00358  1.0000
  H   H3414     1.0  0.53022  0.01884  0.18227  1.0000
  H   H3415     1.0  0.55517  0.20262  0.02246  1.0000
  S   S561      1.0  0.56474  0.00218  0.18216  1.0000
  Fe  Fe286     1.0  0.55411  0.09583  0.01818  1.0000
  H   H3416     1.0  0.50408  0.04537  0.22811  1.0000
  N   N143      1.0  0.50555  0.22761  0.05147  1.0000
  Fe  Fe287     1.0  0.57990  0.00433  0.18782  1.0000
  S   S562      1.0  0.58228  0.02219  0.18723  1.0000
  C   C1987     1.0  0.57102  0.21200  0.99936  1.0000
  H   H3417     1.0  0.50208  0.22554  0.02911  1.0000
  Fe  Fe288     1.0  0.58069  0.14911  0.02737  1.0000
  S   S563      1.0  0.52756  0.13381  0.00563  1.0000
  S   S564      1.0  0.58276  0.13099  0.03900  1.0000
  Fe  Fe289     1.0  0.57509  0.17529  0.02677  1.0000
  C   C1988     1.0  0.56784  0.11399  0.02475  1.0000
  S   S565      1.0  0.56846  0.18789  0.03898  1.0000
  H   H3418     1.0  0.58069  0.20923  0.99866  1.0000
  S   S566      1.0  0.56675  0.03949  0.23508  1.0000
  C   C1989     1.0  0.50586  0.16096  0.01941  1.0000
  S   S567      1.0  0.56379  0.16267  0.02929  1.0000
  S   S568      1.0  0.59181  0.16136  0.02653  1.0000
  Fe  Fe290     1.0  0.52096  0.01224  0.11186  1.0000
  S   S569      1.0  0.52925  0.02786  0.10417  1.0000
  H   H3419     1.0  0.51256  0.21231  0.04362  1.0000
  H   H3420     1.0  0.50641  0.03492  0.12082  1.0000
  S   S570      1.0  0.55298  0.00896  0.09402  1.0000
  Fe  Fe291     1.0  0.54496  0.01561  0.11059  1.0000
  S   S571      1.0  0.55507  0.02217  0.11943  1.0000
  Fe  Fe292     1.0  0.53655  0.02008  0.08812  1.0000
  S   S572      1.0  0.53959  0.02941  0.06892  1.0000
  S   S573      1.0  0.50351  0.01143  0.12442  1.0000
  S   S574      1.0  0.52678  0.00548  0.09521  1.0000
  C   C1990     1.0  0.54864  0.20915  0.01769  1.0000
  C   C1991     1.0  0.59704  0.01960  0.22865  1.0000
  C   C1992     1.0  0.53072  0.17843  0.00884  1.0000
  C   C1993     1.0  0.50059  0.06799  0.00618  1.0000
  Fe  Fe293     1.0  0.54260  0.99500  0.10239  1.0000
  H   H3421     1.0  0.51494  0.05347  0.15682  1.0000
  C   C1994     1.0  0.58307  0.11993  0.99247  1.0000
  C   C1995     1.0  0.54732  0.22802  0.00266  1.0000
  H   H3422     1.0  0.50468  0.08571  0.03205  1.0000
  C   C1996     1.0  0.51629  0.14199  0.01472  1.0000
  C   C1997     1.0  0.50014  0.14320  0.03176  1.0000
  H   H3423     1.0  0.58888  0.01646  0.23316  1.0000
  S   S575      1.0  0.49622  0.19288  0.03851  1.0000
  C   C1998     1.0  0.52132  0.18803  0.01081  1.0000
  C   C1999     1.0  0.50323  0.06014  0.01796  1.0000
  S   S576      1.0  0.54563  0.08101  0.02052  1.0000
  H   H3424     1.0  0.56052  0.11594  0.02064  1.0000
  H   H3425     1.0  0.56530  0.13181  0.02652  1.0000
  H   H3426     1.0  0.49828  0.15360  0.99990  1.0000
  H   H3427     1.0  0.51277  0.18655  0.01569  1.0000
  H   H3428     1.0  0.55818  0.24242  0.03943  1.0000
  H   H3429     1.0  0.52568  0.04615  0.21870  1.0000
  H   H3430     1.0  0.52309  0.12617  0.04937  1.0000
  H   H3431     1.0  0.56946  0.21313  0.01687  1.0000
  H   H3432     1.0  0.53893  0.23065  0.02546  1.0000
  C   C2000     1.0  0.53337  0.04427  0.06360  1.0000
  C   C2001     1.0  0.52499  0.05136  0.07078  1.0000
  C   C2002     1.0  0.52056  0.06329  0.06599  1.0000
  C   C2003     1.0  0.52469  0.06819  0.05410  1.0000
  C   C2004     1.0  0.53301  0.06103  0.04701  1.0000
  C   C2005     1.0  0.53723  0.04913  0.05169  1.0000
  H   H3433     1.0  0.51948  0.03771  0.14914  1.0000
  H   H3434     1.0  0.50756  0.06175  0.04559  1.0000
  H   H3435     1.0  0.53612  0.06455  0.03786  1.0000
  H   H3436     1.0  0.54366  0.04366  0.04607  1.0000
  C   C2006     1.0  0.57976  0.12027  0.03383  1.0000
  C   C2007     1.0  0.57045  0.12291  0.02821  1.0000
  H   H3437     1.0  0.52999  0.21727  0.02524  1.0000
  C   C2008     1.0  0.55904  0.13672  0.99631  1.0000
  C   C2009     1.0  0.58438  0.10005  0.03170  1.0000
  C   C2010     1.0  0.58661  0.10878  0.03571  1.0000
  H   H3438     1.0  0.51727  0.07813  0.01252  1.0000
  H   H3439     1.0  0.53276  0.20235  0.02450  1.0000
  H   H3440     1.0  0.58994  0.09128  0.03287  1.0000
  H   H3441     1.0  0.59382  0.10671  0.04004  1.0000
  C   C2011     1.0  0.57714  0.02715  0.20049  1.0000
  C   C2012     1.0  0.57875  0.03801  0.20077  1.0000
  C   C2013     1.0  0.57528  0.04186  0.21136  1.0000
  C   C2014     1.0  0.57053  0.03471  0.22182  1.0000
  C   C2015     1.0  0.56885  0.02390  0.22153  1.0000
  C   C2016     1.0  0.57189  0.02027  0.21087  1.0000
  H   H3442     1.0  0.58272  0.04344  0.19278  1.0000
  H   H3443     1.0  0.57655  0.05028  0.21150  1.0000
  S   S577      1.0  0.59619  0.22579  0.03586  1.0000
  H   H3444     1.0  0.57009  0.01218  0.21073  1.0000
  N   N144      1.0  0.55215  0.22084  0.01328  1.0000
  C   C2017     1.0  0.54232  0.01086  0.20577  1.0000
  C   C2018     1.0  0.53518  0.02226  0.20436  1.0000
  C   C2019     1.0  0.52295  0.02383  0.20717  1.0000
  C   C2020     1.0  0.51789  0.01406  0.21176  1.0000
  H   H3445     1.0  0.53977  0.12893  0.05346  1.0000
  H   H3446     1.0  0.55177  0.00966  0.20354  1.0000
  H   H3447     1.0  0.53913  0.02980  0.20080  1.0000
  H   H3448     1.0  0.52798  0.05845  0.15580  1.0000
  S   S578      1.0  0.58357  0.15189  0.00789  1.0000
  C   C2021     1.0  0.50413  0.23371  0.02954  1.0000
  C   C2022     1.0  0.57058  0.00511  0.14677  1.0000
  C   C2023     1.0  0.56617  0.01389  0.13779  1.0000
  C   C2024     1.0  0.56150  0.01099  0.12995  1.0000
  H   H3449     1.0  0.50193  0.04809  0.13458  1.0000
  S   S579      1.0  0.50392  0.02316  0.18618  1.0000
  H   H3450     1.0  0.57408  0.00739  0.15287  1.0000
  H   H3451     1.0  0.56638  0.02292  0.13689  1.0000
  H   H3452     1.0  0.52106  0.01850  0.14515  1.0000
  C   C2025     1.0  0.51793  0.22914  0.04909  1.0000
  H   H3453     1.0  0.50968  0.04629  0.05049  1.0000
  C   C2026     1.0  0.58152  0.21083  0.04715  1.0000
  C   C2027     1.0  0.57538  0.20243  0.04780  1.0000
  C   C2028     1.0  0.57743  0.19726  0.03825  1.0000
  C   C2029     1.0  0.58578  0.20044  0.02804  1.0000
  H   H3454     1.0  0.59477  0.99506  0.23569  1.0000
  H   H3455     1.0  0.57996  0.21465  0.05463  1.0000
  H   H3456     1.0  0.56902  0.19993  0.05574  1.0000
  H   H3457     1.0  0.58746  0.19643  0.02065  1.0000
  S   S580      1.0  0.54868  0.10549  0.00126  1.0000
  H   H3458     1.0  0.52931  0.22526  0.00682  1.0000
  H   H3459     1.0  0.55316  0.14495  0.99869  1.0000
  H   H3460     1.0  0.56294  0.22247  0.03194  1.0000
  N   N145      1.0  0.52653  0.03668  0.23648  1.0000
  H   H3461     1.0  0.52401  0.04846  0.00915  1.0000
  C   C2030     1.0  0.52441  0.05695  0.01069  1.0000
  S   S581      1.0  0.52207  0.10138  0.01524  1.0000
  S   S582      1.0  0.57731  0.18039  0.00716  1.0000
  C   C2031     1.0  0.50902  0.13645  0.02453  1.0000
  C   C2032     1.0  0.56179  0.99922  0.13074  1.0000
  H   H3462     1.0  0.56844  0.22690  0.00685  1.0000
  H   H3463     1.0  0.53749  0.20561  0.03541  1.0000
  C   C2033     1.0  0.51745  0.13212  0.05518  1.0000
  N   N146      1.0  0.60752  0.00101  0.22013  1.0000
  Fe  Fe294     1.0  0.53276  0.11443  0.01288  1.0000
  Fe  Fe295     1.0  0.52995  0.09157  0.03087  1.0000
  C   C2034     1.0  0.59149  0.20934  0.02716  1.0000
  C   C2035     1.0  0.52499  0.00272  0.21312  1.0000
  C   C2036     1.0  0.49979  0.23629  0.04201  1.0000
  H   H3464     1.0  0.58365  0.23699  0.07180  1.0000
  H   H3465     1.0  0.53403  0.02376  0.13804  1.0000
  H   H3466     1.0  0.55381  0.13288  0.99286  1.0000
  C   C2037     1.0  0.51468  0.15424  0.01215  1.0000
  C   C2038     1.0  0.53643  0.05385  0.22442  1.0000
  C   C2039     1.0  0.53883  0.13575  0.03016  1.0000
  H   H3467     1.0  0.54674  0.01637  0.15804  1.0000
  C   C2040     1.0  0.52149  0.05334  0.16163  1.0000
  H   H3468     1.0  0.53468  0.06236  0.21805  1.0000
  C   C2041     1.0  0.58837  0.12383  0.00046  1.0000
  Fe  Fe296     1.0  0.53846  0.09174  0.00477  1.0000
  C   C2042     1.0  0.56538  0.21854  0.00948  1.0000
  C   C2043     1.0  0.53718  0.00111  0.20984  1.0000
  C   C2044     1.0  0.55356  0.22211  0.03366  1.0000
  H   H3469     1.0  0.51816  0.23853  0.04774  1.0000
  H   H3470     1.0  0.51665  0.05797  0.16889  1.0000
  S   S583      1.0  0.51947  0.08324  0.04827  1.0000
  H   H3471     1.0  0.59609  0.12764  0.99559  1.0000
  C   C2045     1.0  0.60793  0.00940  0.22706  1.0000
  Fe  Fe297     1.0  0.49892  0.03453  0.19923  1.0000
  C   C2046     1.0  0.53410  0.20132  0.99998  1.0000
  H   H3472     1.0  0.53186  0.01119  0.23962  1.0000
  C   C2047     1.0  0.51640  0.05171  0.03176  1.0000
  H   H3473     1.0  0.49842  0.08669  0.02031  1.0000
  C   C2048     1.0  0.54191  0.18024  0.00289  1.0000
  H   H3474     1.0  0.54290  0.13717  0.02060  1.0000
  C   C2049     1.0  0.51614  0.03152  0.23788  1.0000
  H   H3475     1.0  0.54992  0.22296  0.99563  1.0000
  C   C2050     1.0  0.50539  0.21541  0.05086  1.0000
  H   H3476     1.0  0.52037  0.15851  0.00460  1.0000
  H   H3477     1.0  0.52192  0.04766  0.07999  1.0000
  H   H3478     1.0  0.53537  0.21015  0.99628  1.0000
  H   H3479     1.0  0.59852  0.01440  0.20769  1.0000
  Fe  Fe298     1.0  0.59442  0.23969  0.01949  1.0000
  H   H3480     1.0  0.58169  0.13009  0.00535  1.0000
  N   N147      1.0  0.51445  0.06063  0.02062  1.0000
  H   H3481     1.0  0.59763  0.21209  0.01913  1.0000
  H   H3482     1.0  0.49954  0.24101  0.02343  1.0000
  S   S584      1.0  0.53608  0.00065  0.11957  1.0000
  H   H3483     1.0  0.63075  0.99940  0.20551  1.0000
  H   H3484     1.0  0.51407  0.06876  0.07156  1.0000
  H   H3485     1.0  0.58871  0.00250  0.22324  1.0000
  H   H3486     1.0  0.53381  0.01199  0.15107  1.0000
  H   H3487     1.0  0.55112  0.23593  0.99885  1.0000
  C   C2051     1.0  0.49862  0.15544  0.02925  1.0000
  H   H3488     1.0  0.52124  0.07227  0.02631  1.0000
  N   N148      1.0  0.53116  0.14706  0.04699  1.0000
  C   C2052     1.0  0.53051  0.15892  0.04910  1.0000
  C   C2053     1.0  0.53890  0.13793  0.05454  1.0000
  C   C2054     1.0  0.51882  0.14497  0.05063  1.0000
  C   C2055     1.0  0.53613  0.14739  0.03405  1.0000
  C   C2056     1.0  0.52199  0.16943  0.04309  1.0000
  C   C2057     1.0  0.55154  0.13945  0.05245  1.0000
  H   H3489     1.0  0.59592  0.02575  0.22018  1.0000
  H   H3490     1.0  0.52789  0.15878  0.05870  1.0000
  H   H3491     1.0  0.53926  0.16123  0.04594  1.0000
  C   C2058     1.0  0.50277  0.08026  0.02716  1.0000
  H   H3492     1.0  0.53479  0.13778  0.06401  1.0000
  H   H3493     1.0  0.51339  0.14945  0.05790  1.0000
  H   H3494     1.0  0.51419  0.14899  0.04330  1.0000
  H   H3495     1.0  0.52995  0.15369  0.02875  1.0000
  H   H3496     1.0  0.54435  0.15070  0.03098  1.0000
  H   H3497     1.0  0.52504  0.17122  0.03342  1.0000
  H   H3498     1.0  0.51283  0.16825  0.04552  1.0000
  H   H3499     1.0  0.52175  0.17747  0.04588  1.0000
  H   H3500     1.0  0.55176  0.14710  0.05558  1.0000
  H   H3501     1.0  0.55670  0.13156  0.05750  1.0000
  H   H3502     1.0  0.55619  0.14017  0.04313  1.0000
  H   H3503     1.0  0.54551  0.03092  0.23232  1.0000
  H   H3504     1.0  0.53846  0.02777  0.22301  1.0000
  S   S585      1.0  0.53897  0.10578  0.02964  1.0000
  N   N149      1.0  0.56299  0.06208  0.05800  1.0000
  C   C2059     1.0  0.56390  0.04896  0.06214  1.0000
  C   C2060     1.0  0.56420  0.06498  0.04486  1.0000
  C   C2061     1.0  0.55102  0.06826  0.06392  1.0000
  C   C2062     1.0  0.57263  0.06496  0.06146  1.0000
  C   C2063     1.0  0.56054  0.04427  0.07557  1.0000
  C   C2064     1.0  0.57615  0.05952  0.03764  1.0000
  C   C2065     1.0  0.54611  0.08107  0.05801  1.0000
  C   C2066     1.0  0.57433  0.07769  0.05697  1.0000
  H   H3505     1.0  0.55822  0.04607  0.05826  1.0000
  H   H3506     1.0  0.57300  0.04396  0.05913  1.0000
  H   H3507     1.0  0.56272  0.07456  0.04114  1.0000
  H   H3508     1.0  0.55724  0.06223  0.04265  1.0000
  H   H3509     1.0  0.54428  0.06342  0.06460  1.0000
  H   H3510     1.0  0.55086  0.06822  0.07314  1.0000
  H   H3511     1.0  0.57114  0.06324  0.07119  1.0000
  H   H3512     1.0  0.58129  0.05893  0.05893  1.0000
  H   H3513     1.0  0.55106  0.04751  0.07928  1.0000
  H   H3514     1.0  0.56203  0.03453  0.07738  1.0000
  H   H3515     1.0  0.56598  0.04630  0.08035  1.0000
  H   H3516     1.0  0.57794  0.04979  0.03961  1.0000
  H   H3517     1.0  0.57599  0.06258  0.02816  1.0000
  H   H3518     1.0  0.58348  0.06247  0.03884  1.0000
  H   H3519     1.0  0.53766  0.08458  0.06376  1.0000
  H   H3520     1.0  0.54399  0.08156  0.04957  1.0000
  H   H3521     1.0  0.55200  0.08700  0.05658  1.0000
  H   H3522     1.0  0.56899  0.08322  0.06336  1.0000
  H   H3523     1.0  0.57233  0.08198  0.04825  1.0000
  H   H3524     1.0  0.58374  0.07765  0.05577  1.0000
  C   C2067     1.0  0.58939  0.21450  0.03676  1.0000
  C   C2068     1.0  0.52607  0.04788  0.22712  1.0000
  C   C2069     1.0  0.53390  0.23252  0.00443  1.0000
  S   S586      1.0  0.57231  0.09158  0.02131  1.0000
  S   S587      1.0  0.51127  0.21143  0.00902  1.0000
  H   H3525     1.0  0.52936  0.16959  0.01203  1.0000
  C   C2070     1.0  0.53461  0.01417  0.17499  1.0000
  H   H3526     1.0  0.54733  0.00988  0.23516  1.0000
  C   C2071     1.0  0.59661  0.99619  0.22598  1.0000
  H   H3527     1.0  0.56130  0.13087  0.00448  1.0000
  H   H3528     1.0  0.54514  0.12872  0.03467  1.0000
  S   S588      1.0  0.51387  0.03782  0.20420  1.0000
  H   H3529     1.0  0.56498  0.01842  0.22947  1.0000
  H   H3530     1.0  0.59821  0.02480  0.23427  1.0000
  H   H3531     1.0  0.50818  0.13193  0.05591  1.0000
  C   C2072     1.0  0.53698  0.05552  0.01216  1.0000
  H   H3532     1.0  0.53974  0.04732  0.01854  1.0000
  Fe  Fe299     1.0  0.56755  0.16651  0.00968  1.0000
  H   H3533     1.0  0.55277  0.21286  0.03713  1.0000
  H   H3534     1.0  0.52044  0.22033  0.06724  1.0000
  H   H3535     1.0  0.51692  0.04271  0.03079  1.0000
  H   H3536     1.0  0.51783  0.02658  0.23088  1.0000
  C   C2073     1.0  0.50285  0.03189  0.13006  1.0000
  H   H3537     1.0  0.49724  0.03505  0.23955  1.0000
  Fe  Fe300     1.0  0.59316  0.16539  0.00705  1.0000
  H   H3538     1.0  0.54897  0.20546  0.01022  1.0000
  H   H3539     1.0  0.51392  0.20461  0.06555  1.0000
  N   N150      1.0  0.53361  0.03279  0.15835  1.0000
  C   C2074     1.0  0.52434  0.02975  0.15441  1.0000
  C   C2075     1.0  0.52751  0.04071  0.16692  1.0000
  C   C2076     1.0  0.54123  0.02195  0.16435  1.0000
  C   C2077     1.0  0.54131  0.03877  0.14766  1.0000
  C   C2078     1.0  0.54858  0.22799  0.02255  1.0000
  H   H3540     1.0  0.50850  0.01518  0.21415  1.0000
  H   H3541     1.0  0.49827  0.05387  0.04278  1.0000
  C   C2079     1.0  0.55114  0.04297  0.14998  1.0000
  H   H3542     1.0  0.51750  0.02673  0.16202  1.0000
  C   C2080     1.0  0.53763  0.02806  0.23228  1.0000
  H   H3543     1.0  0.53361  0.04131  0.17195  1.0000
  H   H3544     1.0  0.52056  0.03697  0.17382  1.0000
  H   H3545     1.0  0.52815  0.01091  0.17264  1.0000
  H   H3546     1.0  0.54768  0.02440  0.16762  1.0000
  H   H3547     1.0  0.54587  0.03273  0.14156  1.0000
  H   H3548     1.0  0.53608  0.04624  0.14220  1.0000
  H   H3549     1.0  0.54870  0.22701  0.04067  1.0000
  H   H3550     1.0  0.55862  0.99688  0.12445  1.0000
  C   C2081     1.0  0.53652  0.20889  0.02617  1.0000
  C   C2082     1.0  0.51454  0.07277  0.02147  1.0000
  C   C2083     1.0  0.50050  0.02068  0.13417  1.0000
  H   H3551     1.0  0.53206  0.22643  0.05788  1.0000
  H   H3552     1.0  0.61550  0.01366  0.22284  1.0000
  H   H3553     1.0  0.54101  0.00633  0.17847  1.0000
  C   C2084     1.0  0.52301  0.19947  0.00643  1.0000
  H   H3554     1.0  0.55913  0.03576  0.15053  1.0000
  H   H3555     1.0  0.54848  0.04640  0.15809  1.0000
  H   H3556     1.0  0.55343  0.05042  0.14272  1.0000
  H   H3557     1.0  0.51794  0.05462  0.22925  1.0000
  H   H3558     1.0  0.58788  0.23046  0.05910  1.0000
  C   C2085     1.0  0.60701  0.00780  0.20776  1.0000
  C   C2086     1.0  0.52877  0.02044  0.14679  1.0000
  H   H3559     1.0  0.56770  0.20408  0.00072  1.0000
  C   C2087     1.0  0.57494  0.10262  0.02630  1.0000
  H   H3560     1.0  0.49701  0.21553  0.04871  1.0000
  H   H3561     1.0  0.50472  0.17039  0.01744  1.0000
  C   C2088     1.0  0.53901  0.01525  0.23943  1.0000
  H   H3562     1.0  0.51925  0.12851  0.06412  1.0000
  H   H3563     1.0  0.61362  0.01335  0.20415  1.0000
  H   H3564     1.0  0.54482  0.04855  0.22020  1.0000
  H   H3565     1.0  0.50615  0.06402  0.99866  1.0000
  H   H3566     1.0  0.49650  0.07529  0.03354  1.0000
  H   H3567     1.0  0.50187  0.07699  0.00471  1.0000
  H   H3568     1.0  0.51025  0.12699  0.02655  1.0000
  S   S589      1.0  0.55348  0.16817  0.00043  1.0000
  H   H3569     1.0  0.53187  0.23800  0.99593  1.0000
  H   H3570     1.0  0.59923  0.99976  0.19864  1.0000
  H   H3571     1.0  0.52494  0.05134  0.03357  1.0000
  H   H3572     1.0  0.51362  0.23335  0.02611  1.0000
  H   H3573     1.0  0.50177  0.22415  0.07065  1.0000
  C   C2089     1.0  0.52544  0.22168  0.05803  1.0000
  H   H3574     1.0  0.53791  0.06318  0.01472  1.0000
  C   C2090     1.0  0.54362  0.19169  0.99844  1.0000
  H   H3575     1.0  0.53022  0.23831  0.01079  1.0000
  H   H3576     1.0  0.52297  0.22698  0.04056  1.0000
  H   H3577     1.0  0.52370  0.06348  0.00228  1.0000
  H   H3578     1.0  0.59148  0.11603  0.00711  1.0000
  H   H3579     1.0  0.53754  0.05584  0.23236  1.0000
  H   H3580     1.0  0.55153  0.23640  0.01884  1.0000
  H   H3581     1.0  0.57236  0.23659  0.05196  1.0000
  H   H3582     1.0  0.53073  0.13279  0.03133  1.0000
  C   C2091     1.0  0.57071  0.99338  0.14761  1.0000
  C   C2092     1.0  0.50615  0.20563  0.06207  1.0000
  H   H3583     1.0  0.63207  0.00038  0.21973  1.0000
  H   H3584     1.0  0.61166  0.00559  0.18974  1.0000
  H   H3585     1.0  0.50678  0.19712  0.05996  1.0000
  C   C2093     1.0  0.58861  0.23767  0.06254  1.0000
  C   C2094     1.0  0.49837  0.23032  0.06312  1.0000
  C   C2095     1.0  0.60801  0.00075  0.19864  1.0000
  H   H3586     1.0  0.49801  0.20707  0.06902  1.0000
  H   H3587     1.0  0.50342  0.05095  0.01783  1.0000
  H   H3588     1.0  0.53013  0.21303  0.05579  1.0000
  H   H3589     1.0  0.59806  0.23606  0.06261  1.0000
  S   S590      1.0  0.60510  0.23949  0.00115  1.0000
  H   H3590     1.0  0.60925  0.00459  0.23602  1.0000
  C   C2096     1.0  0.50026  0.03935  0.13784  1.0000
  S   S591      1.0  0.61006  0.16689  0.99379  1.0000
  C   C2097     1.0  0.63025  0.99487  0.21486  1.0000
  H   H3591     1.0  0.52098  0.99522  0.21632  1.0000
  C   C2098     1.0  0.50730  0.05370  0.04316  1.0000
  H   H3592     1.0  0.55224  0.19307  0.99361  1.0000
  C   C2099     1.0  0.50414  0.04016  0.23721  1.0000
  H   H3593     1.0  0.57589  0.11558  0.99822  1.0000
  C   C2100     1.0  0.49707  0.24282  0.06470  1.0000
  S   S592      1.0  0.53546  0.08355  0.99169  1.0000
  C   C2101     1.0  0.68607  0.00944  0.41238  1.0000
  H   H3594     1.0  0.60709  0.99670  0.36050  1.0000
  H   H3595     1.0  0.51884  0.00552  0.26459  1.0000
  H   H3596     1.0  0.73828  0.00249  0.40728  1.0000
  S   S593      1.0  0.55212  0.99361  0.35514  1.0000
  C   C2102     1.0  0.98035  0.14946  0.49013  1.0000
  H   H3597     1.0  0.52687  0.99877  0.36037  1.0000
  H   H3598     1.0  0.70957  0.99943  0.39666  1.0000
  Fe  Fe301     1.0  0.97587  0.20708  0.44935  1.0000
  H   H3599     1.0  0.98851  0.11718  0.46772  1.0000
  H   H3600     1.0  0.77802  0.03799  0.39954  1.0000
  H   H3601     1.0  0.50227  0.99982  0.29457  1.0000
  C   C2103     1.0  0.68906  0.00136  0.42243  1.0000
  H   H3602     1.0  0.63950  0.01765  0.43246  1.0000
  H   H3603     1.0  0.96257  0.15676  0.43064  1.0000
  H   H3604     1.0  0.78787  0.04224  0.41686  1.0000
  H   H3605     1.0  0.61214  0.02332  0.32354  1.0000
  H   H3606     1.0  0.96324  0.13883  0.47253  1.0000
  S   S594      1.0  0.91681  0.06113  0.47563  1.0000
  Fe  Fe302     1.0  0.73781  0.03457  0.43206  1.0000
  S   S595      1.0  0.74972  0.01812  0.43932  1.0000
  S   S596      1.0  0.74715  0.04944  0.42579  1.0000
  Fe  Fe303     1.0  0.71815  0.02185  0.43624  1.0000
  H   H3607     1.0  0.78676  0.01158  0.46618  1.0000
  S   S597      1.0  0.69942  0.02099  0.43782  1.0000
  Fe  Fe304     1.0  0.73398  0.01492  0.45331  1.0000
  C   C2104     1.0  0.60924  0.01062  0.36683  1.0000
  Fe  Fe305     1.0  0.74362  0.00977  0.42882  1.0000
  C   C2105     1.0  0.99591  0.13237  0.45639  1.0000
  S   S598      1.0  0.72224  0.03203  0.44698  1.0000
  S   S599      1.0  0.73249  0.02635  0.42044  1.0000
  Fe  Fe306     1.0  0.82659  0.03755  0.44870  1.0000
  S   S600      1.0  0.83463  0.02100  0.44188  1.0000
  S   S601      1.0  0.83600  0.04844  0.45366  1.0000
  Fe  Fe307     1.0  0.80134  0.03627  0.45060  1.0000
  S   S602      1.0  0.80712  0.01975  0.44393  1.0000
  S   S603      1.0  0.78212  0.04229  0.45852  1.0000
  Fe  Fe308     1.0  0.82009  0.01391  0.45533  1.0000
  H   H3608     1.0  0.87030  0.99427  0.46913  1.0000
  Fe  Fe309     1.0  0.82114  0.02804  0.43084  1.0000
  S   S604      1.0  0.82614  0.02514  0.41242  1.0000
  S   S605      1.0  0.81315  0.02970  0.46330  1.0000
  S   S606      1.0  0.81418  0.04544  0.43638  1.0000
  H   H3609     1.0  0.53542  0.00709  0.30804  1.0000
  H   H3610     1.0  0.65996  0.99466  0.45811  1.0000
  C   C2106     1.0  0.84032  0.01911  0.47728  1.0000
  H   H3611     1.0  0.90560  0.08044  0.43166  1.0000
  C   C2107     1.0  0.96277  0.15288  0.43977  1.0000
  Fe  Fe310     1.0  0.89578  0.03181  0.47292  1.0000
  H   H3612     1.0  0.77012  0.01944  0.42206  1.0000
  S   S607      1.0  0.88926  0.02993  0.45797  1.0000
  H   H3613     1.0  0.51442  0.05574  0.24724  1.0000
  C   C2108     1.0  0.61896  0.99774  0.33900  1.0000
  H   H3614     1.0  0.78654  0.01054  0.43377  1.0000
  H   H3615     1.0  0.82781  0.99513  0.39196  1.0000
  H   H3616     1.0  0.98290  0.14393  0.48354  1.0000
  C   C2109     1.0  0.92796  0.07604  0.47949  1.0000
  C   C2110     1.0  0.51854  0.01063  0.27071  1.0000
  S   S608      1.0  0.91513  0.03059  0.47041  1.0000
  H   H3617     1.0  0.94963  0.22735  0.46213  1.0000
  H   H3618     1.0  0.95232  0.23585  0.47728  1.0000
  C   C2111     1.0  0.78251  0.00421  0.47141  1.0000
  H   H3619     1.0  0.87622  0.00259  0.47991  1.0000
  C   C2112     1.0  0.57684  0.01589  0.31308  1.0000
  S   S609      1.0  0.97136  0.09322  0.48524  1.0000
  H   H3620     1.0  0.77378  0.02039  0.44006  1.0000
  C   C2113     1.0  0.65468  0.03071  0.44376  1.0000
  H   H3621     1.0  0.63656  0.02121  0.45101  1.0000
  H   H3622     1.0  0.67427  0.01330  0.44568  1.0000
  C   C2114     1.0  0.99568  0.14752  0.43247  1.0000
  H   H3623     1.0  0.50147  0.04614  0.24333  1.0000
  C   C2115     1.0  0.96288  0.15986  0.44712  1.0000
  H   H3624     1.0  0.92439  0.08237  0.47242  1.0000
  H   H3625     1.0  0.64633  0.03574  0.44102  1.0000
  Fe  Fe311     1.0  0.91347  0.01759  0.48768  1.0000
  H   H3626     1.0  0.85563  0.00664  0.41004  1.0000
  H   H3627     1.0  0.79057  0.03034  0.48399  1.0000
  Fe  Fe312     1.0  0.96236  0.11220  0.47986  1.0000
  H   H3628     1.0  0.96184  0.21598  0.48524  1.0000
  H   H3629     1.0  0.67235  0.99451  0.46296  1.0000
  C   C2116     1.0  0.96303  0.15475  0.45897  1.0000
  S   S610      1.0  0.96295  0.17482  0.44100  1.0000
  H   H3630     1.0  0.78727  0.01657  0.48561  1.0000
  C   C2117     1.0  0.81435  0.00323  0.48513  1.0000
  H   H3631     1.0  0.63192  0.01259  0.32381  1.0000
  S   S611      1.0  0.92735  0.00086  0.49029  1.0000
  C   C2118     1.0  0.77720  0.02399  0.42098  1.0000
  H   H3632     1.0  0.99087  0.11706  0.42837  1.0000
  H   H3633     1.0  0.81919  0.00996  0.48069  1.0000
  H   H3634     1.0  0.94103  0.22794  0.48208  1.0000
  H   H3635     1.0  0.98562  0.12771  0.44253  1.0000
  C   C2119     1.0  0.82264  0.00272  0.42219  1.0000
  C   C2120     1.0  0.85059  0.04259  0.45546  1.0000
  C   C2121     1.0  0.85824  0.03416  0.44935  1.0000
  C   C2122     1.0  0.87005  0.03024  0.45032  1.0000
  C   C2123     1.0  0.87421  0.03450  0.45762  1.0000
  C   C2124     1.0  0.86647  0.04262  0.46404  1.0000
  C   C2125     1.0  0.85474  0.04679  0.46281  1.0000
  H   H3636     1.0  0.85516  0.03097  0.44357  1.0000
  H   H3637     1.0  0.87602  0.02399  0.44531  1.0000
  H   H3638     1.0  0.86958  0.04592  0.46973  1.0000
  H   H3639     1.0  0.84889  0.05333  0.46752  1.0000
  C   C2126     1.0  0.78542  0.99492  0.46398  1.0000
  H   H3640     1.0  0.79732  0.07810  0.48240  1.0000
  C   C2127     1.0  0.91494  0.06875  0.41978  1.0000
  H   H3641     1.0  0.82937  0.01473  0.39298  1.0000
  C   C2128     1.0  0.75654  0.04797  0.43508  1.0000
  C   C2129     1.0  0.75445  0.04154  0.44669  1.0000
  C   C2130     1.0  0.76235  0.03981  0.45381  1.0000
  C   C2131     1.0  0.77250  0.04432  0.44932  1.0000
  C   C2132     1.0  0.77462  0.05076  0.43773  1.0000
  C   C2133     1.0  0.76654  0.05275  0.43069  1.0000
  H   H3642     1.0  0.74665  0.03800  0.45024  1.0000
  H   H3643     1.0  0.76063  0.03484  0.46276  1.0000
  H   H3644     1.0  0.78236  0.05441  0.43427  1.0000
  H   H3645     1.0  0.76815  0.05781  0.42175  1.0000
  C   C2134     1.0  0.94325  0.23633  0.47662  1.0000
  H   H3646     1.0  0.66627  0.01437  0.42937  1.0000
  C   C2135     1.0  0.69359  0.02383  0.41689  1.0000
  C   C2136     1.0  0.69623  0.01591  0.42712  1.0000
  C   C2137     1.0  0.69411  0.00461  0.42979  1.0000
  S   S612      1.0  0.98487  0.18899  0.44641  1.0000
  S   S613      1.0  0.58247  0.02155  0.26125  1.0000
  H   H3647     1.0  0.69492  0.03266  0.41492  1.0000
  C   C2138     1.0  0.90599  0.05093  0.44295  1.0000
  H   H3648     1.0  0.99216  0.11416  0.45012  1.0000
  H   H3649     1.0  0.74918  0.99897  0.38949  1.0000
  H   H3650     1.0  0.98261  0.15795  0.48507  1.0000
  C   C2139     1.0  0.50812  0.02627  0.28112  1.0000
  C   C2140     1.0  0.51809  0.02492  0.28536  1.0000
  C   C2141     1.0  0.52819  0.01622  0.28251  1.0000
  C   C2142     1.0  0.52841  0.00905  0.27518  1.0000
  Fe  Fe313     1.0  0.56817  0.02532  0.25146  1.0000
  C   C2143     1.0  0.50833  0.01905  0.27386  1.0000
  H   H3651     1.0  0.51801  0.03057  0.29087  1.0000
  H   H3652     1.0  0.96291  0.16009  0.46475  1.0000
  H   H3653     1.0  0.77076  0.01513  0.40252  1.0000
  H   H3654     1.0  0.85593  0.01206  0.46537  1.0000
  H   H3655     1.0  0.94786  0.24280  0.45728  1.0000
  C   C2144     1.0  0.82628  0.99726  0.40041  1.0000
  H   H3656     1.0  0.65778  0.00392  0.43714  1.0000
  H   H3657     1.0  0.71434  0.00213  0.48735  1.0000
  H   H3658     1.0  0.70691  0.99405  0.46922  1.0000
  H   H3659     1.0  0.72039  0.99773  0.46808  1.0000
  H   H3660     1.0  0.52715  0.03007  0.25480  1.0000
  C   C2145     1.0  0.58503  0.00774  0.31918  1.0000
  N   N151      1.0  0.85323  0.99806  0.48084  1.0000
  H   H3661     1.0  0.53722  0.02285  0.31261  1.0000
  C   C2146     1.0  0.68765  0.99916  0.48592  1.0000
  C   C2147     1.0  0.72120  0.02657  0.47960  1.0000
  C   C2148     1.0  0.73064  0.01698  0.48144  1.0000
  H   H3662     1.0  0.57115  0.99377  0.31629  1.0000
  Fe  Fe314     1.0  0.58304  0.00268  0.26256  1.0000
  H   H3663     1.0  0.62173  0.99582  0.36120  1.0000
  H   H3664     1.0  0.71823  0.02894  0.47153  1.0000
  H   H3665     1.0  0.91812  0.07683  0.45145  1.0000
  H   H3666     1.0  0.92004  0.04568  0.42785  1.0000
  C   C2149     1.0  0.60446  0.02037  0.32981  1.0000
  C   C2150     1.0  0.79871  0.06833  0.48486  1.0000
  H   H3667     1.0  0.76972  0.02628  0.38971  1.0000
  C   C2151     1.0  0.78114  0.02844  0.39959  1.0000
  Fe  Fe315     1.0  0.56809  0.01973  0.27753  1.0000
  H   H3668     1.0  0.59757  0.01366  0.34783  1.0000
  C   C2152     1.0  0.64243  0.01555  0.46720  1.0000
  H   H3669     1.0  0.88309  0.07386  0.44563  1.0000
  C   C2153     1.0  0.66600  0.01139  0.45180  1.0000
  S   S614      1.0  0.97642  0.20228  0.46831  1.0000
  C   C2154     1.0  0.72365  0.01141  0.39899  1.0000
  H   H3670     1.0  0.50960  0.04391  0.25885  1.0000
  H   H3671     1.0  0.83337  0.01641  0.48487  1.0000
  H   H3672     1.0  0.78779  0.02816  0.39115  1.0000
  C   C2155     1.0  0.57795  0.01641  0.30116  1.0000
  C   C2156     1.0  0.92369  0.07253  0.44418  1.0000
  H   H3673     1.0  0.59671  0.02784  0.32900  1.0000
  C   C2157     1.0  0.79049  0.00893  0.41059  1.0000
  H   H3674     1.0  0.52629  0.00268  0.32760  1.0000
  H   H3675     1.0  0.67391  0.99383  0.44786  1.0000
  H   H3676     1.0  0.50336  0.99559  0.30955  1.0000
  Fe  Fe316     1.0  0.95881  0.19830  0.47114  1.0000
  H   H3677     1.0  0.53971  0.01460  0.24849  1.0000
  C   C2158     1.0  0.99346  0.12337  0.46810  1.0000
  H   H3678     1.0  0.78301  0.00445  0.41427  1.0000
  H   H3679     1.0  0.64743  0.02924  0.42489  1.0000
  S   S615      1.0  0.56666  0.02529  0.29409  1.0000
  H   H3680     1.0  0.70503  0.01148  0.47806  1.0000
  H   H3681     1.0  0.67332  0.03193  0.43712  1.0000
  H   H3682     1.0  0.51483  0.02500  0.24637  1.0000
  C   C2159     1.0  0.79706  0.00533  0.39883  1.0000
  H   H3683     1.0  0.80375  0.02521  0.40107  1.0000
  H   H3684     1.0  0.53579  0.04025  0.24764  1.0000
  H   H3685     1.0  0.54352  0.02682  0.32205  1.0000
  C   C2160     1.0  0.96313  0.14271  0.46340  1.0000
  H   H3686     1.0  0.55180  0.00656  0.33059  1.0000
  C   C2161     1.0  0.79459  0.03980  0.40914  1.0000
  H   H3687     1.0  0.88085  0.07178  0.46115  1.0000
  H   H3688     1.0  0.72446  0.00190  0.41643  1.0000
  C   C2162     1.0  0.77028  0.02462  0.39901  1.0000
  H   H3689     1.0  0.80437  0.00981  0.39424  1.0000
  C   C2163     1.0  0.94384  0.23587  0.46388  1.0000
  C   C2164     1.0  0.66481  0.03541  0.43439  1.0000
  H   H3690     1.0  0.74670  0.03149  0.48501  1.0000
  H   H3691     1.0  0.86978  0.01122  0.49073  1.0000
  H   H3692     1.0  0.70791  0.04021  0.48716  1.0000
  H   H3693     1.0  0.99084  0.22197  0.47849  1.0000
  N   N152      1.0  0.65563  0.01764  0.44623  1.0000
  H   H3694     1.0  0.84604  0.00228  0.42404  1.0000
  H   H3695     1.0  0.61572  0.01575  0.36605  1.0000
  H   H3696     1.0  0.53581  0.01509  0.28593  1.0000
  H   H3697     1.0  0.62455  0.02039  0.34725  1.0000
  S   S616      1.0  0.89459  0.01786  0.48949  1.0000
  H   H3698     1.0  0.83506  0.06497  0.48343  1.0000
  C   C2165     1.0  0.64427  0.01503  0.45425  1.0000
  H   H3699     1.0  0.86546  0.01622  0.47701  1.0000
  H   H3700     1.0  0.71401  0.01358  0.40246  1.0000
  S   S617      1.0  0.89050  0.04684  0.48204  1.0000
  Fe  Fe317     1.0  0.96679  0.18546  0.45137  1.0000
  H   H3701     1.0  0.65422  0.03346  0.45191  1.0000
  H   H3702     1.0  0.49690  0.02923  0.34008  1.0000
  C   C2166     1.0  0.74703  0.03951  0.48737  1.0000
  H   H3703     1.0  0.50074  0.02015  0.27041  1.0000
  H   H3704     1.0  0.56938  0.02147  0.31771  1.0000
  C   C2167     1.0  0.85798  0.00146  0.48931  1.0000
  H   H3705     1.0  0.93283  0.07024  0.44547  1.0000
  H   H3706     1.0  0.60521  0.02489  0.34542  1.0000
  N   N153      1.0  0.81169  0.06263  0.48219  1.0000
  C   C2168     1.0  0.81758  0.07019  0.47123  1.0000
  H   H3707     1.0  0.83592  0.02547  0.47046  1.0000
  H   H3708     1.0  0.78336  0.99992  0.45537  1.0000
  C   C2169     1.0  0.81366  0.05062  0.47980  1.0000
  C   C2170     1.0  0.81203  0.07349  0.46042  1.0000
  H   H3709     1.0  0.52061  0.05072  0.25965  1.0000
  C   C2171     1.0  0.66816  0.99784  0.45529  1.0000
  H   H3710     1.0  0.64194  0.01672  0.32893  1.0000
  H   H3711     1.0  0.81778  0.07860  0.47308  1.0000
  H   H3712     1.0  0.82694  0.06578  0.46824  1.0000
  C   C2172     1.0  0.71533  0.03292  0.48847  1.0000
  H   H3713     1.0  0.80282  0.04182  0.40953  1.0000
  H   H3714     1.0  0.81286  0.03253  0.48839  1.0000
  H   H3715     1.0  0.64322  0.02410  0.46810  1.0000
  H   H3716     1.0  0.81005  0.05127  0.47216  1.0000
  H   H3717     1.0  0.82314  0.04661  0.47699  1.0000
  H   H3718     1.0  0.80283  0.07868  0.46206  1.0000
  H   H3719     1.0  0.81718  0.07906  0.45309  1.0000
  H   H3720     1.0  0.81243  0.06571  0.45715  1.0000
  H   H3721     1.0  0.65089  0.01615  0.41959  1.0000
  H   H3722     1.0  0.75268  0.04446  0.47993  1.0000
  H   H3723     1.0  0.77012  0.02949  0.48127  1.0000
  H   H3724     1.0  0.79866  0.04274  0.48965  1.0000
  H   H3725     1.0  0.58382  0.00707  0.32848  1.0000
  H   H3726     1.0  0.69591  0.99853  0.43781  1.0000
  H   H3727     1.0  0.84359  0.00634  0.46702  1.0000
  C   C2173     1.0  0.61380  0.00201  0.35843  1.0000
  H   H3728     1.0  0.83402  0.04978  0.48678  1.0000
  H   H3729     1.0  0.92409  0.06491  0.42077  1.0000
  H   H3730     1.0  0.66562  0.01481  0.45953  1.0000
  H   H3731     1.0  0.91534  0.07719  0.41326  1.0000
  C   C2174     1.0  0.97689  0.23593  0.44280  1.0000
  C   C2175     1.0  0.92585  0.06464  0.48278  1.0000
  S   S618      1.0  0.94475  0.20355  0.48640  1.0000
  H   H3732     1.0  0.96293  0.15539  0.48624  1.0000
  C   C2176     1.0  0.86789  0.00825  0.48374  1.0000
  C   C2177     1.0  0.53963  0.01991  0.32128  1.0000
  Fe  Fe318     1.0  0.98374  0.18387  0.46581  1.0000
  S   S619      1.0  0.72901  0.00452  0.44363  1.0000
  C   C2178     1.0  0.70723  0.00231  0.48326  1.0000
  S   S620      1.0  0.95770  0.20428  0.45222  1.0000
  H   H3733     1.0  0.66933  0.99960  0.48713  1.0000
  H   H3734     1.0  0.79650  0.00470  0.41677  1.0000
  Fe  Fe319     1.0  0.90981  0.04440  0.48117  1.0000
  H   H3735     1.0  0.77150  0.04053  0.48702  1.0000
  H   H3736     1.0  0.73796  0.04513  0.48839  1.0000
  H   H3737     1.0  0.80091  0.99571  0.40057  1.0000
  C   C2179     1.0  0.72965  0.00094  0.40746  1.0000
  C   C2180     1.0  0.59475  0.00057  0.31324  1.0000
  S   S621      1.0  0.75756  0.99831  0.41789  1.0000
  H   H3738     1.0  0.66290  0.04511  0.43323  1.0000
  H   H3739     1.0  0.97488  0.22745  0.46113  1.0000
  H   H3740     1.0  0.79208  0.04548  0.40095  1.0000
  H   H3741     1.0  0.99114  0.15244  0.43955  1.0000
  C   C2181     1.0  0.62694  0.01282  0.34293  1.0000
  H   H3742     1.0  0.63341  0.01443  0.47193  1.0000
  H   H3743     1.0  0.91294  0.03439  0.43726  1.0000
  H   H3744     1.0  0.60388  0.99633  0.29646  1.0000
  H   H3745     1.0  0.66574  0.03365  0.42566  1.0000
  C   C2182     1.0  0.64820  0.01962  0.42773  1.0000
  H   H3746     1.0  0.91210  0.06296  0.41600  1.0000
  S   S622      1.0  0.96626  0.17930  0.47064  1.0000
  C   C2183     1.0  0.90616  0.07126  0.43122  1.0000
  C   C2184     1.0  0.83071  0.05814  0.48982  1.0000
  H   H3747     1.0  0.98790  0.12817  0.47497  1.0000
  C   C2185     1.0  0.68864  0.02056  0.40950  1.0000
  S   S623      1.0  0.98244  0.22287  0.43753  1.0000
  C   C2186     1.0  0.96328  0.13573  0.45591  1.0000
  C   C2187     1.0  0.59625  0.00162  0.30116  1.0000
  C   C2188     1.0  0.84860  0.00870  0.47209  1.0000
  H   H3748     1.0  0.84525  0.02390  0.47995  1.0000
  H   H3749     1.0  0.76206  0.02954  0.40397  1.0000
  C   C2189     1.0  0.65755  0.01349  0.43512  1.0000
  C   C2190     1.0  0.99434  0.12166  0.44287  1.0000
  H   H3750     1.0  0.64860  0.00826  0.47172  1.0000
  C   C2191     1.0  0.51729  0.04768  0.25365  1.0000
  H   H3751     1.0  0.53167  0.01955  0.32848  1.0000
  H   H3752     1.0  0.68635  0.02684  0.40176  1.0000
  C   C2192     1.0  0.93453  0.07939  0.48539  1.0000
  H   H3753     1.0  0.78618  0.00060  0.47938  1.0000
  H   H3754     1.0  0.55046  0.00305  0.30238  1.0000
  H   H3755     1.0  0.90354  0.04622  0.45224  1.0000
  H   H3756     1.0  0.60774  0.00544  0.37602  1.0000
  C   C2193     1.0  0.78150  0.01979  0.43255  1.0000
  H   H3757     1.0  0.98919  0.14450  0.42987  1.0000
  C   C2194     1.0  0.91627  0.04206  0.43711  1.0000
  S   S624      1.0  0.64916  0.99480  0.41279  1.0000
  H   H3758     1.0  0.62826  0.02699  0.32708  1.0000
  H   H3759     1.0  0.58874  0.00979  0.28595  1.0000
  S   S625      1.0  0.96488  0.12038  0.46052  1.0000
  S   S626      1.0  0.54111  0.99839  0.27132  1.0000
  C   C2195     1.0  0.52720  0.03840  0.24807  1.0000
  H   H3760     1.0  0.92355  0.07885  0.43562  1.0000
  C   C2196     1.0  0.96302  0.14088  0.44412  1.0000
  C   C2197     1.0  0.77184  0.03092  0.48924  1.0000
  H   H3761     1.0  0.77267  0.03343  0.42018  1.0000
  C   C2198     1.0  0.88630  0.06807  0.45343  1.0000
  H   H3762     1.0  0.53433  0.99897  0.33873  1.0000
  C   C2199     1.0  0.60575  0.01670  0.34268  1.0000
  H   H3763     1.0  0.63412  0.00664  0.34707  1.0000
  H   H3764     1.0  0.98721  0.13807  0.45515  1.0000
  H   H3765     1.0  0.72710  0.01922  0.39809  1.0000
  H   H3766     1.0  0.96309  0.13555  0.43830  1.0000
  C   C2200     1.0  0.82540  0.01108  0.41188  1.0000
  H   H3767     1.0  0.60267  0.01318  0.32711  1.0000
  C   C2201     1.0  0.82723  0.00831  0.40099  1.0000
  H   H3768     1.0  0.89835  0.05206  0.43908  1.0000
  H   H3769     1.0  0.77294  0.00802  0.47377  1.0000
  H   H3770     1.0  0.99123  0.23511  0.41152  1.0000
  S   S627      1.0  0.82252  0.99517  0.46492  1.0000
  H   H3771     1.0  0.62013  0.00104  0.32937  1.0000
  S   S628      1.0  0.67865  0.00622  0.40354  1.0000
  S   S629      1.0  0.55365  0.02552  0.26763  1.0000
  S   S630      1.0  0.73761  0.00800  0.47128  1.0000
  H   H3772     1.0  0.50553  0.01401  0.31799  1.0000
  H   H3773     1.0  0.90142  0.06232  0.46110  1.0000
  H   H3774     1.0  0.92329  0.03856  0.44218  1.0000
  C   C2202     1.0  0.53407  0.99646  0.33068  1.0000
  C   C2203     1.0  0.58771  0.00931  0.29519  1.0000
  H   H3775     1.0  0.93598  0.08823  0.48284  1.0000
  Fe  Fe320     1.0  0.55651  0.00633  0.26834  1.0000
  N   N154      1.0  0.61651  0.00745  0.34544  1.0000
  H   H3776     1.0  0.55662  0.00987  0.31507  1.0000
  N   N155      1.0  0.54524  0.99761  0.32145  1.0000
  H   H3777     1.0  0.88459  0.05921  0.45496  1.0000
  N   N156      1.0  0.78646  0.02201  0.41006  1.0000
  H   H3778     1.0  0.99130  0.23462  0.46682  1.0000
  H   H3779     1.0  0.76399  0.99769  0.46380  1.0000
  C   C2204     1.0  0.89936  0.06758  0.45254  1.0000
  H   H3780     1.0  0.92147  0.23723  0.48289  1.0000
  H   H3781     1.0  0.80145  0.02167  0.41653  1.0000
  H   H3782     1.0  0.92120  0.05507  0.45308  1.0000
  N   N157      1.0  0.90815  0.06270  0.44251  1.0000
  H   H3783     1.0  0.78685  0.02556  0.43307  1.0000
  C   C2205     1.0  0.79699  0.02663  0.40920  1.0000
  H   H3784     1.0  0.92729  0.05683  0.43796  1.0000
  S   S631      1.0  0.56998  0.00651  0.25144  1.0000
  C   C2206     1.0  0.63238  0.01756  0.32994  1.0000
  H   H3785     1.0  0.72548  0.01015  0.38995  1.0000
  S   S632      1.0  0.56971  0.00049  0.27959  1.0000
  H   H3786     1.0  0.79404  0.06601  0.47944  1.0000
  H   H3787     1.0  0.49816  0.03397  0.30743  1.0000
  H   H3788     1.0  0.89737  0.07170  0.42983  1.0000
  H   H3789     1.0  0.68797  0.00612  0.47766  1.0000
  C   C2207     1.0  0.92027  0.06116  0.44447  1.0000
  H   H3790     1.0  0.89983  0.07669  0.45214  1.0000
  C   C2208     1.0  0.71299  0.99426  0.47440  1.0000
  H   H3791     1.0  0.82164  0.00456  0.43063  1.0000
  H   H3792     1.0  0.64329  0.00627  0.45415  1.0000
  H   H3793     1.0  0.60066  0.01658  0.36566  1.0000
  C   C2209     1.0  0.97395  0.23573  0.45485  1.0000
  C   C2210     1.0  0.81461  0.99466  0.47941  1.0000
  H   H3794     1.0  0.85215  0.03381  0.48924  1.0000
  C   C2211     1.0  0.54892  0.00817  0.32222  1.0000
  H   H3795     1.0  0.50269  0.03402  0.31992  1.0000
  H   H3796     1.0  0.85660  0.01027  0.42276  1.0000
  H   H3797     1.0  0.79100  0.00707  0.39292  1.0000
  H   H3798     1.0  0.93513  0.23624  0.46245  1.0000
  C   C2212     1.0  0.85510  0.00319  0.41961  1.0000
  C   C2213     1.0  0.54319  0.99974  0.30928  1.0000
  C   C2214     1.0  0.80805  0.04151  0.48965  1.0000
  C   C2215     1.0  0.78471  0.02440  0.48946  1.0000
  H   H3799     1.0  0.62781  0.99349  0.47000  1.0000
  H   H3800     1.0  0.61122  0.99367  0.34155  1.0000
  H   H3801     1.0  0.49629  0.05306  0.29949  1.0000
  C   C2216     1.0  0.49632  0.01871  0.32102  1.0000
  H   H3802     1.0  0.76274  0.99339  0.47919  1.0000
  S   S633      1.0  0.58507  0.99357  0.35236  1.0000
  H   H3803     1.0  0.75950  0.01556  0.49137  1.0000
  H   H3804     1.0  0.52791  0.01142  0.63506  1.0000
  H   H3805     1.0  0.53015  0.02142  0.67078  1.0000
  H   H3806     1.0  0.68326  0.00798  0.50542  1.0000
  C   C2217     1.0  0.95303  0.20246  0.49641  1.0000
  C   C2218     1.0  0.84346  0.02964  0.50750  1.0000
  H   H3807     1.0  0.92349  0.14221  0.56896  1.0000
  Fe  Fe321     1.0  0.95212  0.11507  0.50501  1.0000
  S   S634      1.0  0.50455  0.01046  0.70135  1.0000
  H   H3808     1.0  0.87315  0.06340  0.52107  1.0000
  H   H3809     1.0  0.52495  0.03470  0.64980  1.0000
  H   H3810     1.0  0.96309  0.15806  0.49985  1.0000
  H   H3811     1.0  0.94722  0.22859  0.54809  1.0000
  H   H3812     1.0  0.75781  0.02541  0.51881  1.0000
  C   C2219     1.0  0.79187  0.06571  0.49779  1.0000
  C   C2220     1.0  0.63524  0.02396  0.56627  1.0000
  H   H3813     1.0  0.78681  0.02183  0.49821  1.0000
  H   H3814     1.0  0.66014  0.03547  0.53946  1.0000
  H   H3815     1.0  0.49928  0.01103  0.61067  1.0000
  S   S635      1.0  0.58612  0.99937  0.58677  1.0000
  H   H3816     1.0  0.70883  0.00941  0.50264  1.0000
  H   H3817     1.0  0.69031  0.01752  0.49355  1.0000
  H   H3818     1.0  0.81369  0.05634  0.50035  1.0000
  S   S636      1.0  0.81958  0.00122  0.52493  1.0000
  S   S637      1.0  0.58924  0.99706  0.68726  1.0000
  H   H3819     1.0  0.77585  0.03181  0.58653  1.0000
  C   C2221     1.0  0.84431  0.02819  0.51909  1.0000
  Fe  Fe322     1.0  0.58541  0.01288  0.69495  1.0000
  S   S638      1.0  0.56701  0.01157  0.70445  1.0000
  S   S639      1.0  0.59847  0.01550  0.70332  1.0000
  Fe  Fe323     1.0  0.58249  0.00984  0.67208  1.0000
  S   S640      1.0  0.56377  0.00859  0.67952  1.0000
  S   S641      1.0  0.58986  0.00786  0.65341  1.0000
  Fe  Fe324     1.0  0.56214  0.02324  0.68792  1.0000
  S   S642      1.0  0.54543  0.03706  0.68911  1.0000
  Fe  Fe325     1.0  0.57023  0.99702  0.69524  1.0000
  C   C2222     1.0  0.57378  0.05095  0.70911  1.0000
  S   S643      1.0  0.58031  0.02587  0.67895  1.0000
  H   H3820     1.0  0.56048  0.99932  0.72798  1.0000
  H   H3821     1.0  0.54324  0.00311  0.67110  1.0000
  H   H3822     1.0  0.89889  0.08071  0.50865  1.0000
  H   H3823     1.0  0.94120  0.22655  0.50100  1.0000
  Fe  Fe326     1.0  0.72380  0.01895  0.54982  1.0000
  S   S644      1.0  0.72929  0.02640  0.56184  1.0000
  Fe  Fe327     1.0  0.97624  0.09934  0.49865  1.0000
  H   H3824     1.0  0.94363  0.14709  0.59615  1.0000
  Fe  Fe328     1.0  0.97643  0.15515  0.54532  1.0000
  C   C2223     1.0  0.96993  0.20668  0.49979  1.0000
  S   S645      1.0  0.97538  0.13731  0.54402  1.0000
  Fe  Fe329     1.0  0.96923  0.17447  0.55923  1.0000
  H   H3825     1.0  0.63721  0.99947  0.57330  1.0000
  S   S646      1.0  0.95609  0.18179  0.57415  1.0000
  Fe  Fe330     1.0  0.81229  0.00472  0.54309  1.0000
  S   S647      1.0  0.65875  0.00821  0.52075  1.0000
  H   H3826     1.0  0.92800  0.14871  0.58419  1.0000
  Fe  Fe331     1.0  0.70618  0.00634  0.54858  1.0000
  S   S648      1.0  0.96354  0.17267  0.54388  1.0000
  S   S649      1.0  0.98073  0.15621  0.56176  1.0000
  Fe  Fe332     1.0  0.79358  0.02569  0.53585  1.0000
  S   S650      1.0  0.77896  0.03948  0.54318  1.0000
  H   H3827     1.0  0.75211  0.04564  0.49949  1.0000
  H   H3828     1.0  0.50651  0.00558  0.73826  1.0000
  H   H3829     1.0  0.51738  0.01682  0.67228  1.0000
  N   N158      1.0  0.63725  0.02093  0.55456  1.0000
  S   S651      1.0  0.81192  0.02398  0.53747  1.0000
  H   H3830     1.0  0.97912  0.16819  0.51292  1.0000
  C   C2224     1.0  0.75120  0.03700  0.49890  1.0000
  S   S652      1.0  0.94302  0.12902  0.51569  1.0000
  H   H3831     1.0  0.75484  0.03380  0.58773  1.0000
  S   S653      1.0  0.52458  0.00654  0.60447  1.0000
  C   C2225     1.0  0.76097  0.02501  0.58841  1.0000
  H   H3832     1.0  0.93936  0.16246  0.57717  1.0000
  S   S654      1.0  0.94488  0.11052  0.49206  1.0000
  H   H3833     1.0  0.53760  0.02147  0.64165  1.0000
  C   C2226     1.0  0.77203  0.00558  0.57157  1.0000
  S   S655      1.0  0.95998  0.09629  0.51239  1.0000
  H   H3834     1.0  0.96439  0.13851  0.56861  1.0000
  C   C2227     1.0  0.98288  0.16406  0.50520  1.0000
  Fe  Fe333     1.0  0.97936  0.17983  0.53333  1.0000
  N   N159      1.0  0.93101  0.22833  0.57705  1.0000
  C   C2228     1.0  0.77344  0.02658  0.58171  1.0000
  H   H3835     1.0  0.85507  0.02870  0.53029  1.0000
  H   H3836     1.0  0.93376  0.16206  0.54884  1.0000
  H   H3837     1.0  0.77351  0.00416  0.59481  1.0000
  C   C2229     1.0  0.94469  0.14954  0.56036  1.0000
  C   C2230     1.0  0.72836  0.02012  0.50084  1.0000
  S   S656      1.0  0.90976  0.03125  0.49830  1.0000
  H   H3838     1.0  0.78238  0.06979  0.49820  1.0000
  S   S657      1.0  0.96870  0.22047  0.59144  1.0000
  H   H3839     1.0  0.93918  0.24260  0.57556  1.0000
  H   H3840     1.0  0.64362  0.02185  0.56925  1.0000
  H   H3841     1.0  0.95905  0.14706  0.58944  1.0000
  C   C2231     1.0  0.54124  0.01446  0.64858  1.0000
  C   C2232     1.0  0.94163  0.23317  0.55515  1.0000
  H   H3842     1.0  0.96374  0.14339  0.49851  1.0000
  C   C2233     1.0  0.93464  0.14120  0.58093  1.0000
  C   C2234     1.0  0.95674  0.12415  0.56989  1.0000
  H   H3843     1.0  0.62950  0.00962  0.54083  1.0000
  H   H3844     1.0  0.54054  0.07033  0.69480  1.0000
  S   S658      1.0  0.71443  0.00537  0.52994  1.0000
  H   H3845     1.0  0.89713  0.04066  0.53551  1.0000
  H   H3846     1.0  0.98643  0.12677  0.49802  1.0000
  C   C2235     1.0  0.52242  0.03617  0.69267  1.0000
  S   S659      1.0  0.73360  0.01917  0.53115  1.0000
  Fe  Fe334     1.0  0.81743  0.02076  0.51923  1.0000
  H   H3847     1.0  0.88470  0.07521  0.52447  1.0000
  H   H3848     1.0  0.78312  0.00998  0.59877  1.0000
  C   C2236     1.0  0.93058  0.05655  0.49191  1.0000
  C   C2237     1.0  0.88840  0.06554  0.52615  1.0000
  H   H3849     1.0  0.55646  0.06497  0.72167  1.0000
  H   H3850     1.0  0.52612  0.01270  0.72352  1.0000
  H   H3851     1.0  0.67106  0.01056  0.49325  1.0000
  C   C2238     1.0  0.86376  0.03256  0.51201  1.0000
  H   H3852     1.0  0.57944  0.05437  0.68970  1.0000
  H   H3853     1.0  0.62057  0.03189  0.55110  1.0000
  C   C2239     1.0  0.65493  0.03090  0.54764  1.0000
  C   C2240     1.0  0.76831  0.03848  0.51213  1.0000
  C   C2241     1.0  0.93903  0.07139  0.49471  1.0000
  H   H3854     1.0  0.50257  0.03567  0.72002  1.0000
  H   H3855     1.0  0.93843  0.16877  0.55752  1.0000
  H   H3856     1.0  0.97578  0.13196  0.50976  1.0000
  C   C2242     1.0  0.96012  0.19248  0.57856  1.0000
  C   C2243     1.0  0.95715  0.19278  0.59047  1.0000
  C   C2244     1.0  0.96002  0.20129  0.59425  1.0000
  C   C2245     1.0  0.96560  0.20981  0.58614  1.0000
  C   C2246     1.0  0.96839  0.20971  0.57415  1.0000
  C   C2247     1.0  0.96575  0.20097  0.57038  1.0000
  H   H3857     1.0  0.95277  0.18630  0.59685  1.0000
  H   H3858     1.0  0.95786  0.20130  0.60353  1.0000
  H   H3859     1.0  0.97269  0.21627  0.56785  1.0000
  H   H3860     1.0  0.96779  0.20095  0.56114  1.0000
  C   C2248     1.0  0.51475  0.99807  0.60518  1.0000
  C   C2249     1.0  0.98786  0.21381  0.54328  1.0000
  H   H3861     1.0  0.99160  0.12775  0.52124  1.0000
  H   H3862     1.0  0.79074  0.00455  0.56749  1.0000
  H   H3863     1.0  0.54554  0.05697  0.72523  1.0000
  C   C2250     1.0  0.96988  0.19750  0.50972  1.0000
  H   H3864     1.0  0.94053  0.05367  0.50505  1.0000
  H   H3865     1.0  0.56063  0.03802  0.70332  1.0000
  H   H3866     1.0  0.51529  0.00542  0.66105  1.0000
  C   C2251     1.0  0.95266  0.19358  0.50662  1.0000
  C   C2252     1.0  0.96110  0.19111  0.51330  1.0000
  C   C2253     1.0  0.98539  0.22284  0.51479  1.0000
  H   H3867     1.0  0.66090  0.02261  0.55099  1.0000
  H   H3868     1.0  0.94630  0.18819  0.50896  1.0000
  H   H3869     1.0  0.96111  0.18392  0.52086  1.0000
  C   C2254     1.0  0.96585  0.13526  0.53657  1.0000
  C   C2255     1.0  0.96719  0.12399  0.53481  1.0000
  C   C2256     1.0  0.96024  0.12203  0.52839  1.0000
  C   C2257     1.0  0.95165  0.13128  0.52397  1.0000
  C   C2258     1.0  0.94999  0.14249  0.52610  1.0000
  C   C2259     1.0  0.95715  0.14451  0.53229  1.0000
  H   H3870     1.0  0.97383  0.11676  0.53817  1.0000
  H   H3871     1.0  0.96153  0.11335  0.52686  1.0000
  H   H3872     1.0  0.94336  0.14967  0.52266  1.0000
  H   H3873     1.0  0.95608  0.15327  0.53349  1.0000
  C   C2260     1.0  0.74323  0.02972  0.55650  1.0000
  C   C2261     1.0  0.74559  0.03836  0.56048  1.0000
  C   C2262     1.0  0.75654  0.04137  0.55621  1.0000
  C   C2263     1.0  0.76533  0.03550  0.54825  1.0000
  C   C2264     1.0  0.76314  0.02656  0.54453  1.0000
  C   C2265     1.0  0.75201  0.02381  0.54851  1.0000
  H   H3874     1.0  0.73883  0.04293  0.56665  1.0000
  H   H3875     1.0  0.75819  0.04828  0.55910  1.0000
  H   H3876     1.0  0.76993  0.02190  0.53846  1.0000
  H   H3877     1.0  0.75027  0.01703  0.54554  1.0000
  H   H3878     1.0  0.57999  0.03898  0.69673  1.0000
  H   H3879     1.0  0.54425  0.03188  0.71435  1.0000
  H   H3880     1.0  0.52884  0.00215  0.70255  1.0000
  H   H3881     1.0  0.78220  0.01824  0.56219  1.0000
  H   H3882     1.0  0.67439  0.02079  0.52296  1.0000
  C   C2266     1.0  0.52368  0.00593  0.65438  1.0000
  H   H3883     1.0  0.61659  0.00432  0.72134  1.0000
  H   H3884     1.0  0.83718  0.02594  0.52631  1.0000
  H   H3885     1.0  0.99248  0.23260  0.53042  1.0000
  H   H3886     1.0  0.92104  0.13205  0.58266  1.0000
  C   C2267     1.0  0.96681  0.15162  0.49410  1.0000
  C   C2268     1.0  0.80191  0.99411  0.50258  1.0000
  C   C2269     1.0  0.55897  0.03963  0.71229  1.0000
  S   S660      1.0  0.79888  0.02445  0.51702  1.0000
  C   C2270     1.0  0.58160  0.00009  0.64998  1.0000
  C   C2271     1.0  0.58020  0.00224  0.63846  1.0000
  C   C2272     1.0  0.53944  0.99711  0.72837  1.0000
  H   H3887     1.0  0.91494  0.23496  0.57035  1.0000
  H   H3888     1.0  0.91543  0.04951  0.51398  1.0000
  H   H3889     1.0  0.58456  0.00842  0.63158  1.0000
  H   H3890     1.0  0.98768  0.22067  0.54779  1.0000
  H   H3891     1.0  0.88026  0.05022  0.52982  1.0000
  H   H3892     1.0  0.93680  0.13477  0.58900  1.0000
  H   H3893     1.0  0.83682  0.99757  0.49385  1.0000
  Fe  Fe335     1.0  0.97032  0.23831  0.57991  1.0000
  H   H3894     1.0  0.99189  0.16560  0.50160  1.0000
  H   H3895     1.0  0.57778  0.04438  0.71615  1.0000
  H   H3896     1.0  0.90348  0.05656  0.50008  1.0000
  C   C2273     1.0  0.53174  0.00928  0.73004  1.0000
  H   H3897     1.0  0.79531  0.02857  0.55911  1.0000
  C   C2274     1.0  0.93363  0.23409  0.50235  1.0000
  C   C2275     1.0  0.53384  0.02981  0.69339  1.0000
  H   H3898     1.0  0.93369  0.12826  0.57153  1.0000
  H   H3899     1.0  0.73232  0.99731  0.51319  1.0000
  H   H3900     1.0  0.54471  0.01260  0.69829  1.0000
  C   C2276     1.0  0.97792  0.21770  0.53647  1.0000
  C   C2277     1.0  0.92798  0.21784  0.58644  1.0000
  C   C2278     1.0  0.55606  0.06049  0.70153  1.0000
  H   H3901     1.0  0.62984  0.01832  0.57325  1.0000
  C   C2279     1.0  0.90509  0.07234  0.51156  1.0000
  H   H3902     1.0  0.92397  0.20683  0.57702  1.0000
  S   S661      1.0  0.98401  0.18296  0.54854  1.0000
  H   H3903     1.0  0.77495  0.99871  0.56631  1.0000
  C   C2280     1.0  0.51333  0.03025  0.69537  1.0000
  C   C2281     1.0  0.90755  0.05152  0.52111  1.0000
  H   H3904     1.0  0.91061  0.03269  0.52819  1.0000
  C   C2282     1.0  0.55986  0.04824  0.73371  1.0000
  C   C2283     1.0  0.58358  0.01662  0.72506  1.0000
  C   C2284     1.0  0.59335  0.01995  0.71676  1.0000
  C   C2285     1.0  0.59972  0.02639  0.71944  1.0000
  C   C2286     1.0  0.59646  0.02942  0.73040  1.0000
  N   N160      1.0  0.98707  0.14388  0.49975  1.0000
  H   H3905     1.0  0.57870  0.01153  0.72308  1.0000
  H   H3906     1.0  0.60729  0.02897  0.71306  1.0000
  H   H3907     1.0  0.51062  0.03173  0.65726  1.0000
  H   H3908     1.0  0.61906  0.03732  0.57049  1.0000
  H   H3909     1.0  0.95075  0.11888  0.57645  1.0000
  H   H3910     1.0  0.55996  0.05740  0.69315  1.0000
  H   H3911     1.0  0.77203  0.03656  0.52000  1.0000
  H   H3912     1.0  0.57544  0.05951  0.70910  1.0000
  H   H3913     1.0  0.79470  0.06969  0.50341  1.0000
  C   C2287     1.0  0.95636  0.13526  0.57383  1.0000
  H   H3914     1.0  0.76304  0.99427  0.53727  1.0000
  H   H3915     1.0  0.98507  0.22979  0.50658  1.0000
  H   H3916     1.0  0.95493  0.12600  0.56104  1.0000
  H   H3917     1.0  0.75111  0.01528  0.50597  1.0000
  H   H3918     1.0  0.54624  0.00717  0.64401  1.0000
  H   H3919     1.0  0.76036  0.04567  0.51337  1.0000
  C   C2288     1.0  0.55520  0.05596  0.72281  1.0000
  H   H3920     1.0  0.73104  0.01752  0.50908  1.0000
  C   C2289     1.0  0.53775  0.00021  0.66701  1.0000
  C   C2290     1.0  0.54691  0.03689  0.71914  1.0000
  H   H3921     1.0  0.63858  0.03747  0.54186  1.0000
  C   C2291     1.0  0.75988  0.01610  0.50023  1.0000
  H   H3922     1.0  0.75749  0.01971  0.58474  1.0000
  H   H3923     1.0  0.65220  0.03666  0.55404  1.0000
  H   H3924     1.0  0.77279  0.01989  0.51331  1.0000
  H   H3925     1.0  0.69599  0.01674  0.51128  1.0000
  H   H3926     1.0  0.96147  0.23776  0.53182  1.0000
  C   C2292     1.0  0.51568  0.01797  0.69865  1.0000
  H   H3927     1.0  0.80210  0.01138  0.57505  1.0000
  H   H3928     1.0  0.49636  0.00571  0.72652  1.0000
  S   S662      1.0  0.71104  0.03640  0.51088  1.0000
  C   C2293     1.0  0.69975  0.00883  0.50741  1.0000
  C   C2294     1.0  0.94728  0.15506  0.57708  1.0000
  C   C2295     1.0  0.99266  0.12377  0.51373  1.0000
  H   H3929     1.0  0.88409  0.06798  0.49392  1.0000
  H   H3930     1.0  0.62998  0.04315  0.55864  1.0000
  H   H3931     1.0  0.63143  0.99608  0.70547  1.0000
  N   N161      1.0  0.89887  0.06229  0.51646  1.0000
  C   C2296     1.0  0.51933  0.03179  0.65843  1.0000
  H   H3932     1.0  0.53965  0.05575  0.70224  1.0000
  H   H3933     1.0  0.87138  0.06214  0.53639  1.0000
  H   H3934     1.0  0.77765  0.00459  0.50036  1.0000
  C   C2297     1.0  0.92801  0.13562  0.57558  1.0000
  H   H3935     1.0  0.93618  0.21108  0.58776  1.0000
  C   C2298     1.0  0.55493  0.99764  0.73702  1.0000
  C   C2299     1.0  0.92030  0.23777  0.57466  1.0000
  H   H3936     1.0  0.75397  0.99548  0.55135  1.0000
  H   H3937     1.0  0.68729  0.01647  0.53689  1.0000
  C   C2300     1.0  0.89547  0.06007  0.50639  1.0000
  H   H3938     1.0  0.55864  0.06895  0.70014  1.0000
  S   S663      1.0  0.70578  0.02548  0.54571  1.0000
  Fe  Fe336     1.0  0.71559  0.02398  0.52735  1.0000
  H   H3939     1.0  0.97721  0.20968  0.53424  1.0000
  C   C2301     1.0  0.67493  0.01268  0.52957  1.0000
  H   H3940     1.0  0.91720  0.20494  0.59221  1.0000
  H   H3941     1.0  0.65281  0.00726  0.55729  1.0000
  C   C2302     1.0  0.55022  0.01914  0.65173  1.0000
  H   H3942     1.0  0.63064  0.02429  0.53262  1.0000
  C   C2303     1.0  0.95903  0.22609  0.52269  1.0000
  S   S664      1.0  0.72333  0.99989  0.55430  1.0000
  H   H3943     1.0  0.76614  0.99710  0.50346  1.0000
  H   H3944     1.0  0.74380  0.03476  0.50636  1.0000
  H   H3945     1.0  0.50563  0.02021  0.72142  1.0000
  H   H3946     1.0  0.77259  0.03243  0.57296  1.0000
  H   H3947     1.0  0.55623  0.02255  0.64350  1.0000
  Fe  Fe337     1.0  0.99505  0.16470  0.54955  1.0000
  C   C2304     1.0  0.64419  0.00841  0.55515  1.0000
  C   C2305     1.0  0.53604  0.01756  0.69727  1.0000
  C   C2306     1.0  0.54267  0.06341  0.70256  1.0000
  C   C2307     1.0  0.98506  0.13163  0.50499  1.0000
  C   C2308     1.0  0.98432  0.23661  0.52711  1.0000
  C   C2309     1.0  0.62573  0.01909  0.54052  1.0000
  C   C2310     1.0  0.86291  0.03387  0.50046  1.0000
  H   H3948     1.0  0.93135  0.22036  0.56297  1.0000
  C   C2311     1.0  0.58498  0.99489  0.56607  1.0000
  H   H3949     1.0  0.91090  0.05302  0.52805  1.0000
  N   N162      1.0  0.97885  0.22758  0.52562  1.0000
  C   C2312     1.0  0.68222  0.01025  0.53747  1.0000
  H   H3950     1.0  0.54594  0.02647  0.65635  1.0000
  H   H3951     1.0  0.59069  0.04601  0.69737  1.0000
  C   C2313     1.0  0.96649  0.23375  0.52415  1.0000
  S   S665      1.0  0.79370  0.99419  0.51690  1.0000
  S   S666      1.0  0.87653  0.03438  0.51466  1.0000
  C   C2314     1.0  0.79473  0.01880  0.57751  1.0000
  H   H3952     1.0  0.80053  0.99575  0.58964  1.0000
  C   C2315     1.0  0.52485  0.01981  0.66548  1.0000
  C   C2316     1.0  0.85275  0.03256  0.49822  1.0000
  N   N163      1.0  0.69658  0.99922  0.49240  1.0000
  C   C2317     1.0  0.73432  0.01393  0.49197  1.0000
  N   N164      1.0  0.78296  0.01559  0.58028  1.0000
  H   H3953     1.0  0.52061  0.04566  0.68991  1.0000
  H   H3954     1.0  0.53754  0.06698  0.71041  1.0000
  C   C2318     1.0  0.98283  0.15083  0.50925  1.0000
  H   H3955     1.0  0.98093  0.21668  0.51360  1.0000
  C   C2319     1.0  0.93531  0.16096  0.55771  1.0000
  C   C2320     1.0  0.76530  0.02727  0.51131  1.0000
  H   H3956     1.0  0.80578  0.03047  0.56569  1.0000
  N   N165      1.0  0.56073  0.05162  0.71156  1.0000
  C   C2321     1.0  0.87784  0.05991  0.52837  1.0000
  H   H3957     1.0  0.63203  0.03964  0.57318  1.0000
  S   S667      1.0  0.94663  0.07538  0.50302  1.0000
  H   H3958     1.0  0.51693  0.02237  0.64218  1.0000
  H   H3959     1.0  0.51812  0.03869  0.66332  1.0000
  H   H3960     1.0  0.95327  0.15127  0.55481  1.0000
  H   H3961     1.0  0.91198  0.07087  0.50355  1.0000
  C   C2322     1.0  0.62124  0.99490  0.72345  1.0000
  C   C2323     1.0  0.93720  0.22396  0.56590  1.0000
  C   C2324     1.0  0.96147  0.20920  0.49319  1.0000
  C   C2325     1.0  0.66833  0.00471  0.53026  1.0000
  H   H3962     1.0  0.95758  0.13204  0.58301  1.0000
  H   H3963     1.0  0.94890  0.16031  0.59216  1.0000
  H   H3964     1.0  0.89854  0.03793  0.52117  1.0000
  C   C2326     1.0  0.94983  0.15201  0.58945  1.0000
  C   C2327     1.0  0.76839  0.00476  0.50489  1.0000
  H   H3965     1.0  0.76058  0.02125  0.59792  1.0000
  H   H3966     1.0  0.95461  0.15883  0.57081  1.0000
  Fe  Fe338     1.0  0.80065  0.00512  0.52411  1.0000
  C   C2328     1.0  0.52700  0.01164  0.69983  1.0000
  C   C2329     1.0  0.68257  0.00004  0.54636  1.0000
  H   H3967     1.0  0.89116  0.06341  0.53464  1.0000
  H   H3968     1.0  0.76743  0.00329  0.51452  1.0000
  S   S668      1.0  0.83087  0.02812  0.50422  1.0000
  C   C2330     1.0  0.78222  0.00644  0.59162  1.0000
  H   H3969     1.0  0.54551  0.99836  0.71953  1.0000
  C   C2331     1.0  0.58122  0.04739  0.69751  1.0000
  C   C2332     1.0  0.88838  0.07092  0.49918  1.0000
  H   H3970     1.0  0.55586  0.01208  0.65701  1.0000
  N   N166      1.0  0.94553  0.14510  0.57305  1.0000
  S   S669      1.0  0.79357  0.00664  0.54275  1.0000
  H   H3971     1.0  0.89034  0.05316  0.50934  1.0000
  H   H3972     1.0  0.96576  0.11848  0.56935  1.0000
  C   C2333     1.0  0.59187  0.99703  0.57237  1.0000
  H   H3973     1.0  0.98821  0.14713  0.51601  1.0000
  H   H3974     1.0  0.94296  0.14286  0.55683  1.0000
  C   C2334     1.0  0.93703  0.05995  0.49790  1.0000
  H   H3975     1.0  0.50465  0.02639  0.73380  1.0000
  H   H3976     1.0  0.79629  0.02060  0.58538  1.0000
  H   H3977     1.0  0.96973  0.22008  0.54314  1.0000
  C   C2335     1.0  0.78248  0.01103  0.57015  1.0000
  H   H3978     1.0  0.80888  0.04167  0.49838  1.0000
  Fe  Fe339     1.0  0.95419  0.09180  0.49832  1.0000
  S   S670      1.0  0.69119  0.99728  0.55664  1.0000
  S   S671      1.0  0.99170  0.16229  0.53333  1.0000
  C   C2336     1.0  0.90300  0.04018  0.52674  1.0000
  H   H3979     1.0  0.98980  0.11532  0.51741  1.0000
  S   S672      1.0  0.98120  0.19392  0.51715  1.0000
  H   H3980     1.0  0.56561  0.03270  0.71657  1.0000
  C   C2337     1.0  0.79657  0.02957  0.56740  1.0000
  S   S673      1.0  0.96868  0.11834  0.49214  1.0000
  H   H3981     1.0  0.79075  0.03789  0.56961  1.0000
  H   H3982     1.0  0.97735  0.16885  0.49874  1.0000
  H   H3983     1.0  0.53954  0.04454  0.72035  1.0000
  Fe  Fe340     1.0  0.73164  0.00061  0.53524  1.0000
  C   C2338     1.0  0.71883  0.02953  0.49918  1.0000
  C   C2339     1.0  0.85442  0.02977  0.52134  1.0000
  N   N167      1.0  0.53174  0.01039  0.65872  1.0000
  S   S674      1.0  0.55547  0.00261  0.61026  1.0000
  H   H3984     1.0  0.94489  0.21658  0.56745  1.0000
  C   C2340     1.0  0.62867  0.03673  0.56711  1.0000
  H   H3985     1.0  0.61968  0.01759  0.55930  1.0000
  H   H3986     1.0  0.92919  0.04770  0.49443  1.0000
  C   C2341     1.0  0.63834  0.99883  0.56411  1.0000
  C   C2342     1.0  0.64422  0.02873  0.54482  1.0000
  C   C2343     1.0  0.62543  0.02253  0.55191  1.0000
  C   C2344     1.0  0.91963  0.21166  0.58419  1.0000
  H   H3987     1.0  0.97375  0.15018  0.51403  1.0000
  H   H3988     1.0  0.92680  0.16091  0.56415  1.0000
  H   H3989     1.0  0.76468  0.01232  0.56824  1.0000
  H   H3990     1.0  0.90514  0.07535  0.52871  1.0000
  H   H3991     1.0  0.64765  0.02497  0.53681  1.0000
  H   H3992     1.0  0.61743  0.99315  0.70741  1.0000
  S   S675      1.0  0.99365  0.09578  0.50370  1.0000
  H   H3993     1.0  0.59904  0.99348  0.72493  1.0000
  H   H3994     1.0  0.77503  0.04157  0.50445  1.0000
  H   H3995     1.0  0.93256  0.23522  0.51139  1.0000
  H   H3996     1.0  0.96181  0.22423  0.51376  1.0000
  H   H3997     1.0  0.56861  0.04948  0.73354  1.0000
  H   H3998     1.0  0.61658  0.02084  0.53941  1.0000
  H   H3999     1.0  0.52357  0.99935  0.68313  1.0000
  H   H4000     1.0  0.92387  0.22010  0.59513  1.0000
  N   N168      1.0  0.76241  0.02769  0.49988  1.0000
  H   H4001     1.0  0.87004  0.03601  0.49321  1.0000
  H   H4002     1.0  0.97676  0.21157  0.49693  1.0000
  H   H4003     1.0  0.79252  0.05625  0.50169  1.0000
  H   H4004     1.0  0.53712  0.01578  0.72835  1.0000
  H   H4005     1.0  0.80840  0.00927  0.50121  1.0000
  C   C2345     1.0  0.69192  0.00866  0.49947  1.0000
  C   C2346     1.0  0.52034  0.01285  0.64259  1.0000
  H   H4006     1.0  0.60903  0.99890  0.57200  1.0000
  H   H4007     1.0  0.64642  0.00611  0.54644  1.0000
  H   H4008     1.0  0.85080  0.00683  0.49495  1.0000
  Fe  Fe341     1.0  0.89089  0.03275  0.49848  1.0000
  H   H4009     1.0  0.91133  0.21783  0.58240  1.0000
  H   H4010     1.0  0.54766  0.03099  0.72782  1.0000
  H   H4011     1.0  0.76869  0.00100  0.58061  1.0000
  H   H4012     1.0  0.56042  0.03880  0.73461  1.0000
  H   H4013     1.0  0.94866  0.22854  0.57759  1.0000
  H   H4014     1.0  0.81487  0.07104  0.49413  1.0000
  C   C2347     1.0  0.91102  0.07495  0.51993  1.0000
  H   H4015     1.0  0.95918  0.21772  0.52935  1.0000
  H   H4016     1.0  0.50448  0.03525  0.69505  1.0000
  H   H4017     1.0  0.91941  0.06841  0.52081  1.0000
  H   H4018     1.0  0.76930  0.99470  0.54895  1.0000
  H   H4019     1.0  0.60154  0.03429  0.73245  1.0000
  H   H4020     1.0  0.94972  0.23107  0.52365  1.0000
  H   H4021     1.0  0.88143  0.07637  0.50482  1.0000
  C   C2348     1.0  0.80826  0.00280  0.49679  1.0000
  S   S676      1.0  0.81793  0.99454  0.55974  1.0000
  C   C2349     1.0  0.60370  0.99719  0.56717  1.0000
  H   H4022     1.0  0.62943  0.99488  0.72586  1.0000
  H   H4023     1.0  0.69998  0.00105  0.51483  1.0000
  H   H4024     1.0  0.89432  0.07644  0.49287  1.0000
  H   H4025     1.0  0.62984  0.99887  0.56247  1.0000
  H   H4026     1.0  0.98647  0.20593  0.55031  1.0000
  C   C2350     1.0  0.50258  0.00247  0.60846  1.0000
  H   H4027     1.0  0.67296  0.99540  0.50112  1.0000
  C   C2351     1.0  0.67458  0.00127  0.49237  1.0000
  H   H4028     1.0  0.92557  0.23186  0.50196  1.0000
  H   H4029     1.0  0.74171  0.00662  0.49332  1.0000
  C   C2352     1.0  0.57279  0.99674  0.63591  1.0000
  H   H4030     1.0  0.91343  0.08360  0.51609  1.0000
  H   H4031     1.0  0.96648  0.24119  0.51638  1.0000
  C   C2353     1.0  0.50091  0.02733  0.72617  1.0000
  H   H4032     1.0  0.52586  0.00898  0.73888  1.0000
  H   H4033     1.0  0.57153  0.99864  0.62705  1.0000
  H   H4034     1.0  0.94025  0.22389  0.59854  1.0000
  C   C2354     1.0  0.93941  0.23331  0.58034  1.0000
  H   H4035     1.0  0.52780  0.99678  0.65307  1.0000
  H   H4036     1.0  0.91088  0.23631  0.59344  1.0000
  C   C2355     1.0  0.93773  0.23302  0.59349  1.0000
  H   H4037     1.0  0.92871  0.23723  0.59752  1.0000
  C   C2356     1.0  0.66902  0.99426  0.53885  1.0000
  C   C2357     1.0  0.58041  0.01950  0.73616  1.0000
  Fe  Fe342     1.0  0.65028  0.99337  0.52293  1.0000
  H   H4038     1.0  0.94373  0.23786  0.59446  1.0000
  H   H4039     1.0  0.54388  0.99353  0.66214  1.0000
  H   H4040     1.0  0.97828  0.24150  0.53385  1.0000
  H   H4041     1.0  0.55026  0.00643  0.73895  1.0000
  H   H4042     1.0  0.57580  0.99496  0.56991  1.0000
  C   C2358     1.0  0.79142  0.99469  0.59120  1.0000
  H   H4043     1.0  0.93421  0.23944  0.55156  1.0000
  H   H4044     1.0  0.94700  0.23808  0.55706  1.0000
  H   H4045     1.0  0.51327  0.00952  0.64132  1.0000
  Fe  Fe343     1.0  0.54297  0.99579  0.60475  1.0000
  H   H4046     1.0  0.60037  0.00310  0.73847  1.0000
  H   H4047     1.0  0.61938  0.00756  0.73872  1.0000
  C   C2359     1.0  0.58701  0.02575  0.73887  1.0000
  H   H4048     1.0  0.83351  0.05659  0.49818  1.0000
  H   H4049     1.0  0.86164  0.99355  0.49552  1.0000
  C   C2360     1.0  0.81718  0.06217  0.49206  1.0000
  C   C2361     1.0  0.91214  0.24293  0.58513  1.0000
  S   S677      1.0  0.63754  0.99449  0.51222  1.0000
  H   H4050     1.0  0.61781  0.99489  0.55203  1.0000
  C   C2362     1.0  0.60871  0.99488  0.55589  1.0000
  C   C2363     1.0  0.52960  0.99358  0.67729  1.0000
  H   H4051     1.0  0.49704  0.06454  0.64347  1.0000
  H   H4052     1.0  0.49655  0.05867  0.65871  1.0000
  Fe  Fe344     1.0  0.56950  0.99332  0.59716  1.0000
  C   C2364     1.0  0.50419  0.06217  0.81403  1.0000
  H   H4053     1.0  0.52632  0.20154  0.90409  1.0000
  H   H4054     1.0  0.56511  0.04240  0.77605  1.0000
  H   H4055     1.0  0.57865  0.11367  0.90532  1.0000
  H   H4056     1.0  0.52824  0.17112  0.92479  1.0000
  S   S678      1.0  0.57319  0.17936  0.95241  1.0000
  C   C2365     1.0  0.57566  0.01740  0.81346  1.0000
  Fe  Fe345     1.0  0.57427  0.17630  0.92137  1.0000
  S   S679      1.0  0.58144  0.16099  0.93458  1.0000
  S   S680      1.0  0.57442  0.17449  0.90341  1.0000
  Fe  Fe346     1.0  0.56516  0.16782  0.94707  1.0000
  H   H4057     1.0  0.54044  0.06590  0.78148  1.0000
  Fe  Fe347     1.0  0.58902  0.17364  0.93883  1.0000
  S   S681      1.0  0.60722  0.16841  0.94231  1.0000
  S   S682      1.0  0.55735  0.18242  0.93360  1.0000
  S   S683      1.0  0.58368  0.18850  0.92415  1.0000
  Fe  Fe348     1.0  0.53841  0.10155  0.90631  1.0000
  S   S684      1.0  0.55419  0.10790  0.90621  1.0000
  S   S685      1.0  0.54293  0.08717  0.89583  1.0000
  H   H4058     1.0  0.51427  0.20777  0.98528  1.0000
  Fe  Fe349     1.0  0.54242  0.12595  0.90454  1.0000
  S   S686      1.0  0.54821  0.14202  0.89225  1.0000
  Fe  Fe350     1.0  0.54724  0.10624  0.92563  1.0000
  C   C2366     1.0  0.53861  0.12666  0.97267  1.0000
  H   H4059     1.0  0.53113  0.05751  0.80461  1.0000
  H   H4060     1.0  0.51728  0.19300  0.95996  1.0000
  H   H4061     1.0  0.55408  0.01515  0.76568  1.0000
  Fe  Fe351     1.0  0.53796  0.04976  0.83610  1.0000
  S   S687      1.0  0.53030  0.03438  0.83851  1.0000
  S   S688      1.0  0.55246  0.05274  0.82011  1.0000
  H   H4062     1.0  0.50802  0.03958  0.89967  1.0000
  Fe  Fe352     1.0  0.52950  0.03187  0.85761  1.0000
  S   S689      1.0  0.53501  0.01347  0.86811  1.0000
  C   C2367     1.0  0.54217  0.04460  0.79406  1.0000
  S   S690      1.0  0.53888  0.04623  0.85501  1.0000
  H   H4063     1.0  0.52762  0.02871  0.79940  1.0000
  C   C2368     1.0  0.55722  0.09711  0.96205  1.0000
  H   H4064     1.0  0.56475  0.10097  0.95976  1.0000
  H   H4065     1.0  0.50790  0.20747  0.90154  1.0000
  C   C2369     1.0  0.53469  0.08396  0.88758  1.0000
  C   C2370     1.0  0.54059  0.07663  0.87956  1.0000
  C   C2371     1.0  0.53437  0.07304  0.87350  1.0000
  H   H4066     1.0  0.54581  0.03494  0.79600  1.0000
  H   H4067     1.0  0.55006  0.07366  0.87807  1.0000
  H   H4068     1.0  0.53904  0.06740  0.86738  1.0000
  C   C2372     1.0  0.53827  0.02524  0.91438  1.0000
  C   C2373     1.0  0.57490  0.02726  0.80417  1.0000
  C   C2374     1.0  0.56818  0.03823  0.80634  1.0000
  C   C2375     1.0  0.56182  0.03928  0.81771  1.0000
  C   C2376     1.0  0.56269  0.02946  0.82702  1.0000
  C   C2377     1.0  0.56985  0.01860  0.82493  1.0000
  H   H4069     1.0  0.53635  0.03136  0.92027  1.0000
  H   H4070     1.0  0.56778  0.04588  0.79919  1.0000
  H   H4071     1.0  0.55797  0.03027  0.83585  1.0000
  H   H4072     1.0  0.57066  0.01109  0.83219  1.0000
  S   S691      1.0  0.55676  0.15417  0.96059  1.0000
  C   C2378     1.0  0.60808  0.16669  0.95694  1.0000
  C   C2379     1.0  0.59809  0.16646  0.96613  1.0000
  C   C2380     1.0  0.59873  0.16614  0.97756  1.0000
  H   H4073     1.0  0.52332  0.00825  0.82487  1.0000
  C   C2381     1.0  0.61952  0.16571  0.97079  1.0000
  C   C2382     1.0  0.61885  0.16609  0.95934  1.0000
  H   H4074     1.0  0.58983  0.16667  0.96448  1.0000
  N   N169      1.0  0.57879  0.12943  0.98262  1.0000
  H   H4075     1.0  0.62781  0.16555  0.97256  1.0000
  H   H4076     1.0  0.62663  0.16622  0.95230  1.0000
  C   C2383     1.0  0.54153  0.15893  0.96405  1.0000
  C   C2384     1.0  0.53569  0.16623  0.95538  1.0000
  Fe  Fe353     1.0  0.58152  0.00217  0.79315  1.0000
  H   H4077     1.0  0.54056  0.16885  0.94654  1.0000
  H   H4078     1.0  0.57968  0.02647  0.79535  1.0000
  C   C2385     1.0  0.56679  0.16526  0.90113  1.0000
  C   C2386     1.0  0.56063  0.15787  0.91036  1.0000
  C   C2387     1.0  0.55504  0.15041  0.90786  1.0000
  C   C2388     1.0  0.55540  0.15059  0.89615  1.0000
  C   C2389     1.0  0.56131  0.15819  0.88707  1.0000
  C   C2390     1.0  0.56705  0.16539  0.88953  1.0000
  H   H4079     1.0  0.56019  0.15791  0.91937  1.0000
  H   H4080     1.0  0.55021  0.14476  0.91492  1.0000
  H   H4081     1.0  0.56156  0.15845  0.87803  1.0000
  H   H4082     1.0  0.57173  0.17110  0.88237  1.0000
  H   H4083     1.0  0.59087  0.16639  0.98449  1.0000
  H   H4084     1.0  0.56773  0.13116  0.97070  1.0000
  C   C2391     1.0  0.53126  0.21028  0.96718  1.0000
  C   C2392     1.0  0.53083  0.18798  0.88883  1.0000
  C   C2393     1.0  0.51629  0.00759  0.86449  1.0000
  H   H4085     1.0  0.51087  0.14105  0.91320  1.0000
  H   H4086     1.0  0.50821  0.06509  0.81925  1.0000
  C   C2394     1.0  0.59219  0.21737  0.95847  1.0000
  H   H4087     1.0  0.52588  0.05957  0.89576  1.0000
  C   C2395     1.0  0.54106  0.02288  0.75539  1.0000
  H   H4088     1.0  0.61625  0.19751  0.97718  1.0000
  C   C2396     1.0  0.52953  0.02385  0.75478  1.0000
  H   H4089     1.0  0.54876  0.19061  0.96991  1.0000
  C   C2397     1.0  0.60283  0.22297  0.95183  1.0000
  H   H4090     1.0  0.52277  0.13163  0.94507  1.0000
  H   H4091     1.0  0.54541  0.05761  0.89815  1.0000
  H   H4092     1.0  0.54620  0.04752  0.88250  1.0000
  H   H4093     1.0  0.50682  0.01341  0.80636  1.0000
  C   C2398     1.0  0.51621  0.08417  0.88334  1.0000
  H   H4094     1.0  0.54491  0.02963  0.87645  1.0000
  H   H4095     1.0  0.55906  0.02886  0.87837  1.0000
  C   C2399     1.0  0.52346  0.16983  0.95804  1.0000
  C   C2400     1.0  0.53251  0.13218  0.96222  1.0000
  H   H4096     1.0  0.52544  0.06366  0.76569  1.0000
  C   C2401     1.0  0.51661  0.13549  0.95243  1.0000
  H   H4097     1.0  0.52125  0.02737  0.78845  1.0000
  N   N170      1.0  0.53252  0.04084  0.89631  1.0000
  H   H4098     1.0  0.50673  0.08707  0.88491  1.0000
  H   H4099     1.0  0.50873  0.05495  0.89597  1.0000
  H   H4100     1.0  0.57427  0.14429  0.99097  1.0000
  H   H4101     1.0  0.51449  0.10207  0.96750  1.0000
  H   H4102     1.0  0.56960  0.21776  0.99084  1.0000
  Fe  Fe354     1.0  0.56725  0.19341  0.93757  1.0000
  H   H4103     1.0  0.55378  0.05086  0.74176  1.0000
  C   C2402     1.0  0.52249  0.01699  0.76351  1.0000
  H   H4104     1.0  0.51383  0.20848  0.95594  1.0000
  C   C2403     1.0  0.52738  0.04356  0.78400  1.0000
  H   H4105     1.0  0.50337  0.99434  0.77361  1.0000
  C   C2404     1.0  0.54794  0.00954  0.81086  1.0000
  H   H4106     1.0  0.58883  0.22059  0.96679  1.0000
  N   N171      1.0  0.52487  0.18506  0.90164  1.0000
  N   N172      1.0  0.58503  0.12769  0.91746  1.0000
  C   C2405     1.0  0.58856  0.13813  0.91877  1.0000
  C   C2406     1.0  0.57352  0.12673  0.92617  1.0000
  C   C2407     1.0  0.58348  0.13009  0.90502  1.0000
  C   C2408     1.0  0.59472  0.11697  0.91982  1.0000
  C   C2409     1.0  0.59906  0.14210  0.90938  1.0000
  C   C2410     1.0  0.57391  0.12393  0.93926  1.0000
  C   C2411     1.0  0.57574  0.12331  0.90267  1.0000
  C   C2412     1.0  0.59242  0.10494  0.92046  1.0000
  H   H4107     1.0  0.58107  0.14597  0.91861  1.0000
  H   H4108     1.0  0.59089  0.13642  0.92740  1.0000
  H   H4109     1.0  0.56969  0.11997  0.92512  1.0000
  H   H4110     1.0  0.56679  0.13502  0.92456  1.0000
  H   H4111     1.0  0.57945  0.13955  0.90200  1.0000
  H   H4112     1.0  0.59217  0.12839  0.89880  1.0000
  H   H4113     1.0  0.60286  0.11769  0.91287  1.0000
  H   H4114     1.0  0.59748  0.11640  0.92799  1.0000
  H   H4115     1.0  0.59708  0.14541  0.90051  1.0000
  H   H4116     1.0  0.60086  0.14960  0.91159  1.0000
  H   H4117     1.0  0.60723  0.13509  0.90913  1.0000
  H   H4118     1.0  0.58004  0.11542  0.94175  1.0000
  H   H4119     1.0  0.57608  0.13109  0.94166  1.0000
  H   H4120     1.0  0.56502  0.12306  0.94466  1.0000
  H   H4121     1.0  0.57606  0.12544  0.89309  1.0000
  H   H4122     1.0  0.56637  0.12612  0.90697  1.0000
  H   H4123     1.0  0.59548  0.10264  0.91170  1.0000
  H   H4124     1.0  0.58315  0.10432  0.92401  1.0000
  H   H4125     1.0  0.59729  0.09804  0.92663  1.0000
  C   C2413     1.0  0.52097  0.20080  0.95839  1.0000
  H   H4126     1.0  0.55754  0.05743  0.77197  1.0000
  S   S692      1.0  0.51374  0.07162  0.86883  1.0000
  H   H4127     1.0  0.54981  0.02033  0.88944  1.0000
  C   C2414     1.0  0.55200  0.09331  0.97392  1.0000
  H   H4128     1.0  0.54623  0.17627  0.97599  1.0000
  H   H4129     1.0  0.59265  0.13874  0.97859  1.0000
  H   H4130     1.0  0.51809  0.00040  0.83966  1.0000
  H   H4131     1.0  0.50918  0.20300  0.88807  1.0000
  H   H4132     1.0  0.51495  0.16922  0.92236  1.0000
  H   H4133     1.0  0.51068  0.15243  0.94133  1.0000
  S   S693      1.0  0.54390  0.99929  0.78575  1.0000
  H   H4134     1.0  0.50857  0.18219  0.90013  1.0000
  H   H4135     1.0  0.50809  0.13384  0.95267  1.0000
  H   H4136     1.0  0.52926  0.11333  0.95804  1.0000
  C   C2415     1.0  0.60693  0.20063  0.97636  1.0000
  S   S694      1.0  0.59564  0.00051  0.77668  1.0000
  S   S695      1.0  0.52709  0.11994  0.90309  1.0000
  H   H4137     1.0  0.59233  0.22977  0.91990  1.0000
  H   H4138     1.0  0.51909  0.17538  0.95129  1.0000
  H   H4139     1.0  0.53686  0.02491  0.78594  1.0000
  C   C2416     1.0  0.49885  0.23258  0.92910  1.0000
  C   C2417     1.0  0.51252  0.20536  0.97785  1.0000
  H   H4140     1.0  0.51923  0.04833  0.78913  1.0000
  C   C2418     1.0  0.57006  0.13966  0.98717  1.0000
  H   H4141     1.0  0.61014  0.21757  0.94653  1.0000
  H   H4142     1.0  0.58143  0.21387  0.92540  1.0000
  H   H4143     1.0  0.60305  0.21078  0.93547  1.0000
  C   C2419     1.0  0.60587  0.19821  0.96493  1.0000
  S   S696      1.0  0.50488  0.12373  0.93440  1.0000
  Fe  Fe355     1.0  0.52078  0.05810  0.85723  1.0000
  S   S697      1.0  0.51141  0.04335  0.86118  1.0000
  H   H4144     1.0  0.56573  0.20258  0.97752  1.0000
  H   H4145     1.0  0.51408  0.14234  0.97468  1.0000
  H   H4146     1.0  0.53995  0.19860  0.94871  1.0000
  C   C2420     1.0  0.55266  0.09599  0.95314  1.0000
  H   H4147     1.0  0.55960  0.00015  0.82820  1.0000
  H   H4148     1.0  0.52771  0.07698  0.76721  1.0000
  S   S698      1.0  0.55919  0.10109  0.93836  1.0000
  H   H4149     1.0  0.53964  0.14957  0.98215  1.0000
  H   H4150     1.0  0.57098  0.19924  0.96334  1.0000
  H   H4151     1.0  0.59977  0.23128  0.94568  1.0000
  H   H4152     1.0  0.49645  0.01435  0.77779  1.0000
  H   H4153     1.0  0.59521  0.14330  0.95642  1.0000
  H   H4154     1.0  0.59679  0.12663  0.97204  1.0000
  H   H4155     1.0  0.60179  0.19558  0.98422  1.0000
  H   H4156     1.0  0.58166  0.13975  0.95834  1.0000
  H   H4157     1.0  0.58197  0.15149  0.96445  1.0000
  C   C2421     1.0  0.58672  0.14264  0.96282  1.0000
  C   C2422     1.0  0.53172  0.06746  0.76771  1.0000
  H   H4158     1.0  0.52574  0.06475  0.78641  1.0000
  S   S699      1.0  0.50358  0.18637  0.93812  1.0000
  C   C2423     1.0  0.50410  0.06815  0.80233  1.0000
  H   H4159     1.0  0.51790  0.15583  0.98674  1.0000
  H   H4160     1.0  0.50461  0.02128  0.81744  1.0000
  S   S700      1.0  0.50164  0.17023  0.97247  1.0000
  C   C2424     1.0  0.56329  0.23147  0.94366  1.0000
  C   C2425     1.0  0.52568  0.22308  0.96184  1.0000
  H   H4161     1.0  0.53292  0.12889  0.98101  1.0000
  H   H4162     1.0  0.51014  0.15344  0.95585  1.0000
  Fe  Fe356     1.0  0.50657  0.04400  0.75346  1.0000
  C   C2426     1.0  0.52372  0.00654  0.83417  1.0000
  H   H4163     1.0  0.58545  0.10720  0.97522  1.0000
  C   C2427     1.0  0.55929  0.24038  0.91134  1.0000
  C   C2428     1.0  0.60941  0.16594  0.97987  1.0000
  C   C2429     1.0  0.53101  0.20064  0.94725  1.0000
  C   C2430     1.0  0.60710  0.99589  0.74221  1.0000
  H   H4164     1.0  0.53176  0.14177  0.96070  1.0000
  H   H4165     1.0  0.53235  0.22847  0.95939  1.0000
  H   H4166     1.0  0.53683  0.04343  0.81287  1.0000
  H   H4167     1.0  0.55516  0.23200  0.95026  1.0000
  H   H4168     1.0  0.60621  0.22563  0.95806  1.0000
  H   H4169     1.0  0.50527  0.11287  0.97539  1.0000
  H   H4170     1.0  0.53343  0.21029  0.97549  1.0000
  H   H4171     1.0  0.58658  0.19057  0.97434  1.0000
  C   C2431     1.0  0.53000  0.18949  0.97542  1.0000
  H   H4172     1.0  0.58563  0.20394  0.94805  1.0000
  C   C2432     1.0  0.58103  0.11507  0.96953  1.0000
  C   C2433     1.0  0.52252  0.11648  0.96555  1.0000
  H   H4173     1.0  0.50074  0.99571  0.75127  1.0000
  H   H4174     1.0  0.51778  0.09342  0.89551  1.0000
  H   H4175     1.0  0.55556  0.09421  0.98074  1.0000
  H   H4176     1.0  0.54002  0.00978  0.83515  1.0000
  C   C2434     1.0  0.58427  0.23022  0.92661  1.0000
  H   H4177     1.0  0.54653  0.13023  0.97089  1.0000
  S   S701      1.0  0.53239  0.09851  0.92612  1.0000
  H   H4178     1.0  0.49635  0.13203  0.96968  1.0000
  H   H4179     1.0  0.53841  0.16928  0.90386  1.0000
  H   H4180     1.0  0.54369  0.23382  0.92067  1.0000
  H   H4181     1.0  0.54445  0.18283  0.96151  1.0000
  N   N173      1.0  0.52392  0.20144  0.96943  1.0000
  C   C2435     1.0  0.54509  0.03936  0.88935  1.0000
  Fe  Fe357     1.0  0.58164  0.01302  0.76757  1.0000
  C   C2436     1.0  0.52466  0.16746  0.91952  1.0000
  H   H4182     1.0  0.50695  0.21345  0.97348  1.0000
  C   C2437     1.0  0.54303  0.09082  0.95613  1.0000
  C   C2438     1.0  0.53630  0.00206  0.83628  1.0000
  H   H4183     1.0  0.60417  0.21011  0.97653  1.0000
  C   C2439     1.0  0.53514  0.15523  0.97539  1.0000
  Fe  Fe358     1.0  0.52234  0.11737  0.92281  1.0000
  C   C2440     1.0  0.52720  0.00350  0.86761  1.0000
  H   H4184     1.0  0.52706  0.05029  0.88008  1.0000
  S   S702      1.0  0.57499  0.99882  0.76519  1.0000
  C   C2441     1.0  0.53043  0.02987  0.90537  1.0000
  N   N174      1.0  0.59438  0.20412  0.96123  1.0000
  H   H4185     1.0  0.52146  0.00401  0.77978  1.0000
  H   H4186     1.0  0.54002  0.06674  0.76089  1.0000
  H   H4187     1.0  0.52549  0.04483  0.77523  1.0000
  H   H4188     1.0  0.60738  0.18855  0.96619  1.0000
  C   C2442     1.0  0.56936  0.24053  0.94047  1.0000
  H   H4189     1.0  0.53956  0.08979  0.94931  1.0000
  C   C2443     1.0  0.54137  0.18874  0.90883  1.0000
  H   H4190     1.0  0.55019  0.03447  0.77522  1.0000
  C   C2444     1.0  0.51233  0.13401  0.97425  1.0000
  C   C2445     1.0  0.53798  0.08678  0.96800  1.0000
  C   C2446     1.0  0.53880  0.05429  0.90584  1.0000
  H   H4191     1.0  0.53990  0.20798  0.96124  1.0000
  C   C2447     1.0  0.50621  0.20096  0.89776  1.0000
  H   H4192     1.0  0.54637  0.02845  0.74887  1.0000
  C   C2448     1.0  0.54234  0.08818  0.97691  1.0000
  C   C2449     1.0  0.54979  0.02892  0.88314  1.0000
  C   C2450     1.0  0.53400  0.06176  0.78012  1.0000
  C   C2451     1.0  0.54308  0.18481  0.97019  1.0000
  H   H4193     1.0  0.54776  0.02336  0.91017  1.0000
  H   H4194     1.0  0.53877  0.12936  0.95429  1.0000
  C   C2452     1.0  0.58470  0.20034  0.97135  1.0000
  C   C2453     1.0  0.57286  0.12421  0.97661  1.0000
  N   N175      1.0  0.53779  0.04853  0.78286  1.0000
  C   C2454     1.0  0.53307  0.04792  0.80503  1.0000
  H   H4195     1.0  0.51241  0.01693  0.86276  1.0000
  H   H4196     1.0  0.52296  0.19128  0.91735  1.0000
  C   C2455     1.0  0.51700  0.16612  0.96932  1.0000
  C   C2456     1.0  0.58915  0.13391  0.97429  1.0000
  H   H4197     1.0  0.58421  0.20375  0.97909  1.0000
  S   S703      1.0  0.53676  0.12479  0.92383  1.0000
  C   C2457     1.0  0.52476  0.04317  0.88777  1.0000
  H   H4198     1.0  0.52950  0.18946  0.98469  1.0000
  Fe  Fe359     1.0  0.56269  0.00019  0.78257  1.0000
  C   C2458     1.0  0.53847  0.00833  0.77363  1.0000
  H   H4199     1.0  0.53070  0.19400  0.94272  1.0000
  H   H4200     1.0  0.53058  0.08270  0.97026  1.0000
  C   C2459     1.0  0.54546  0.01525  0.76489  1.0000
  C   C2460     1.0  0.51534  0.14892  0.94866  1.0000
  H   H4201     1.0  0.52926  0.19766  0.88537  1.0000
  C   C2461     1.0  0.51032  0.99962  0.86373  1.0000
  H   H4202     1.0  0.53148  0.02258  0.90102  1.0000
  C   C2462     1.0  0.56750  0.22191  0.93816  1.0000
  H   H4203     1.0  0.49770  0.01563  0.84030  1.0000
  C   C2463     1.0  0.52698  0.00915  0.77292  1.0000
  C   C2464     1.0  0.52245  0.08781  0.88936  1.0000
  H   H4204     1.0  0.52969  0.20921  0.94089  1.0000
  Fe  Fe360     1.0  0.51288  0.04699  0.84167  1.0000
  S   S704      1.0  0.50811  0.21858  0.93143  1.0000
  H   H4205     1.0  0.54189  0.01647  0.81537  1.0000
  H   H4206     1.0  0.54968  0.04853  0.79316  1.0000
  H   H4207     1.0  0.56681  0.14648  0.97988  1.0000
  C   C2465     1.0  0.51136  0.04670  0.89272  1.0000
  C   C2466     1.0  0.60379  0.20137  0.93984  1.0000
  H   H4208     1.0  0.53046  0.17276  0.88247  1.0000
  H   H4209     1.0  0.60269  0.19700  0.93344  1.0000
  H   H4210     1.0  0.51352  0.01790  0.76306  1.0000
  H   H4211     1.0  0.53630  0.01681  0.92004  1.0000
  H   H4212     1.0  0.56982  0.23073  0.97152  1.0000
  C   C2467     1.0  0.50029  0.01646  0.81399  1.0000
  H   H4213     1.0  0.56977  0.21383  0.96516  1.0000
  H   H4214     1.0  0.60873  0.00750  0.75211  1.0000
  C   C2468     1.0  0.57215  0.20432  0.96905  1.0000
  H   H4215     1.0  0.59416  0.19010  0.95365  1.0000
  H   H4216     1.0  0.52403  0.15127  0.94525  1.0000
  H   H4217     1.0  0.62091  0.99517  0.75115  1.0000
  H   H4218     1.0  0.57561  0.11200  0.96553  1.0000
  H   H4219     1.0  0.49681  0.99581  0.84684  1.0000
  C   C2469     1.0  0.54755  0.04420  0.77316  1.0000
  C   C2470     1.0  0.52912  0.05136  0.90193  1.0000
  C   C2471     1.0  0.57812  0.22119  0.92974  1.0000
  S   S705      1.0  0.58389  0.02875  0.75285  1.0000
  C   C2472     1.0  0.52830  0.19199  0.90818  1.0000
  H   H4220     1.0  0.54736  0.19000  0.90003  1.0000
  H   H4221     1.0  0.50845  0.18909  0.99012  1.0000
  H   H4222     1.0  0.54055  0.18490  0.88763  1.0000
  H   H4223     1.0  0.52792  0.15776  0.92159  1.0000
  H   H4224     1.0  0.61354  0.20051  0.95806  1.0000
  Fe  Fe361     1.0  0.49690  0.20539  0.93855  1.0000
  C   C2473     1.0  0.52871  0.17203  0.90619  1.0000
  H   H4225     1.0  0.52161  0.05056  0.90966  1.0000
  H   H4226     1.0  0.53698  0.99755  0.81413  1.0000
  H   H4227     1.0  0.61271  0.19715  0.94150  1.0000
  S   S706      1.0  0.58386  0.23516  0.98494  1.0000
  H   H4228     1.0  0.52547  0.16698  0.90189  1.0000
  C   C2474     1.0  0.52285  0.15885  0.97803  1.0000
  H   H4229     1.0  0.54406  0.17964  0.91378  1.0000
  H   H4230     1.0  0.52476  0.04516  0.80655  1.0000
  C   C2475     1.0  0.52848  0.03038  0.78979  1.0000
  S   S707      1.0  0.58305  0.00342  0.81068  1.0000
  H   H4231     1.0  0.56345  0.04891  0.76114  1.0000
  H   H4232     1.0  0.52540  0.18263  0.97589  1.0000
  C   C2476     1.0  0.55901  0.04849  0.77055  1.0000
  H   H4233     1.0  0.54274  0.19463  0.91361  1.0000
  H   H4234     1.0  0.54457  0.04610  0.76482  1.0000
  S   S708      1.0  0.56817  0.01561  0.78407  1.0000
  C   C2477     1.0  0.59400  0.19967  0.95097  1.0000
  H   H4235     1.0  0.55131  0.03819  0.89494  1.0000
  C   C2478     1.0  0.52746  0.18249  0.88058  1.0000
  H   H4236     1.0  0.57294  0.01688  0.74264  1.0000
  C   C2479     1.0  0.52210  0.07669  0.87546  1.0000
  S   S709      1.0  0.52056  0.06275  0.83793  1.0000
  S   S710      1.0  0.52353  0.03454  0.74386  1.0000
  H   H4237     1.0  0.51818  0.22704  0.96828  1.0000
  S   S711      1.0  0.55887  0.21146  0.94157  1.0000
  H   H4238     1.0  0.58519  0.22135  0.95338  1.0000
  N   N176      1.0  0.52066  0.12961  0.96375  1.0000
  H   H4239     1.0  0.53523  0.99829  0.84582  1.0000
  S   S712      1.0  0.50206  0.04079  0.77314  1.0000
  C   C2480     1.0  0.51164  0.11170  0.96702  1.0000
  H   H4240     1.0  0.56958  0.99805  0.74353  1.0000
  H   H4241     1.0  0.52282  0.22378  0.95373  1.0000
  H   H4242     1.0  0.51988  0.01522  0.83662  1.0000
  H   H4243     1.0  0.51790  0.18500  0.88085  1.0000
  H   H4244     1.0  0.50569  0.00771  0.75229  1.0000
  C   C2481     1.0  0.54526  0.99727  0.81644  1.0000
  H   H4245     1.0  0.51398  0.12769  0.98256  1.0000
  H   H4246     1.0  0.50746  0.18704  0.91284  1.0000
  H   H4247     1.0  0.52122  0.03126  0.91059  1.0000
  C   C2482     1.0  0.51168  0.18823  0.90335  1.0000
  H   H4248     1.0  0.55715  0.00950  0.81043  1.0000
  H   H4249     1.0  0.50329  0.19257  0.97673  1.0000
  H   H4250     1.0  0.58769  0.11881  0.96223  1.0000
  N   N177      1.0  0.54464  0.99320  0.82947  1.0000
  H   H4251     1.0  0.52615  0.03533  0.88410  1.0000
  H   H4252     1.0  0.54340  0.04685  0.91171  1.0000
  C   C2483     1.0  0.49899  0.13676  0.97469  1.0000
  C   C2484     1.0  0.50469  0.19634  0.98338  1.0000
  C   C2485     1.0  0.50098  0.00505  0.74721  1.0000
  H   H4253     1.0  0.56354  0.23132  0.90997  1.0000
  H   H4254     1.0  0.49762  0.08979  0.75814  1.0000
  H   H4255     1.0  0.53593  0.99735  0.75305  1.0000
  C   C2486     1.0  0.61465  0.00173  0.74615  1.0000
  H   H4256     1.0  0.53199  0.18571  0.87139  1.0000
  H   H4257     1.0  0.52597  0.11182  0.97357  1.0000
  H   H4258     1.0  0.56621  0.11966  0.98315  1.0000
  H   H4259     1.0  0.59002  0.11279  0.98895  1.0000
  H   H4260     1.0  0.54173  0.11701  0.97379  1.0000
  H   H4261     1.0  0.56255  0.24154  0.91844  1.0000
  H   H4262     1.0  0.53474  0.06156  0.91063  1.0000
  H   H4263     1.0  0.50735  0.11544  0.95946  1.0000
  H   H4264     1.0  0.54683  0.01208  0.80168  1.0000
  H   H4265     1.0  0.49893  0.09416  0.74266  1.0000
  H   H4266     1.0  0.50179  0.00288  0.86154  1.0000
  H   H4267     1.0  0.50675  0.04846  0.88551  1.0000
  S   S713      1.0  0.50223  0.06358  0.75067  1.0000
  H   H4268     1.0  0.50520  0.00037  0.82589  1.0000
  H   H4269     1.0  0.50808  0.07566  0.79860  1.0000
  C   C2487     1.0  0.49932  0.24107  0.93460  1.0000
  H   H4270     1.0  0.55334  0.99364  0.84957  1.0000
  C   C2488     1.0  0.49686  0.00566  0.82325  1.0000
  H   H4271     1.0  0.50524  0.23890  0.94044  1.0000
  H   H4272     1.0  0.62625  0.23811  0.95443  1.0000
  C   C2489     1.0  0.49972  0.13906  0.93057  1.0000
  S   S714      1.0  0.50047  0.07083  0.78036  1.0000
  C   C2490     1.0  0.54580  0.24196  0.91431  1.0000
  C   C2491     1.0  0.50425  0.14551  0.91954  1.0000
  C   C2492     1.0  0.56533  0.23863  0.97469  1.0000
  H   H4273     1.0  0.54358  0.24193  0.90606  1.0000
  C   C2493     1.0  0.57979  0.24002  0.93181  1.0000
  H   H4274     1.0  0.49998  0.22830  0.99002  1.0000
  H   H4275     1.0  0.50325  0.16260  0.90791  1.0000
  C   C2494     1.0  0.49910  0.05243  0.81893  1.0000
  H   H4276     1.0  0.64074  0.24098  0.95113  1.0000
  C   C2495     1.0  0.49995  0.15773  0.91657  1.0000
  C   C2496     1.0  0.49918  0.06424  0.79540  1.0000
  S   S715      1.0  0.49956  0.04434  0.83338  1.0000
  H   H4277     1.0  0.54326  0.24237  0.93544  1.0000
  Fe  Fe362     1.0  0.49595  0.06037  0.77028  1.0000
  C   C2497     1.0  0.57025  0.24264  0.98152  1.0000
  H   H4278     1.0  0.55158  0.24272  0.96527  1.0000
  H   H4279     1.0  0.49650  0.20207  0.89976  1.0000
  H   H4280     1.0  0.80031  0.45901  0.02116  1.0000
  C   C2498     1.0  0.94160  0.48822  0.23759  1.0000
  C   C2499     1.0  0.55781  0.30876  0.02014  1.0000
  Fe  Fe363     1.0  0.66409  0.41840  0.00120  1.0000
  C   C2500     1.0  0.90738  0.48826  0.99437  1.0000
  H   H4281     1.0  0.58511  0.32130  0.02014  1.0000
  H   H4282     1.0  0.96720  0.46315  0.14309  1.0000
  H   H4283     1.0  0.62445  0.46709  0.00125  1.0000
  H   H4284     1.0  0.98387  0.46843  0.17047  1.0000
  C   C2501     1.0  0.84239  0.40046  0.00523  1.0000
  H   H4285     1.0  0.85262  0.49190  0.06765  1.0000
  S   S716      1.0  0.67094  0.42422  0.01367  1.0000
  H   H4286     1.0  0.58386  0.31546  0.00351  1.0000
  C   C2502     1.0  0.82601  0.44164  0.10210  1.0000
  H   H4287     1.0  0.76228  0.45416  0.08446  1.0000
  C   C2503     1.0  0.91611  0.48509  0.07234  1.0000
  C   C2504     1.0  0.98670  0.45889  0.13866  1.0000
  H   H4288     1.0  0.54047  0.25360  0.00933  1.0000
  Fe  Fe364     1.0  0.57737  0.26261  0.01216  1.0000
  S   S717      1.0  0.59399  0.25853  0.01841  1.0000
  S   S718      1.0  0.56196  0.27610  0.01938  1.0000
  H   H4289     1.0  0.59092  0.25013  0.04590  1.0000
  H   H4290     1.0  0.76886  0.47752  0.07387  1.0000
  C   C2505     1.0  0.81758  0.38529  0.00599  1.0000
  H   H4291     1.0  0.76574  0.48576  0.05567  1.0000
  H   H4292     1.0  0.85052  0.44031  0.99438  1.0000
  H   H4293     1.0  0.97383  0.45596  0.13122  1.0000
  H   H4294     1.0  0.55567  0.31504  0.02596  1.0000
  H   H4295     1.0  0.71476  0.46971  0.02284  1.0000
  H   H4296     1.0  0.70959  0.44390  0.06521  1.0000
  C   C2506     1.0  0.76012  0.47770  0.08005  1.0000
  Fe  Fe365     1.0  0.75382  0.40191  0.03913  1.0000
  S   S719      1.0  0.75946  0.41517  0.02311  1.0000
  S   S720      1.0  0.76689  0.39490  0.05077  1.0000
  Fe  Fe366     1.0  0.73140  0.40267  0.03204  1.0000
  S   S721      1.0  0.73528  0.41606  0.01564  1.0000
  S   S722      1.0  0.71522  0.39554  0.03530  1.0000
  Fe  Fe367     1.0  0.75380  0.40532  0.01358  1.0000
  H   H4297     1.0  0.92062  0.49044  0.19597  1.0000
  Fe  Fe368     1.0  0.74073  0.42480  0.02646  1.0000
  S   S723      1.0  0.73816  0.44442  0.02200  1.0000
  S   S724      1.0  0.74968  0.39102  0.02920  1.0000
  S   S725      1.0  0.73517  0.41232  0.04346  1.0000
  H   H4298     1.0  0.95340  0.49105  0.21555  1.0000
  H   H4299     1.0  0.88885  0.43448  0.06183  1.0000
  H   H4300     1.0  0.51767  0.32194  0.99366  1.0000
  C   C2507     1.0  0.70813  0.43678  0.04015  1.0000
  C   C2508     1.0  0.88162  0.43066  0.04924  1.0000
  S   S726      1.0  0.59635  0.35118  0.99274  1.0000
  H   H4301     1.0  0.77042  0.46541  0.99361  1.0000
  C   C2509     1.0  0.90232  0.48293  0.00583  1.0000
  H   H4302     1.0  0.71061  0.45108  0.02464  1.0000
  Fe  Fe369     1.0  0.97803  0.44103  0.20551  1.0000
  C   C2510     1.0  0.92933  0.48444  0.08462  1.0000
  H   H4303     1.0  0.76689  0.47152  0.05296  1.0000
  H   H4304     1.0  0.72613  0.47983  0.09579  1.0000
  C   C2511     1.0  0.98250  0.47578  0.16284  1.0000
  H   H4305     1.0  0.81944  0.38536  0.03983  1.0000
  H   H4306     1.0  0.59216  0.37775  0.00788  1.0000
  H   H4307     1.0  0.78906  0.41978  0.01771  1.0000
  H   H4308     1.0  0.76139  0.44296  0.07081  1.0000
  Fe  Fe370     1.0  0.82752  0.44519  0.03616  1.0000
  S   S727      1.0  0.81658  0.44361  0.05445  1.0000
  S   S728      1.0  0.83141  0.46237  0.02565  1.0000
  Fe  Fe371     1.0  0.83161  0.41959  0.03645  1.0000
  S   S729      1.0  0.82113  0.41553  0.05501  1.0000
  S   S730      1.0  0.84085  0.40546  0.02621  1.0000
  Fe  Fe372     1.0  0.80816  0.43214  0.04935  1.0000
  S   S731      1.0  0.78830  0.43579  0.05300  1.0000
  Fe  Fe373     1.0  0.83048  0.42741  0.05841  1.0000
  S   S732      1.0  0.83787  0.42356  0.07445  1.0000
  S   S733      1.0  0.81792  0.43528  0.03051  1.0000
  S   S734      1.0  0.84207  0.42988  0.04040  1.0000
  N   N178      1.0  0.57221  0.25390  0.05383  1.0000
  H   H4309     1.0  0.83473  0.44355  0.10085  1.0000
  H   H4310     1.0  0.93808  0.48203  0.08629  1.0000
  H   H4311     1.0  0.98761  0.46664  0.13122  1.0000
  S   S735      1.0  0.98272  0.47403  0.10759  1.0000
  C   C2512     1.0  0.80192  0.48172  0.04244  1.0000
  C   C2513     1.0  0.91019  0.47307  0.16393  1.0000
  S   S736      1.0  0.94186  0.46802  0.15374  1.0000
  H   H4312     1.0  0.72335  0.46311  0.00456  1.0000
  S   S737      1.0  0.72430  0.46405  0.06717  1.0000
  C   C2514     1.0  0.54576  0.30765  0.01933  1.0000
  S   S738      1.0  0.94901  0.47338  0.11980  1.0000
  H   H4313     1.0  0.98046  0.47933  0.14505  1.0000
  H   H4314     1.0  0.74696  0.44925  0.07819  1.0000
  H   H4315     1.0  0.73097  0.48843  0.08169  1.0000
  H   H4316     1.0  0.69343  0.42220  0.04286  1.0000
  Fe  Fe374     1.0  0.88766  0.47483  0.03766  1.0000
  S   S739      1.0  0.89551  0.46416  0.05306  1.0000
  S   S740      1.0  0.88858  0.46830  0.02164  1.0000
  Fe  Fe375     1.0  0.87721  0.46808  0.06393  1.0000
  S   S741      1.0  0.87097  0.45355  0.07855  1.0000
  Fe  Fe376     1.0  0.89697  0.48132  0.05566  1.0000
  H   H4317     1.0  0.64315  0.47012  0.00568  1.0000
  S   S742      1.0  0.86922  0.47737  0.04849  1.0000
  H   H4318     1.0  0.81110  0.43464  0.08841  1.0000
  S   S743      1.0  0.57700  0.24368  0.01486  1.0000
  C   C2515     1.0  0.94571  0.47088  0.16538  1.0000
  C   C2516     1.0  0.74175  0.47033  0.08545  1.0000
  H   H4319     1.0  0.97401  0.44751  0.14574  1.0000
  Fe  Fe377     1.0  0.93770  0.49070  0.11259  1.0000
  H   H4320     1.0  0.68004  0.46358  0.04379  1.0000
  C   C2517     1.0  0.94564  0.46239  0.17589  1.0000
  C   C2518     1.0  0.83367  0.42374  0.99467  1.0000
  H   H4321     1.0  0.70935  0.42970  0.07449  1.0000
  H   H4322     1.0  0.55086  0.26840  0.07052  1.0000
  H   H4323     1.0  0.94396  0.45394  0.17647  1.0000
  C   C2519     1.0  0.80843  0.40159  0.03146  1.0000
  C   C2520     1.0  0.76452  0.45899  0.03547  1.0000
  H   H4324     1.0  0.97684  0.43915  0.17022  1.0000
  H   H4325     1.0  0.54568  0.25538  0.07406  1.0000
  H   H4326     1.0  0.66935  0.44755  0.99850  1.0000
  Fe  Fe378     1.0  0.71416  0.48186  0.05999  1.0000
  C   C2521     1.0  0.98042  0.47176  0.15277  1.0000
  C   C2522     1.0  0.90669  0.49064  0.08009  1.0000
  H   H4327     1.0  0.99009  0.48004  0.15983  1.0000
  H   H4328     1.0  0.56614  0.40090  0.99416  1.0000
  C   C2523     1.0  0.70897  0.38469  0.00566  1.0000
  H   H4329     1.0  0.71167  0.48478  0.01583  1.0000
  H   H4330     1.0  0.53784  0.28272  0.03203  1.0000
  C   C2524     1.0  0.94913  0.47588  0.18524  1.0000
  H   H4331     1.0  0.54811  0.26320  0.05923  1.0000
  H   H4332     1.0  0.99305  0.44203  0.15580  1.0000
  C   C2525     1.0  0.89168  0.47417  0.99779  1.0000
  C   C2526     1.0  0.81808  0.47250  0.02858  1.0000
  C   C2527     1.0  0.81279  0.47939  0.01938  1.0000
  C   C2528     1.0  0.80197  0.48736  0.02168  1.0000
  C   C2529     1.0  0.57291  0.27554  0.05148  1.0000
  H   H4333     1.0  0.73142  0.47521  0.04289  1.0000
  C   C2530     1.0  0.81262  0.47359  0.04013  1.0000
  H   H4334     1.0  0.81698  0.47835  0.01051  1.0000
  H   H4335     1.0  0.79194  0.46038  0.99901  1.0000
  H   H4336     1.0  0.97532  0.45168  0.17556  1.0000
  Fe  Fe379     1.0  0.96788  0.44694  0.22953  1.0000
  C   C2531     1.0  0.84731  0.43202  0.07482  1.0000
  C   C2532     1.0  0.85270  0.42874  0.08435  1.0000
  C   C2533     1.0  0.85992  0.43543  0.08529  1.0000
  C   C2534     1.0  0.86192  0.44546  0.07667  1.0000
  C   C2535     1.0  0.85659  0.44878  0.06704  1.0000
  C   C2536     1.0  0.84922  0.44209  0.06615  1.0000
  H   H4337     1.0  0.85123  0.42101  0.09112  1.0000
  H   H4338     1.0  0.86397  0.43280  0.09277  1.0000
  H   H4339     1.0  0.85796  0.45661  0.06042  1.0000
  H   H4340     1.0  0.84485  0.44480  0.05889  1.0000
  H   H4341     1.0  0.51942  0.28265  0.00418  1.0000
  C   C2537     1.0  0.75022  0.47822  0.06491  1.0000
  H   H4342     1.0  0.88374  0.40868  0.04393  1.0000
  H   H4343     1.0  0.88975  0.41359  0.02839  1.0000
  H   H4344     1.0  0.89278  0.44516  0.00977  1.0000
  H   H4345     1.0  0.75274  0.45550  0.06302  1.0000
  H   H4346     1.0  0.76755  0.48598  0.02319  1.0000
  C   C2538     1.0  0.58475  0.38071  0.00331  1.0000
  H   H4347     1.0  0.76479  0.47978  0.09524  1.0000
  N   N179      1.0  0.56609  0.31265  0.00874  1.0000
  H   H4348     1.0  0.79245  0.46454  0.10223  1.0000
  H   H4349     1.0  0.82477  0.39018  0.01763  1.0000
  C   C2539     1.0  0.70971  0.43472  0.06527  1.0000
  H   H4350     1.0  0.54026  0.31630  0.01602  1.0000
  H   H4351     1.0  0.56897  0.27486  0.06098  1.0000
  H   H4352     1.0  0.78818  0.47834  0.09284  1.0000
  C   C2540     1.0  0.89455  0.47577  0.00754  1.0000
  C   C2541     1.0  0.85236  0.46657  0.99706  1.0000
  H   H4353     1.0  0.78107  0.45148  0.99366  1.0000
  Fe  Fe380     1.0  0.94529  0.48027  0.13608  1.0000
  S   S744      1.0  0.60825  0.31780  0.00324  1.0000
  H   H4354     1.0  0.81538  0.38030  0.02459  1.0000
  S   S745      1.0  0.97987  0.45937  0.19653  1.0000
  C   C2542     1.0  0.83977  0.40933  0.01145  1.0000
  C   C2543     1.0  0.83572  0.42102  0.00603  1.0000
  N   N180      1.0  0.71964  0.47972  0.99214  1.0000
  H   H4355     1.0  0.57646  0.24645  0.03855  1.0000
  H   H4356     1.0  0.92186  0.47408  0.17352  1.0000
  H   H4357     1.0  0.55456  0.25718  0.04082  1.0000
  H   H4358     1.0  0.83413  0.42797  0.01058  1.0000
  C   C2544     1.0  0.68961  0.46335  0.04082  1.0000
  H   H4359     1.0  0.87346  0.42936  0.05605  1.0000
  H   H4360     1.0  0.84580  0.39144  0.00928  1.0000
  H   H4361     1.0  0.90644  0.48837  0.19668  1.0000
  C   C2545     1.0  0.71233  0.47583  0.01478  1.0000
  H   H4362     1.0  0.56906  0.28447  0.04680  1.0000
  H   H4363     1.0  0.53682  0.28972  0.99763  1.0000
  C   C2546     1.0  0.52851  0.27203  0.02825  1.0000
  H   H4364     1.0  0.71016  0.42706  0.04122  1.0000
  H   H4365     1.0  0.82333  0.44652  0.07734  1.0000
  C   C2547     1.0  0.73717  0.44952  0.03438  1.0000
  C   C2548     1.0  0.73732  0.44178  0.04531  1.0000
  C   C2549     1.0  0.73440  0.44616  0.05552  1.0000
  C   C2550     1.0  0.73147  0.45828  0.05469  1.0000
  C   C2551     1.0  0.73289  0.46589  0.04364  1.0000
  C   C2552     1.0  0.73550  0.46155  0.03348  1.0000
  H   H4366     1.0  0.73912  0.43246  0.04600  1.0000
  H   H4367     1.0  0.73370  0.44021  0.06405  1.0000
  C   C2553     1.0  0.94797  0.48175  0.16465  1.0000
  H   H4368     1.0  0.73583  0.46757  0.02501  1.0000
  C   C2554     1.0  0.78218  0.42423  0.05314  1.0000
  C   C2555     1.0  0.78780  0.41245  0.05657  1.0000
  C   C2556     1.0  0.78281  0.40342  0.05631  1.0000
  C   C2557     1.0  0.77243  0.40616  0.05227  1.0000
  C   C2558     1.0  0.76673  0.41792  0.04910  1.0000
  C   C2559     1.0  0.77146  0.42689  0.04977  1.0000
  H   H4369     1.0  0.79589  0.41031  0.05954  1.0000
  H   H4370     1.0  0.78705  0.39432  0.05912  1.0000
  H   H4371     1.0  0.75856  0.42009  0.04628  1.0000
  H   H4372     1.0  0.76679  0.43588  0.04761  1.0000
  C   C2560     1.0  0.88698  0.43874  0.05298  1.0000
  H   H4373     1.0  0.68365  0.47408  0.01015  1.0000
  C   C2561     1.0  0.66752  0.36670  0.99803  1.0000
  H   H4374     1.0  0.81580  0.41106  0.00837  1.0000
  H   H4375     1.0  0.69114  0.43596  0.06805  1.0000
  H   H4376     1.0  0.88237  0.43617  0.01353  1.0000
  H   H4377     1.0  0.91179  0.46334  0.16683  1.0000
  H   H4378     1.0  0.80087  0.40825  0.03504  1.0000
  H   H4379     1.0  0.79819  0.42771  0.00562  1.0000
  C   C2562     1.0  0.70801  0.44254  0.02716  1.0000
  C   C2563     1.0  0.78877  0.39626  0.01437  1.0000
  H   H4380     1.0  0.80681  0.47598  0.07884  1.0000
  C   C2564     1.0  0.88157  0.41334  0.03530  1.0000
  C   C2565     1.0  0.57730  0.31289  0.01165  1.0000
  H   H4381     1.0  0.67868  0.44325  0.05417  1.0000
  H   H4382     1.0  0.72917  0.40895  0.99493  1.0000
  Fe  Fe381     1.0  0.96196  0.46458  0.20759  1.0000
  H   H4383     1.0  0.60761  0.27621  0.01153  1.0000
  H   H4384     1.0  0.83338  0.48811  0.07949  1.0000
  H   H4385     1.0  0.60464  0.29521  0.01699  1.0000
  C   C2566     1.0  0.68393  0.41579  0.01826  1.0000
  C   C2567     1.0  0.68481  0.40401  0.02411  1.0000
  C   C2568     1.0  0.69447  0.39790  0.02924  1.0000
  C   C2569     1.0  0.70347  0.40340  0.02832  1.0000
  C   C2570     1.0  0.70282  0.41505  0.02206  1.0000
  C   C2571     1.0  0.69297  0.42130  0.01725  1.0000
  H   H4386     1.0  0.67778  0.39975  0.02512  1.0000
  H   H4387     1.0  0.69490  0.38889  0.03407  1.0000
  H   H4388     1.0  0.70972  0.41933  0.02123  1.0000
  H   H4389     1.0  0.69232  0.43043  0.01280  1.0000
  C   C2572     1.0  0.69920  0.43372  0.06116  1.0000
  H   H4390     1.0  0.54645  0.30123  0.01412  1.0000
  H   H4391     1.0  0.70053  0.42420  0.06146  1.0000
  C   C2573     1.0  0.69665  0.45379  0.04920  1.0000
  C   C2574     1.0  0.97469  0.45626  0.13998  1.0000
  H   H4392     1.0  0.77888  0.48947  0.01084  1.0000
  H   H4393     1.0  0.71619  0.43831  0.04149  1.0000
  C   C2575     1.0  0.55167  0.26049  0.06723  1.0000
  C   C2576     1.0  0.60780  0.29455  0.00789  1.0000
  C   C2577     1.0  0.75218  0.42707  0.99311  1.0000
  H   H4394     1.0  0.76574  0.45201  0.99672  1.0000
  H   H4395     1.0  0.57858  0.40822  0.99968  1.0000
  H   H4396     1.0  0.79121  0.46542  0.08735  1.0000
  Fe  Fe382     1.0  0.64901  0.40652  0.99364  1.0000
  S   S746      1.0  0.66721  0.40053  0.99748  1.0000
  C   C2578     1.0  0.57031  0.24593  0.04733  1.0000
  H   H4397     1.0  0.90735  0.47413  0.18193  1.0000
  C   C2579     1.0  0.99181  0.48406  0.10338  1.0000
  H   H4398     1.0  0.82670  0.43595  0.09612  1.0000
  C   C2580     1.0  0.81639  0.45307  0.10051  1.0000
  H   H4399     1.0  0.58728  0.25606  0.05862  1.0000
  C   C2581     1.0  0.80611  0.44392  0.08643  1.0000
  C   C2582     1.0  0.87030  0.44637  0.03664  1.0000
  H   H4400     1.0  0.54087  0.30433  0.02832  1.0000
  H   H4401     1.0  0.89773  0.42958  0.01176  1.0000
  H   H4402     1.0  0.62493  0.37476  0.00627  1.0000
  H   H4403     1.0  0.74499  0.48723  0.06563  1.0000
  H   H4404     1.0  0.82563  0.48495  0.04764  1.0000
  H   H4405     1.0  0.51927  0.30139  0.99846  1.0000
  N   N181      1.0  0.69757  0.44109  0.04922  1.0000
  H   H4406     1.0  0.55661  0.33067  0.00885  1.0000
  H   H4407     1.0  0.88561  0.46872  0.99913  1.0000
  N   N182      1.0  0.75312  0.47135  0.07655  1.0000
  C   C2583     1.0  0.68627  0.43967  0.04749  1.0000
  H   H4408     1.0  0.80878  0.45864  0.00671  1.0000
  H   H4409     1.0  0.69232  0.45568  0.05810  1.0000
  S   S747      1.0  0.98626  0.44007  0.22010  1.0000
  H   H4410     1.0  0.72478  0.37994  0.99270  1.0000
  Fe  Fe383     1.0  0.50065  0.26960  0.02967  1.0000
  H   H4411     1.0  0.53868  0.35680  0.99787  1.0000
  C   C2584     1.0  0.57048  0.26630  0.04654  1.0000
  H   H4412     1.0  0.78258  0.40489  0.01268  1.0000
  H   H4413     1.0  0.76503  0.45675  0.04481  1.0000
  C   C2585     1.0  0.64766  0.48078  0.01450  1.0000
  H   H4414     1.0  0.84665  0.46054  0.99826  1.0000
  H   H4415     1.0  0.87063  0.45877  0.99751  1.0000
  H   H4416     1.0  0.97465  0.48245  0.16595  1.0000
  H   H4417     1.0  0.56724  0.38181  0.99396  1.0000
  H   H4418     1.0  0.99462  0.45361  0.23536  1.0000
  H   H4419     1.0  0.92634  0.49232  0.17463  1.0000
  S   S748      1.0  0.70719  0.48379  0.04423  1.0000
  H   H4420     1.0  0.56208  0.30008  0.02502  1.0000
  H   H4421     1.0  0.93843  0.47632  0.22862  1.0000
  H   H4422     1.0  0.79823  0.47170  0.00910  1.0000
  H   H4423     1.0  0.75749  0.48434  0.04637  1.0000
  H   H4424     1.0  0.83433  0.48708  0.02750  1.0000
  H   H4425     1.0  0.73996  0.39326  0.00766  1.0000
  H   H4426     1.0  0.75619  0.42706  0.99997  1.0000
  S   S749      1.0  0.98427  0.42744  0.19464  1.0000
  H   H4427     1.0  0.79488  0.39481  0.00602  1.0000
  H   H4428     1.0  0.80108  0.42433  0.01992  1.0000
  H   H4429     1.0  0.58250  0.27495  0.04981  1.0000
  H   H4430     1.0  0.82380  0.47832  0.06833  1.0000
  H   H4431     1.0  0.56844  0.25553  0.07182  1.0000
  C   C2586     1.0  0.67277  0.46720  0.00350  1.0000
  C   C2587     1.0  0.89045  0.43580  0.02821  1.0000
  C   C2588     1.0  0.55189  0.32609  0.99517  1.0000
  C   C2589     1.0  0.61387  0.28281  0.99308  1.0000
  C   C2590     1.0  0.80679  0.40940  0.01113  1.0000
  H   H4432     1.0  0.68052  0.46059  0.00000  1.0000
  H   H4433     1.0  0.68435  0.44487  0.03892  1.0000
  C   C2591     1.0  0.97679  0.44868  0.16732  1.0000
  C   C2592     1.0  0.87352  0.42567  0.03569  1.0000
  C   C2593     1.0  0.91567  0.48714  0.19164  1.0000
  H   H4434     1.0  0.79777  0.48260  0.05136  1.0000
  C   C2594     1.0  0.77578  0.48199  0.01750  1.0000
  C   C2595     1.0  0.79454  0.39538  0.02450  1.0000
  H   H4435     1.0  0.64083  0.45640  0.02269  1.0000
  N   N183      1.0  0.66160  0.46287  0.00626  1.0000
  N   N184      1.0  0.80632  0.39868  0.02102  1.0000
  H   H4436     1.0  0.81615  0.40570  0.02879  1.0000
  H   H4437     1.0  0.81679  0.46837  0.04726  1.0000
  H   H4438     1.0  0.57229  0.33066  0.01554  1.0000
  H   H4439     1.0  0.81186  0.45803  0.07250  1.0000
  C   C2596     1.0  0.76044  0.45916  0.07574  1.0000
  H   H4440     1.0  0.67247  0.47536  0.99642  1.0000
  C   C2597     1.0  0.67611  0.46975  0.01373  1.0000
  C   C2598     1.0  0.53994  0.25970  0.01453  1.0000
  H   H4441     1.0  0.77642  0.47687  0.00165  1.0000
  H   H4442     1.0  0.89324  0.44364  0.02849  1.0000
  H   H4443     1.0  0.77046  0.46508  0.09237  1.0000
  H   H4444     1.0  0.90463  0.48415  0.01331  1.0000
  H   H4445     1.0  0.84757  0.49036  0.00720  1.0000
  H   H4446     1.0  0.82936  0.46437  0.06383  1.0000
  H   H4447     1.0  0.73606  0.46701  0.08204  1.0000
  H   H4448     1.0  0.94807  0.48833  0.15656  1.0000
  C   C2599     1.0  0.89064  0.43669  0.01519  1.0000
  C   C2600     1.0  0.81620  0.38851  0.01778  1.0000
  S   S750      1.0  0.58619  0.26427  0.99313  1.0000
  S   S751      1.0  0.94992  0.47942  0.19800  1.0000
  C   C2601     1.0  0.60940  0.28382  0.00479  1.0000
  H   H4449     1.0  0.83532  0.45527  0.08316  1.0000
  H   H4450     1.0  0.70557  0.45565  0.04719  1.0000
  H   H4451     1.0  0.78247  0.47796  0.02282  1.0000
  H   H4452     1.0  0.99522  0.41804  0.24057  1.0000
  C   C2602     1.0  0.65109  0.47304  0.00544  1.0000
  H   H4453     1.0  0.57825  0.38786  0.00717  1.0000
  H   H4454     1.0  0.69269  0.46232  0.03163  1.0000
  Fe  Fe384     1.0  0.96375  0.48290  0.11350  1.0000
  H   H4455     1.0  0.96915  0.45288  0.16325  1.0000
  H   H4456     1.0  0.80791  0.45071  0.10530  1.0000
  H   H4457     1.0  0.71933  0.40190  0.00653  1.0000
  H   H4458     1.0  0.75985  0.46832  0.03339  1.0000
  H   H4459     1.0  0.74328  0.46361  0.09354  1.0000
  C   C2603     1.0  0.84001  0.40312  0.99402  1.0000
  H   H4460     1.0  0.76349  0.47560  0.01267  1.0000
  C   C2604     1.0  0.76080  0.47992  0.05451  1.0000
  H   H4461     1.0  0.73871  0.48566  0.09330  1.0000
  H   H4462     1.0  0.69956  0.44357  0.02486  1.0000
  S   S752      1.0  0.95947  0.44617  0.21551  1.0000
  H   H4463     1.0  0.70361  0.47490  0.01453  1.0000
  H   H4464     1.0  0.51673  0.27124  0.99947  1.0000
  N   N185      1.0  0.81623  0.45955  0.08797  1.0000
  H   H4465     1.0  0.88082  0.44728  0.05390  1.0000
  S   S753      1.0  0.89077  0.49168  0.03901  1.0000
  H   H4466     1.0  0.75929  0.45327  0.03466  1.0000
  C   C2605     1.0  0.66014  0.45451  0.01810  1.0000
  C   C2606     1.0  0.73642  0.39083  0.00142  1.0000
  Fe  Fe385     1.0  0.98638  0.45893  0.21208  1.0000
  S   S754      1.0  0.96860  0.46592  0.22254  1.0000
  C   C2607     1.0  0.57615  0.32144  0.01943  1.0000
  C   C2608     1.0  0.85830  0.43843  0.99819  1.0000
  H   H4467     1.0  0.87729  0.47164  0.10518  1.0000
  C   C2609     1.0  0.79655  0.48852  0.03321  1.0000
  H   H4468     1.0  0.64890  0.44358  0.03086  1.0000
  H   H4469     1.0  0.85210  0.46745  0.00599  1.0000
  C   C2610     1.0  0.81470  0.45223  0.08056  1.0000
  H   H4470     1.0  0.54353  0.33216  0.99835  1.0000
  S   S755      1.0  0.91412  0.48111  0.06011  1.0000
  C   C2611     1.0  0.79400  0.46941  0.09297  1.0000
  H   H4471     1.0  0.65989  0.45862  0.02526  1.0000
  C   C2612     1.0  0.79820  0.42089  0.01390  1.0000
  C   C2613     1.0  0.80677  0.47073  0.08793  1.0000
  C   C2614     1.0  0.55787  0.24807  0.04532  1.0000
  H   H4472     1.0  0.82921  0.46869  0.08792  1.0000
  H   H4473     1.0  0.52029  0.27511  0.03405  1.0000
  C   C2615     1.0  0.77230  0.45600  0.99805  1.0000
  H   H4474     1.0  0.85608  0.44254  0.00584  1.0000
  H   H4475     1.0  0.86037  0.42877  0.00170  1.0000
  H   H4476     1.0  0.75603  0.48723  0.07912  1.0000
  H   H4477     1.0  0.71306  0.38493  0.01264  1.0000
  H   H4478     1.0  0.95077  0.48283  0.23703  1.0000
  H   H4479     1.0  0.76927  0.45944  0.06987  1.0000
  N   N186      1.0  0.90021  0.45626  0.09713  1.0000
  C   C2616     1.0  0.90989  0.46076  0.09871  1.0000
  C   C2617     1.0  0.89218  0.46649  0.09086  1.0000
  C   C2618     1.0  0.90506  0.44700  0.08989  1.0000
  C   C2619     1.0  0.89369  0.45089  0.10903  1.0000
  C   C2620     1.0  0.91978  0.45142  0.10388  1.0000
  C   C2621     1.0  0.88416  0.47545  0.09823  1.0000
  C   C2622     1.0  0.91311  0.45058  0.07780  1.0000
  C   C2623     1.0  0.88310  0.44620  0.10912  1.0000
  H   H4480     1.0  0.91416  0.46577  0.09024  1.0000
  H   H4481     1.0  0.90629  0.46717  0.10453  1.0000
  H   H4482     1.0  0.88647  0.46349  0.08713  1.0000
  H   H4483     1.0  0.89738  0.47150  0.08302  1.0000
  H   H4484     1.0  0.90999  0.43878  0.09478  1.0000
  H   H4485     1.0  0.89776  0.44438  0.08814  1.0000
  H   H4486     1.0  0.89967  0.44321  0.11342  1.0000
  H   H4487     1.0  0.89080  0.45700  0.11516  1.0000
  H   H4488     1.0  0.91655  0.44699  0.11307  1.0000
  H   H4489     1.0  0.65246  0.47920  0.99674  1.0000
  H   H4490     1.0  0.87950  0.48305  0.09243  1.0000
  C   C2624     1.0  0.56092  0.32485  0.00247  1.0000
  H   H4491     1.0  0.90844  0.45825  0.07215  1.0000
  H   H4492     1.0  0.91591  0.44322  0.07318  1.0000
  H   H4493     1.0  0.92122  0.45252  0.07852  1.0000
  H   H4494     1.0  0.88592  0.43683  0.10845  1.0000
  H   H4495     1.0  0.87849  0.45119  0.10197  1.0000
  H   H4496     1.0  0.87639  0.44702  0.11741  1.0000
  N   N187      1.0  0.77818  0.46071  0.01489  1.0000
  C   C2625     1.0  0.77127  0.45419  0.01137  1.0000
  C   C2626     1.0  0.77711  0.45649  0.02796  1.0000
  C   C2627     1.0  0.79089  0.45730  0.00869  1.0000
  C   C2628     1.0  0.77326  0.47376  0.01125  1.0000
  S   S756      1.0  0.62507  0.49146  0.99347  1.0000
  H   H4497     1.0  0.68430  0.42188  0.05749  1.0000
  C   C2629     1.0  0.79985  0.46201  0.01179  1.0000
  C   C2630     1.0  0.98891  0.45016  0.15928  1.0000
  H   H4498     1.0  0.77386  0.44453  0.01489  1.0000
  H   H4499     1.0  0.76169  0.45678  0.01524  1.0000
  H   H4500     1.0  0.78244  0.46020  0.03139  1.0000
  H   H4501     1.0  0.78075  0.44682  0.03018  1.0000
  H   H4502     1.0  0.79395  0.44755  0.01039  1.0000
  H   H4503     1.0  0.98236  0.48230  0.20117  1.0000
  C   C2631     1.0  0.56939  0.30347  0.00147  1.0000
  H   H4504     1.0  0.57374  0.29484  0.00633  1.0000
  C   C2632     1.0  0.52158  0.27839  0.99668  1.0000
  H   H4505     1.0  0.86237  0.44547  0.04378  1.0000
  H   H4506     1.0  0.80843  0.47640  0.09282  1.0000
  H   H4507     1.0  0.97126  0.47068  0.15538  1.0000
  H   H4508     1.0  0.92646  0.45593  0.10411  1.0000
  S   S757      1.0  0.64529  0.42383  0.99913  1.0000
  C   C2633     1.0  0.68559  0.42698  0.04827  1.0000
  N   N188      1.0  0.98908  0.46093  0.14938  1.0000
  H   H4509     1.0  0.67786  0.42721  0.04498  1.0000
  H   H4510     1.0  0.92442  0.44484  0.09842  1.0000
  C   C2634     1.0  0.73412  0.48181  0.08915  1.0000
  H   H4511     1.0  0.89544  0.44020  0.04698  1.0000
  N   N189      1.0  0.87907  0.43469  0.03706  1.0000
  H   H4512     1.0  0.74443  0.47429  0.06228  1.0000
  S   S758      1.0  0.76323  0.40409  0.99514  1.0000
  C   C2635     1.0  0.56442  0.25292  0.06602  1.0000
  H   H4513     1.0  0.82391  0.43648  0.11123  1.0000
  H   H4514     1.0  0.67656  0.36120  0.99631  1.0000
  C   C2636     1.0  0.76284  0.47273  0.09240  1.0000
  H   H4515     1.0  0.86985  0.42852  0.02774  1.0000
  H   H4516     1.0  0.71452  0.43672  0.02158  1.0000
  C   C2637     1.0  0.99502  0.48137  0.21092  1.0000
  C   C2638     1.0  0.94751  0.46481  0.18574  1.0000
  H   H4517     1.0  0.63816  0.48511  0.01547  1.0000
  H   H4518     1.0  0.71820  0.43070  0.06000  1.0000
  H   H4519     1.0  0.87397  0.45306  0.03815  1.0000
  C   C2639     1.0  0.53840  0.27638  0.02706  1.0000
  H   H4520     1.0  0.93483  0.47786  0.06867  1.0000
  H   H4521     1.0  0.80374  0.38599  0.04468  1.0000
  H   H4522     1.0  0.86576  0.42448  0.04308  1.0000
  H   H4523     1.0  0.69057  0.47212  0.04094  1.0000
  H   H4524     1.0  0.50568  0.24485  0.06363  1.0000
  H   H4525     1.0  0.83889  0.47132  0.06692  1.0000
  H   H4526     1.0  0.64855  0.47583  0.02344  1.0000
  H   H4527     1.0  0.57120  0.31874  0.02853  1.0000
  H   H4528     1.0  0.65430  0.45363  0.99806  1.0000
  C   C2640     1.0  0.54911  0.27213  0.01980  1.0000
  C   C2641     1.0  0.54976  0.26403  0.01336  1.0000
  H   H4529     1.0  0.90109  0.47622  0.16268  1.0000
  H   H4530     1.0  0.75529  0.47015  0.09925  1.0000
  S   S759      1.0  0.51760  0.25710  0.02422  1.0000
  C   C2642     1.0  0.64903  0.44943  0.02200  1.0000
  H   H4531     1.0  0.89772  0.42826  0.03065  1.0000
  H   H4532     1.0  0.81044  0.39462  0.04951  1.0000
  H   H4533     1.0  0.56149  0.26971  0.04493  1.0000
  H   H4534     1.0  0.58158  0.30396  0.01603  1.0000
  C   C2643     1.0  0.52942  0.26343  0.02222  1.0000
  C   C2644     1.0  0.75494  0.45142  0.07169  1.0000
  H   H4535     1.0  0.87678  0.40790  0.03322  1.0000
  H   H4536     1.0  0.87619  0.43937  0.99410  1.0000
  H   H4537     1.0  0.79963  0.44599  0.09441  1.0000
  H   H4538     1.0  0.64900  0.44388  0.01616  1.0000
  H   H4539     1.0  0.81755  0.45890  0.10554  1.0000
  H   H4540     1.0  0.79786  0.49267  0.01453  1.0000
  H   H4541     1.0  0.86137  0.44673  0.02285  1.0000
  H   H4542     1.0  0.94727  0.45825  0.19388  1.0000
  H   H4543     1.0  0.73386  0.38237  0.00593  1.0000
  H   H4544     1.0  0.66895  0.47575  0.01855  1.0000
  H   H4545     1.0  0.87291  0.45503  0.01788  1.0000
  H   H4546     1.0  0.56391  0.24358  0.07000  1.0000
  H   H4547     1.0  0.88793  0.42198  0.05017  1.0000
  H   H4548     1.0  0.85911  0.46036  0.02665  1.0000
  H   H4549     1.0  0.67900  0.46146  0.01995  1.0000
  H   H4550     1.0  0.57624  0.26651  0.03759  1.0000
  H   H4551     1.0  0.80508  0.40817  0.00313  1.0000
  C   C2645     1.0  0.81059  0.39118  0.04190  1.0000
  H   H4552     1.0  0.79511  0.38632  0.03004  1.0000
  C   C2646     1.0  0.86584  0.45218  0.02525  1.0000
  S   S760      1.0  0.49632  0.28806  0.01930  1.0000
  S   S761      1.0  0.63722  0.39330  0.00034  1.0000
  C   C2647     1.0  0.94952  0.48430  0.17464  1.0000
  H   H4553     1.0  0.78328  0.38964  0.01717  1.0000
  C   C2648     1.0  0.82789  0.46309  0.08275  1.0000
  H   H4554     1.0  0.88919  0.47901  0.10217  1.0000
  H   H4555     1.0  0.78804  0.40124  0.03012  1.0000
  H   H4556     1.0  0.80100  0.44420  0.08005  1.0000
  C   C2649     1.0  0.82989  0.46962  0.06972  1.0000
  H   H4557     1.0  0.66793  0.44697  0.01828  1.0000
  C   C2650     1.0  0.92745  0.48211  0.07462  1.0000
  H   H4558     1.0  0.55787  0.26111  0.00747  1.0000
  S   S762      1.0  0.87901  0.48459  0.06753  1.0000
  H   H4559     1.0  0.92507  0.48556  0.23548  1.0000
  C   C2651     1.0  0.61036  0.30441  0.99924  1.0000
  C   C2652     1.0  0.93409  0.48055  0.23625  1.0000
  H   H4560     1.0  0.83285  0.48874  0.00890  1.0000
  H   H4561     1.0  0.91647  0.47483  0.15536  1.0000
  H   H4562     1.0  0.88502  0.48783  0.17262  1.0000
  H   H4563     1.0  0.73018  0.47389  0.00535  1.0000
  H   H4564     1.0  0.65281  0.48767  0.01149  1.0000
  C   C2653     1.0  0.72587  0.40072  0.99823  1.0000
  H   H4565     1.0  0.66778  0.37597  0.99701  1.0000
  C   C2654     1.0  0.72196  0.47273  0.00399  1.0000
  H   H4566     1.0  0.50084  0.24529  0.04116  1.0000
  S   S763      1.0  0.96083  0.48833  0.13039  1.0000
  C   C2655     1.0  0.62538  0.37868  0.99703  1.0000
  H   H4567     1.0  0.54965  0.31785  0.99536  1.0000
  C   C2656     1.0  0.91246  0.47803  0.17326  1.0000
  H   H4568     1.0  0.70310  0.40854  0.99732  1.0000
  C   C2657     1.0  0.58495  0.24997  0.05478  1.0000
  H   H4569     1.0  0.66343  0.36363  0.00742  1.0000
  H   H4570     1.0  0.56803  0.32907  0.99640  1.0000
  H   H4571     1.0  0.70053  0.48378  0.99578  1.0000
  H   H4572     1.0  0.95089  0.49284  0.17421  1.0000
  Fe  Fe386     1.0  0.60290  0.25888  0.99951  1.0000
  H   H4573     1.0  0.73994  0.44355  0.99481  1.0000
  H   H4574     1.0  0.58075  0.37305  0.00519  1.0000
  C   C2658     1.0  0.98531  0.48689  0.20584  1.0000
  C   C2659     1.0  0.66272  0.45603  0.99719  1.0000
  H   H4575     1.0  0.91976  0.47763  0.19229  1.0000
  H   H4576     1.0  0.85178  0.48732  0.02775  1.0000
  C   C2660     1.0  0.90856  0.49293  0.09010  1.0000
  H   H4577     1.0  0.89403  0.49163  0.18507  1.0000
  H   H4578     1.0  0.99436  0.45015  0.16528  1.0000
  C   C2661     1.0  0.91987  0.48984  0.09246  1.0000
  H   H4579     1.0  0.70016  0.39073  0.00633  1.0000
  H   H4580     1.0  0.70752  0.37567  0.00753  1.0000
  H   H4581     1.0  0.56167  0.30162  0.99987  1.0000
  H   H4582     1.0  0.77808  0.43092  0.99317  1.0000
  H   H4583     1.0  0.61686  0.36644  0.99453  1.0000
  Fe  Fe387     1.0  0.58755  0.24481  0.99638  1.0000
  H   H4584     1.0  0.82602  0.37872  0.00434  1.0000
  H   H4585     1.0  0.81062  0.38090  0.00637  1.0000
  H   H4586     1.0  0.81819  0.39281  0.99836  1.0000
  H   H4587     1.0  0.53103  0.27409  0.99477  1.0000
  H   H4588     1.0  0.70723  0.46877  0.99546  1.0000
  S   S764      1.0  0.56339  0.35620  0.99213  1.0000
  H   H4589     1.0  0.65859  0.35645  0.99343  1.0000
  H   H4590     1.0  0.99325  0.45125  0.13560  1.0000
  S   S765      1.0  0.92149  0.49255  0.10552  1.0000
  H   H4591     1.0  0.74372  0.38961  0.99368  1.0000
  S   S766      1.0  0.69780  0.49300  0.06892  1.0000
  N   N190      1.0  0.91002  0.49125  0.17153  1.0000
  H   H4592     1.0  0.65102  0.37114  0.99283  1.0000
  C   C2662     1.0  0.63077  0.38828  0.99177  1.0000
  H   H4593     1.0  0.84826  0.47545  0.99255  1.0000
  H   H4594     1.0  0.63370  0.45006  0.99173  1.0000
  C   C2663     1.0  0.62958  0.46840  0.99232  1.0000
  C   C2664     1.0  0.71683  0.38729  0.99323  1.0000
  H   H4595     1.0  0.55159  0.24549  0.05366  1.0000
  H   H4596     1.0  0.94587  0.44318  0.34284  1.0000
  H   H4597     1.0  0.97647  0.43249  0.40972  1.0000
  H   H4598     1.0  0.98301  0.48579  0.24811  1.0000
  C   C2665     1.0  0.97035  0.31455  0.46734  1.0000
  H   H4599     1.0  0.94784  0.42666  0.37999  1.0000
  H   H4600     1.0  0.95874  0.40358  0.36141  1.0000
  H   H4601     1.0  0.97865  0.34093  0.47261  1.0000
  H   H4602     1.0  0.97110  0.32615  0.48947  1.0000
  H   H4603     1.0  0.98018  0.41730  0.43654  1.0000
  H   H4604     1.0  0.95651  0.41197  0.37913  1.0000
  H   H4605     1.0  0.96988  0.26557  0.43244  1.0000
  C   C2666     1.0  0.97112  0.25727  0.43872  1.0000
  Fe  Fe388     1.0  0.96546  0.28763  0.48729  1.0000
  C   C2667     1.0  0.96842  0.42746  0.34191  1.0000
  H   H4606     1.0  0.96605  0.48882  0.32686  1.0000
  C   C2668     1.0  0.97189  0.42587  0.41629  1.0000
  C   C2669     1.0  0.97421  0.32322  0.45774  1.0000
  S   S767      1.0  0.97614  0.44272  0.38532  1.0000
  C   C2670     1.0  0.95955  0.42542  0.36290  1.0000
  Fe  Fe389     1.0  0.96456  0.27120  0.47281  1.0000
  S   S768      1.0  0.98227  0.42360  0.31095  1.0000
  S   S769      1.0  0.96210  0.27050  0.45540  1.0000
  Fe  Fe390     1.0  0.95899  0.46407  0.29956  1.0000
  S   S770      1.0  0.97804  0.45604  0.29389  1.0000
  S   S771      1.0  0.94918  0.47135  0.28504  1.0000
  Fe  Fe391     1.0  0.96092  0.46096  0.32484  1.0000
  S   S772      1.0  0.98021  0.45270  0.32087  1.0000
  S   S773      1.0  0.95088  0.46481  0.34257  1.0000
  Fe  Fe392     1.0  0.98093  0.46684  0.30454  1.0000
  C   C2671     1.0  0.93075  0.26943  0.47639  1.0000
  Fe  Fe393     1.0  0.97516  0.44278  0.31080  1.0000
  H   H4607     1.0  0.94750  0.25734  0.47364  1.0000
  S   S774      1.0  0.96197  0.47590  0.30913  1.0000
  S   S775      1.0  0.95574  0.44999  0.31581  1.0000
  C   C2672     1.0  0.98097  0.48846  0.28191  1.0000
  C   C2673     1.0  0.96510  0.40810  0.35435  1.0000
  H   H4608     1.0  0.96897  0.48235  0.25461  1.0000
  H   H4609     1.0  0.96836  0.42336  0.36496  1.0000
  C   C2674     1.0  0.98228  0.39246  0.42947  1.0000
  C   C2675     1.0  0.98632  0.40791  0.39957  1.0000
  H   H4610     1.0  0.95972  0.40366  0.34050  1.0000
  H   H4611     1.0  0.95697  0.43438  0.40815  1.0000
  C   C2676     1.0  0.94117  0.43659  0.34911  1.0000
  C   C2677     1.0  0.97634  0.33360  0.47109  1.0000
  H   H4612     1.0  0.98646  0.43518  0.42209  1.0000
  H   H4613     1.0  0.96789  0.40690  0.43384  1.0000
  N   N191      1.0  0.93468  0.24664  0.48120  1.0000
  H   H4614     1.0  0.95526  0.42088  0.41834  1.0000
  C   C2678     1.0  0.97212  0.32519  0.48065  1.0000
  H   H4615     1.0  0.96538  0.43714  0.34097  1.0000
  H   H4616     1.0  0.98287  0.42733  0.34973  1.0000
  H   H4617     1.0  0.92106  0.25024  0.47163  1.0000
  H   H4618     1.0  0.98656  0.42889  0.33423  1.0000
  S   S776      1.0  0.96468  0.30491  0.49104  1.0000
  H   H4619     1.0  0.93296  0.43769  0.34623  1.0000
  H   H4620     1.0  0.97688  0.46263  0.26375  1.0000
  C   C2679     1.0  0.96928  0.31558  0.47881  1.0000
  C   C2680     1.0  0.96898  0.44860  0.37355  1.0000
  C   C2681     1.0  0.95721  0.45478  0.37536  1.0000
  C   C2682     1.0  0.95173  0.45983  0.36580  1.0000
  C   C2683     1.0  0.95800  0.45876  0.35439  1.0000
  C   C2684     1.0  0.96971  0.45248  0.35267  1.0000
  C   C2685     1.0  0.97510  0.44725  0.36221  1.0000
  H   H4621     1.0  0.95240  0.45582  0.38411  1.0000
  H   H4622     1.0  0.94265  0.46464  0.36723  1.0000
  H   H4623     1.0  0.97464  0.45151  0.34404  1.0000
  H   H4624     1.0  0.97643  0.48139  0.28568  1.0000
  S   S777      1.0  0.95073  0.28103  0.48555  1.0000
  N   N192      1.0  0.96039  0.42122  0.35208  1.0000
  Fe  Fe394     1.0  0.98242  0.26394  0.48767  1.0000
  H   H4625     1.0  0.97455  0.40588  0.33630  1.0000
  H   H4626     1.0  0.99443  0.45754  0.33827  1.0000
  H   H4627     1.0  0.96754  0.42989  0.42409  1.0000
  C   C2686     1.0  0.95149  0.42014  0.37429  1.0000
  H   H4628     1.0  0.97322  0.40559  0.35784  1.0000
  H   H4629     1.0  0.96804  0.42590  0.33345  1.0000
  C   C2687     1.0  0.94854  0.42396  0.34907  1.0000
  H   H4630     1.0  0.93491  0.27661  0.47040  1.0000
  H   H4631     1.0  0.96897  0.40341  0.42043  1.0000
  C   C2688     1.0  0.95987  0.44752  0.25880  1.0000
  C   C2689     1.0  0.95478  0.45946  0.25552  1.0000
  C   C2690     1.0  0.95136  0.46668  0.26369  1.0000
  C   C2691     1.0  0.95327  0.46205  0.27508  1.0000
  C   C2692     1.0  0.95862  0.45014  0.27830  1.0000
  C   C2693     1.0  0.96180  0.44287  0.27020  1.0000
  C   C2694     1.0  0.98659  0.41615  0.42810  1.0000
  H   H4632     1.0  0.94730  0.47587  0.26124  1.0000
  H   H4633     1.0  0.96011  0.44648  0.28709  1.0000
  H   H4634     1.0  0.96576  0.43363  0.27278  1.0000
  H   H4635     1.0  0.94379  0.41819  0.37275  1.0000
  C   C2695     1.0  0.96776  0.40246  0.34369  1.0000
  H   H4636     1.0  0.94302  0.41784  0.35499  1.0000
  H   H4637     1.0  0.94956  0.42255  0.34012  1.0000
  H   H4638     1.0  0.92184  0.27124  0.47470  1.0000
  Fe  Fe395     1.0  0.99561  0.43849  0.37780  1.0000
  H   H4639     1.0  0.98112  0.48659  0.31959  1.0000
  H   H4640     1.0  0.96807  0.30719  0.46587  1.0000
  H   H4641     1.0  0.95689  0.43515  0.36146  1.0000
  S   S778      1.0  0.97867  0.27949  0.47316  1.0000
  H   H4642     1.0  0.97122  0.39284  0.34639  1.0000
  H   H4643     1.0  0.93851  0.43857  0.35799  1.0000
  C   C2696     1.0  0.96831  0.25713  0.45074  1.0000
  H   H4644     1.0  0.98651  0.39218  0.43656  1.0000
  H   H4645     1.0  0.99239  0.29334  0.47895  1.0000
  N   N193      1.0  0.98063  0.41450  0.41952  1.0000
  S   S779      1.0  0.96383  0.43831  0.24877  1.0000
  H   H4646     1.0  0.99537  0.29657  0.45472  1.0000
  H   H4647     1.0  0.97678  0.38583  0.43312  1.0000
  C   C2697     1.0  0.93832  0.25766  0.47347  1.0000
  C   C2698     1.0  0.97435  0.40466  0.42577  1.0000
  C   C2699     1.0  0.98336  0.46829  0.25995  1.0000
  H   H4648     1.0  0.98941  0.44494  0.26235  1.0000
  C   C2700     1.0  0.98150  0.42433  0.34251  1.0000
  H   H4649     1.0  0.97502  0.32247  0.44887  1.0000
  S   S780      1.0  0.96928  0.25496  0.48639  1.0000
  H   H4650     1.0  0.96480  0.42095  0.40385  1.0000
  C   C2701     1.0  0.96174  0.42526  0.41138  1.0000
  C   C2702     1.0  0.97825  0.47859  0.25068  1.0000
  H   H4651     1.0  0.97962  0.40258  0.40323  1.0000
  H   H4652     1.0  0.98398  0.44207  0.36076  1.0000
  H   H4653     1.0  0.93832  0.25844  0.46414  1.0000
  H   H4654     1.0  0.98265  0.47218  0.26745  1.0000
  H   H4655     1.0  0.97783  0.24698  0.42544  1.0000
  C   C2703     1.0  0.97735  0.33267  0.45963  1.0000
  H   H4656     1.0  0.98010  0.45640  0.24492  1.0000
  H   H4657     1.0  0.98554  0.41485  0.34321  1.0000
  H   H4658     1.0  0.97826  0.47578  0.24275  1.0000
  C   C2704     1.0  0.92245  0.24650  0.48074  1.0000
  S   S781      1.0  0.99165  0.36371  0.46286  1.0000
  H   H4659     1.0  0.90464  0.25713  0.48459  1.0000
  H   H4660     1.0  0.96781  0.24610  0.46804  1.0000
  S   S782      1.0  0.98330  0.34289  0.44775  1.0000
  H   H4661     1.0  0.99075  0.25541  0.46887  1.0000
  H   H4662     1.0  0.98908  0.38956  0.42195  1.0000
  H   H4663     1.0  0.93025  0.27005  0.48544  1.0000
  C   C2705     1.0  0.96992  0.24633  0.45879  1.0000
  C   C2706     1.0  0.97562  0.24673  0.43476  1.0000
  C   C2707     1.0  0.99029  0.48882  0.28628  1.0000
  C   C2708     1.0  0.98996  0.41172  0.40885  1.0000
  C   C2709     1.0  0.91203  0.25290  0.48914  1.0000
  H   H4664     1.0  0.95327  0.46296  0.24677  1.0000
  C   C2710     1.0  0.98902  0.45064  0.24402  1.0000
  H   H4665     1.0  0.93836  0.48947  0.24678  1.0000
  H   H4666     1.0  0.98324  0.41567  0.39287  1.0000
  H   H4667     1.0  0.98830  0.41050  0.29275  1.0000
  H   H4668     1.0  0.93323  0.47329  0.24417  1.0000
  H   H4669     1.0  0.98806  0.44177  0.24422  1.0000
  H   H4670     1.0  0.99584  0.31103  0.46432  1.0000
  H   H4671     1.0  0.99202  0.47296  0.33238  1.0000
  C   C2711     1.0  0.99271  0.42659  0.42392  1.0000
  S   S783      1.0  0.99445  0.47783  0.29810  1.0000
  C   C2712     1.0  0.99331  0.42346  0.29815  1.0000
  H   H4672     1.0  0.99377  0.41948  0.40397  1.0000
  H   H4673     1.0  0.99347  0.40822  0.43048  1.0000
  H   H4674     1.0  0.99459  0.30360  0.48561  1.0000
  C   C2713     1.0  0.99463  0.44967  0.25419  1.0000
  C   C2714     1.0  0.99427  0.41629  0.29056  1.0000
  H   H4675     1.0  0.99411  0.40211  0.39505  1.0000
  N   N194      1.0  0.99566  0.46109  0.25598  1.0000
  H   H4676     1.0  0.99479  0.29976  0.52829  1.0000
  H   H4677     1.0  0.95051  0.36164  0.58374  1.0000
  C   C2715     1.0  0.98076  0.41120  0.67815  1.0000
  C   C2716     1.0  0.93924  0.26506  0.54894  1.0000
  C   C2717     1.0  0.93849  0.48592  0.73503  1.0000
  H   H4678     1.0  0.94906  0.30494  0.52889  1.0000
  H   H4679     1.0  0.97475  0.44758  0.70716  1.0000
  H   H4680     1.0  0.96882  0.36501  0.56835  1.0000
  C   C2718     1.0  0.93727  0.45752  0.73073  1.0000
  C   C2719     1.0  0.96555  0.37035  0.59142  1.0000
  H   H4681     1.0  0.99195  0.44350  0.67804  1.0000
  H   H4682     1.0  0.92627  0.48542  0.69454  1.0000
  H   H4683     1.0  0.97868  0.28612  0.53918  1.0000
  H   H4684     1.0  0.97218  0.34996  0.56686  1.0000
  H   H4685     1.0  0.99518  0.37537  0.56541  1.0000
  Fe  Fe396     1.0  0.96336  0.41122  0.72969  1.0000
  Fe  Fe397     1.0  0.95668  0.26537  0.49917  1.0000
  H   H4686     1.0  0.95346  0.33030  0.60580  1.0000
  H   H4687     1.0  0.97924  0.35758  0.58303  1.0000
  Fe  Fe398     1.0  0.95584  0.26001  0.56720  1.0000
  H   H4688     1.0  0.94224  0.34188  0.59972  1.0000
  H   H4689     1.0  0.95949  0.37108  0.60006  1.0000
  C   C2720     1.0  0.98711  0.30054  0.53574  1.0000
  C   C2721     1.0  0.96543  0.46641  0.68338  1.0000
  H   H4690     1.0  0.97655  0.35433  0.59850  1.0000
  C   C2722     1.0  0.97706  0.29565  0.53496  1.0000
  C   C2723     1.0  0.98504  0.46701  0.73420  1.0000
  Fe  Fe399     1.0  0.97401  0.26280  0.57834  1.0000
  C   C2724     1.0  0.97451  0.45463  0.69948  1.0000
  C   C2725     1.0  0.95775  0.35389  0.58200  1.0000
  H   H4691     1.0  0.97401  0.32787  0.51018  1.0000
  H   H4692     1.0  0.95336  0.34715  0.58165  1.0000
  C   C2726     1.0  0.99117  0.28008  0.51775  1.0000
  H   H4693     1.0  0.96918  0.29957  0.54111  1.0000
  H   H4694     1.0  0.96042  0.48378  0.72314  1.0000
  C   C2727     1.0  0.97202  0.35749  0.59106  1.0000
  H   H4695     1.0  0.96417  0.31207  0.51219  1.0000
  H   H4696     1.0  0.98867  0.47088  0.71528  1.0000
  S   S784      1.0  0.96402  0.43007  0.72666  1.0000
  S   S785      1.0  0.98269  0.32641  0.56400  1.0000
  C   C2728     1.0  0.95138  0.26178  0.53002  1.0000
  C   C2729     1.0  0.96517  0.29136  0.52421  1.0000
  S   S786      1.0  0.94309  0.25733  0.51331  1.0000
  C   C2730     1.0  0.93531  0.47585  0.70866  1.0000
  N   N195      1.0  0.96449  0.34933  0.59165  1.0000
  C   C2731     1.0  0.97309  0.47397  0.68066  1.0000
  H   H4697     1.0  0.95911  0.48381  0.63785  1.0000
  S   S787      1.0  0.95600  0.44774  0.69696  1.0000
  H   H4698     1.0  0.97959  0.33856  0.58219  1.0000
  H   H4699     1.0  0.95787  0.26429  0.54367  1.0000
  H   H4700     1.0  0.94485  0.47815  0.73854  1.0000
  C   C2732     1.0  0.96505  0.35738  0.56945  1.0000
  S   S788      1.0  0.99463  0.25256  0.53982  1.0000
  C   C2733     1.0  0.96604  0.45679  0.69292  1.0000
  H   H4701     1.0  0.96796  0.28183  0.52800  1.0000
  H   H4702     1.0  0.98965  0.25314  0.51809  1.0000
  C   C2734     1.0  0.97965  0.41644  0.66653  1.0000
  C   C2735     1.0  0.95301  0.29553  0.53201  1.0000
  H   H4703     1.0  0.91540  0.25005  0.58640  1.0000
  H   H4704     1.0  0.94689  0.29046  0.53162  1.0000
  H   H4705     1.0  0.96032  0.34628  0.61070  1.0000
  C   C2736     1.0  0.93061  0.26209  0.53460  1.0000
  H   H4706     1.0  0.97231  0.31074  0.55855  1.0000
  C   C2737     1.0  0.95024  0.26376  0.54114  1.0000
  C   C2738     1.0  0.98143  0.47184  0.68737  1.0000
  H   H4707     1.0  0.97096  0.29003  0.56759  1.0000
  H   H4708     1.0  0.95888  0.46814  0.67830  1.0000
  H   H4709     1.0  0.98232  0.47267  0.62458  1.0000
  H   H4710     1.0  0.99431  0.27820  0.52595  1.0000
  H   H4711     1.0  0.98543  0.27412  0.51868  1.0000
  H   H4712     1.0  0.94244  0.33918  0.61487  1.0000
  H   H4713     1.0  0.97735  0.46364  0.73454  1.0000
  H   H4714     1.0  0.99519  0.45327  0.62904  1.0000
  H   H4715     1.0  0.96919  0.48322  0.65335  1.0000
  C   C2739     1.0  0.94816  0.33937  0.60591  1.0000
  H   H4716     1.0  0.92539  0.48155  0.72908  1.0000
  H   H4717     1.0  0.96365  0.29196  0.51542  1.0000
  H   H4718     1.0  0.98466  0.33531  0.60153  1.0000
  C   C2740     1.0  0.98203  0.31166  0.57046  1.0000
  C   C2741     1.0  0.97621  0.30602  0.56600  1.0000
  S   S789      1.0  0.98354  0.42557  0.70226  1.0000
  H   H4719     1.0  0.92087  0.26549  0.55160  1.0000
  H   H4720     1.0  0.97417  0.41433  0.68536  1.0000
  C   C2742     1.0  0.97863  0.33061  0.60038  1.0000
  H   H4721     1.0  0.99269  0.44421  0.66272  1.0000
  C   C2743     1.0  0.97543  0.29429  0.57111  1.0000
  H   H4722     1.0  0.96383  0.31493  0.52583  1.0000
  Fe  Fe400     1.0  0.98087  0.40734  0.70710  1.0000
  H   H4723     1.0  0.93930  0.49001  0.69316  1.0000
  C   C2744     1.0  0.98016  0.28825  0.58095  1.0000
  H   H4724     1.0  0.95925  0.35996  0.56312  1.0000
  H   H4725     1.0  0.97240  0.48155  0.67349  1.0000
  H   H4726     1.0  0.96072  0.37459  0.58430  1.0000
  H   H4727     1.0  0.97220  0.37549  0.59023  1.0000
  S   S790      1.0  0.97978  0.27341  0.58742  1.0000
  C   C2745     1.0  0.95225  0.48228  0.70957  1.0000
  N   N196      1.0  0.97452  0.29784  0.52300  1.0000
  H   H4728     1.0  0.96590  0.46837  0.63814  1.0000
  Fe  Fe401     1.0  0.98163  0.25233  0.55695  1.0000
  H   H4729     1.0  0.99051  0.29525  0.54364  1.0000
  H   H4730     1.0  0.95335  0.29375  0.54138  1.0000
  H   H4731     1.0  0.95212  0.46427  0.72932  1.0000
  S   S791      1.0  0.96112  0.41268  0.71150  1.0000
  N   N197      1.0  0.98360  0.47999  0.63847  1.0000
  C   C2746     1.0  0.97244  0.33752  0.59020  1.0000
  C   C2747     1.0  0.99034  0.40193  0.68040  1.0000
  C   C2748     1.0  0.95581  0.34837  0.60332  1.0000
  H   H4732     1.0  0.95992  0.26060  0.52413  1.0000
  S   S792      1.0  0.97037  0.26967  0.56030  1.0000
  H   H4733     1.0  0.94052  0.46905  0.70351  1.0000
  S   S793      1.0  0.98634  0.24591  0.57453  1.0000
  C   C2749     1.0  0.97877  0.31850  0.51199  1.0000
  S   S794      1.0  0.93797  0.26660  0.56314  1.0000
  H   H4734     1.0  0.94953  0.35697  0.60399  1.0000
  C   C2750     1.0  0.98678  0.30562  0.58026  1.0000
  Fe  Fe402     1.0  0.96400  0.43092  0.70804  1.0000
  S   S795      1.0  0.95835  0.25456  0.58566  1.0000
  C   C2751     1.0  0.94160  0.26078  0.52680  1.0000
  C   C2752     1.0  0.98566  0.29403  0.58561  1.0000
  S   S796      1.0  0.97038  0.27268  0.50193  1.0000
  C   C2753     1.0  0.92939  0.26444  0.54559  1.0000
  C   C2754     1.0  0.99272  0.49237  0.71430  1.0000
  H   H4735     1.0  0.95603  0.47287  0.65085  1.0000
  H   H4736     1.0  0.96765  0.33170  0.58870  1.0000
  C   C2755     1.0  0.96975  0.31080  0.51851  1.0000
  H   H4737     1.0  0.97220  0.42356  0.66484  1.0000
  H   H4738     1.0  0.98411  0.32212  0.59826  1.0000
  H   H4739     1.0  0.92302  0.26137  0.53211  1.0000
  H   H4740     1.0  0.96748  0.47098  0.71672  1.0000
  H   H4741     1.0  0.98391  0.30983  0.53668  1.0000
  H   H4742     1.0  0.98349  0.31640  0.50330  1.0000
  C   C2756     1.0  0.98850  0.47162  0.63022  1.0000
  H   H4743     1.0  0.97597  0.46822  0.65399  1.0000
  H   H4744     1.0  0.93267  0.45545  0.72513  1.0000
  S   S797      1.0  0.98290  0.40441  0.72552  1.0000
  H   H4745     1.0  0.97236  0.32837  0.60881  1.0000
  N   N198      1.0  0.94210  0.47679  0.71692  1.0000
  S   S798      1.0  0.98954  0.48228  0.68544  1.0000
  C   C2757     1.0  0.98241  0.46193  0.69650  1.0000
  H   H4746     1.0  0.97380  0.49216  0.62590  1.0000
  C   C2758     1.0  0.99370  0.46635  0.72225  1.0000
  H   H4747     1.0  0.94915  0.49191  0.70664  1.0000
  H   H4748     1.0  0.98426  0.43530  0.67417  1.0000
  H   H4749     1.0  0.98523  0.31789  0.51707  1.0000
  C   C2759     1.0  0.96280  0.48036  0.71507  1.0000
  H   H4750     1.0  0.98161  0.47612  0.73556  1.0000
  H   H4751     1.0  0.98888  0.46017  0.70166  1.0000
  C   C2760     1.0  0.96310  0.47538  0.64320  1.0000
  H   H4752     1.0  0.98919  0.38993  0.56847  1.0000
  H   H4753     1.0  0.98915  0.28945  0.59334  1.0000
  H   H4754     1.0  0.93084  0.46213  0.73741  1.0000
  C   C2761     1.0  0.99122  0.38460  0.56178  1.0000
  H   H4755     1.0  0.90858  0.24647  0.49694  1.0000
  H   H4756     1.0  0.98406  0.49004  0.71664  1.0000
  C   C2762     1.0  0.93383  0.48441  0.72511  1.0000
  H   H4757     1.0  0.94514  0.24589  0.49326  1.0000
  H   H4758     1.0  0.98138  0.24915  0.51043  1.0000
  H   H4759     1.0  0.96924  0.48521  0.70864  1.0000
  H   H4760     1.0  0.95605  0.47887  0.70138  1.0000
  H   H4761     1.0  0.98269  0.29442  0.50565  1.0000
  H   H4762     1.0  0.99272  0.37841  0.60129  1.0000
  H   H4763     1.0  0.98406  0.45511  0.64197  1.0000
  H   H4764     1.0  0.99214  0.29805  0.51203  1.0000
  C   C2763     1.0  0.94667  0.46447  0.72333  1.0000
  C   C2764     1.0  0.93160  0.48720  0.69963  1.0000
  C   C2765     1.0  0.97973  0.49220  0.63137  1.0000
  S   S799      1.0  0.98718  0.41975  0.64259  1.0000
  H   H4765     1.0  0.99113  0.30995  0.58385  1.0000
  H   H4766     1.0  0.98269  0.38467  0.56011  1.0000
  C   C2766     1.0  0.98514  0.29315  0.51417  1.0000
  C   C2767     1.0  0.98829  0.41265  0.65711  1.0000
  H   H4767     1.0  0.99506  0.49267  0.61623  1.0000
  H   H4768     1.0  0.95272  0.45919  0.71694  1.0000
  Fe  Fe403     1.0  0.98335  0.42340  0.72113  1.0000
  H   H4769     1.0  0.92706  0.47294  0.71362  1.0000
  C   C2768     1.0  0.97321  0.47661  0.64777  1.0000
  H   H4770     1.0  0.93036  0.25289  0.49744  1.0000
  H   H4771     1.0  0.94170  0.44892  0.73549  1.0000
  C   C2769     1.0  0.93604  0.24546  0.49347  1.0000
  C   C2770     1.0  0.98804  0.24560  0.51583  1.0000
  S   S800      1.0  0.96678  0.24329  0.56190  1.0000
  H   H4772     1.0  0.90319  0.24668  0.58334  1.0000
  H   H4773     1.0  0.92300  0.24549  0.56803  1.0000
  C   C2771     1.0  0.99175  0.45843  0.63604  1.0000
  H   H4774     1.0  0.98901  0.46126  0.74157  1.0000
  C   C2772     1.0  0.99256  0.43841  0.67158  1.0000
  C   C2773     1.0  0.99034  0.48884  0.65186  1.0000
  S   S801      1.0  0.99223  0.39572  0.69483  1.0000
  H   H4775     1.0  0.99241  0.48448  0.66058  1.0000
  C   C2774     1.0  0.99305  0.47948  0.64448  1.0000
  H   H4776     1.0  0.99435  0.39892  0.54711  1.0000
  H   H4777     1.0  0.99514  0.47073  0.65044  1.0000
  H   H4778     1.0  0.99452  0.33920  0.51942  1.0000
  S   S802      1.0  0.99516  0.43106  0.72639  1.0000
  H   H4779     1.0  0.91384  0.25990  0.49204  1.0000
  Fe  Fe404     1.0  0.60060  0.34124  0.96375  1.0000
  C   C2775     1.0  0.98361  0.48034  0.75747  1.0000
  S   S803      1.0  0.60108  0.33548  0.94741  1.0000
  C   C2776     1.0  0.95356  0.42365  0.78090  1.0000
  S   S804      1.0  0.59233  0.35986  0.96574  1.0000
  H   H4780     1.0  0.52702  0.34255  0.95781  1.0000
  Fe  Fe405     1.0  0.56250  0.29272  0.93191  1.0000
  S   S805      1.0  0.58174  0.28478  0.93100  1.0000
  S   S806      1.0  0.55616  0.30986  0.92026  1.0000
  Fe  Fe406     1.0  0.55460  0.27456  0.95280  1.0000
  S   S807      1.0  0.57307  0.26524  0.95416  1.0000
  S   S808      1.0  0.54048  0.26670  0.96614  1.0000
  Fe  Fe407     1.0  0.57651  0.28316  0.95047  1.0000
  S   S809      1.0  0.58645  0.28687  0.96148  1.0000
  Fe  Fe408     1.0  0.57653  0.26750  0.93474  1.0000
  H   H4781     1.0  0.61216  0.28221  0.92102  1.0000
  S   S810      1.0  0.55765  0.29228  0.95117  1.0000
  S   S811      1.0  0.55775  0.27568  0.93353  1.0000
  H   H4782     1.0  0.55989  0.35729  0.93723  1.0000
  H   H4783     1.0  0.53480  0.28207  0.90408  1.0000
  S   S812      1.0  0.76052  0.46126  0.92942  1.0000
  C   C2777     1.0  0.68044  0.47573  0.94405  1.0000
  H   H4784     1.0  0.92098  0.48557  0.89608  1.0000
  C   C2778     1.0  0.78427  0.42506  0.98744  1.0000
  H   H4785     1.0  0.53951  0.30204  0.97159  1.0000
  C   C2779     1.0  0.61591  0.27565  0.93846  1.0000
  C   C2780     1.0  0.69712  0.46944  0.92305  1.0000
  H   H4786     1.0  0.96533  0.48878  0.75814  1.0000
  C   C2781     1.0  0.99165  0.46973  0.76005  1.0000
  H   H4787     1.0  0.76575  0.43454  0.96048  1.0000
  H   H4788     1.0  0.78601  0.43798  0.95158  1.0000
  H   H4789     1.0  0.93103  0.48737  0.74264  1.0000
  H   H4790     1.0  0.63731  0.26775  0.95415  1.0000
  C   C2782     1.0  0.91693  0.45732  0.90174  1.0000
  Fe  Fe409     1.0  0.98177  0.47562  0.87090  1.0000
  H   H4791     1.0  0.61669  0.31104  0.98081  1.0000
  S   S813      1.0  0.97465  0.47336  0.89056  1.0000
  H   H4792     1.0  0.94558  0.41122  0.79607  1.0000
  S   S814      1.0  0.83124  0.41777  0.97540  1.0000
  Fe  Fe410     1.0  0.98262  0.46597  0.85017  1.0000
  S   S815      1.0  0.97396  0.45583  0.84353  1.0000
  H   H4793     1.0  0.51156  0.25517  0.91260  1.0000
  H   H4794     1.0  0.90021  0.45247  0.90480  1.0000
  N   N199      1.0  0.97065  0.47364  0.80470  1.0000
  H   H4795     1.0  0.52495  0.25478  0.94347  1.0000
  H   H4796     1.0  0.66630  0.45646  0.97857  1.0000
  H   H4797     1.0  0.94280  0.43886  0.75631  1.0000
  H   H4798     1.0  0.79110  0.40655  0.96097  1.0000
  H   H4799     1.0  0.50103  0.34953  0.90546  1.0000
  C   C2783     1.0  0.54863  0.36461  0.96397  1.0000
  C   C2784     1.0  0.87436  0.47277  0.93256  1.0000
  C   C2785     1.0  0.70921  0.40859  0.98856  1.0000
  C   C2786     1.0  0.76265  0.45940  0.95174  1.0000
  C   C2787     1.0  0.97775  0.40394  0.76355  1.0000
  H   H4800     1.0  0.55467  0.34514  0.92938  1.0000
  C   C2788     1.0  0.87954  0.46256  0.93973  1.0000
  S   S816      1.0  0.97057  0.44787  0.77930  1.0000
  C   C2789     1.0  0.52119  0.25460  0.90995  1.0000
  H   H4801     1.0  0.56822  0.25612  0.99055  1.0000
  H   H4802     1.0  0.92225  0.42802  0.76861  1.0000
  H   H4803     1.0  0.57539  0.35113  0.93194  1.0000
  C   C2790     1.0  0.96155  0.47718  0.81519  1.0000
  H   H4804     1.0  0.57652  0.33429  0.92575  1.0000
  C   C2791     1.0  0.97561  0.45996  0.76978  1.0000
  H   H4805     1.0  0.95799  0.44609  0.76233  1.0000
  S   S817      1.0  0.78693  0.46198  0.96690  1.0000
  S   S818      1.0  0.61621  0.37303  0.96950  1.0000
  Fe  Fe411     1.0  0.71619  0.47318  0.94272  1.0000
  H   H4806     1.0  0.80166  0.43399  0.96126  1.0000
  H   H4807     1.0  0.52413  0.24420  0.92691  1.0000
  C   C2792     1.0  0.53681  0.36440  0.96917  1.0000
  H   H4808     1.0  0.62195  0.26808  0.92264  1.0000
  H   H4809     1.0  0.99387  0.45142  0.76840  1.0000
  S   S819      1.0  0.70968  0.45709  0.95296  1.0000
  H   H4810     1.0  0.79326  0.42539  0.98748  1.0000
  H   H4811     1.0  0.68324  0.44063  0.94238  1.0000
  Fe  Fe412     1.0  0.67301  0.40929  0.97869  1.0000
  H   H4812     1.0  0.56682  0.38674  0.96799  1.0000
  C   C2793     1.0  0.94925  0.41907  0.79419  1.0000
  C   C2794     1.0  0.62661  0.38858  0.97322  1.0000
  C   C2795     1.0  0.93842  0.44890  0.77928  1.0000
  S   S820      1.0  0.73092  0.46931  0.95181  1.0000
  H   H4813     1.0  0.56603  0.36193  0.96683  1.0000
  C   C2796     1.0  0.55694  0.36170  0.97092  1.0000
  H   H4814     1.0  0.96235  0.44207  0.74842  1.0000
  H   H4815     1.0  0.70419  0.40703  0.98299  1.0000
  C   C2797     1.0  0.96755  0.47042  0.76656  1.0000
  H   H4816     1.0  0.57577  0.33347  0.94523  1.0000
  H   H4817     1.0  0.97179  0.47198  0.78718  1.0000
  H   H4818     1.0  0.95822  0.47071  0.76916  1.0000
  H   H4819     1.0  0.58001  0.39769  0.96436  1.0000
  C   C2798     1.0  0.78862  0.41015  0.96904  1.0000
  C   C2799     1.0  0.96916  0.38752  0.77496  1.0000
  H   H4820     1.0  0.94746  0.48440  0.79970  1.0000
  C   C2800     1.0  0.56291  0.38794  0.97712  1.0000
  C   C2801     1.0  0.97822  0.43856  0.83163  1.0000
  C   C2802     1.0  0.63117  0.24478  0.95374  1.0000
  H   H4821     1.0  0.54410  0.35070  0.94748  1.0000
  C   C2803     1.0  0.70624  0.47985  0.97863  1.0000
  H   H4822     1.0  0.96877  0.44049  0.83270  1.0000
  Fe  Fe413     1.0  0.98612  0.49062  0.84614  1.0000
  C   C2804     1.0  0.69730  0.42056  0.96006  1.0000
  H   H4823     1.0  0.92682  0.41280  0.76820  1.0000
  H   H4824     1.0  0.71189  0.38650  0.98716  1.0000
  S   S821      1.0  0.71701  0.43682  0.93052  1.0000
  C   C2805     1.0  0.95526  0.47877  0.90801  1.0000
  H   H4825     1.0  0.95298  0.42520  0.75641  1.0000
  H   H4826     1.0  0.96854  0.38024  0.78248  1.0000
  H   H4827     1.0  0.73159  0.39914  0.95941  1.0000
  H   H4828     1.0  0.52916  0.31931  0.89430  1.0000
  H   H4829     1.0  0.96021  0.41629  0.77746  1.0000
  C   C2806     1.0  0.97787  0.48282  0.79929  1.0000
  H   H4830     1.0  0.94284  0.42601  0.79846  1.0000
  C   C2807     1.0  0.53495  0.27554  0.91254  1.0000
  C   C2808     1.0  0.53612  0.29479  0.97842  1.0000
  H   H4831     1.0  0.92920  0.43479  0.78716  1.0000
  H   H4832     1.0  0.93878  0.45543  0.90410  1.0000
  N   N200      1.0  0.94418  0.42848  0.77381  1.0000
  H   H4833     1.0  0.70456  0.43585  0.95484  1.0000
  C   C2809     1.0  0.64120  0.46046  0.97532  1.0000
  H   H4834     1.0  0.92317  0.44869  0.90378  1.0000
  S   S822      1.0  0.98598  0.39145  0.78343  1.0000
  C   C2810     1.0  0.86361  0.47358  0.92991  1.0000
  H   H4835     1.0  0.95692  0.41623  0.79838  1.0000
  H   H4836     1.0  0.85967  0.48149  0.92434  1.0000
  H   H4837     1.0  0.87861  0.48006  0.92901  1.0000
  H   H4838     1.0  0.52561  0.27582  0.91680  1.0000
  C   C2811     1.0  0.52590  0.25266  0.92104  1.0000
  H   H4839     1.0  0.66738  0.44598  0.94500  1.0000
  C   C2812     1.0  0.94959  0.43267  0.76097  1.0000
  C   C2813     1.0  0.67534  0.44467  0.94836  1.0000
  S   S823      1.0  0.81239  0.44811  0.97961  1.0000
  H   H4840     1.0  0.65650  0.38695  0.97789  1.0000
  S   S824      1.0  0.65522  0.41403  0.97449  1.0000
  H   H4841     1.0  0.96799  0.43218  0.76043  1.0000
  H   H4842     1.0  0.55024  0.25439  0.92897  1.0000
  C   C2814     1.0  0.76815  0.46094  0.93982  1.0000
  C   C2815     1.0  0.77978  0.46233  0.93621  1.0000
  C   C2816     1.0  0.78579  0.46245  0.94448  1.0000
  C   C2817     1.0  0.90356  0.48336  0.89794  1.0000
  H   H4843     1.0  0.57792  0.29988  0.98421  1.0000
  H   H4844     1.0  0.85254  0.48733  0.94622  1.0000
  H   H4845     1.0  0.78409  0.46344  0.92699  1.0000
  H   H4846     1.0  0.79473  0.46365  0.94166  1.0000
  H   H4847     1.0  0.62928  0.27578  0.96519  1.0000
  C   C2818     1.0  0.52351  0.30764  0.91063  1.0000
  C   C2819     1.0  0.61805  0.26916  0.95873  1.0000
  H   H4848     1.0  0.93902  0.47296  0.88042  1.0000
  H   H4849     1.0  0.60667  0.25464  0.94551  1.0000
  Fe  Fe414     1.0  0.50840  0.36529  0.96916  1.0000
  H   H4850     1.0  0.52415  0.36135  0.98551  1.0000
  H   H4851     1.0  0.95639  0.46205  0.82858  1.0000
  C   C2820     1.0  0.50999  0.32943  0.94235  1.0000
  H   H4852     1.0  0.74821  0.47352  0.97491  1.0000
  C   C2821     1.0  0.81393  0.48169  0.98676  1.0000
  H   H4853     1.0  0.62996  0.24644  0.96254  1.0000
  C   C2822     1.0  0.54341  0.30923  0.91678  1.0000
  C   C2823     1.0  0.54085  0.31554  0.90595  1.0000
  C   C2824     1.0  0.52585  0.30158  0.92164  1.0000
  C   C2825     1.0  0.53589  0.30229  0.92467  1.0000
  H   H4854     1.0  0.54670  0.32085  0.89983  1.0000
  H   H4855     1.0  0.53782  0.29744  0.93309  1.0000
  S   S825      1.0  0.99559  0.48595  0.86079  1.0000
  H   H4856     1.0  0.95816  0.49143  0.78835  1.0000
  H   H4857     1.0  0.51885  0.32580  0.92527  1.0000
  C   C2826     1.0  0.54944  0.25603  0.97467  1.0000
  C   C2827     1.0  0.54181  0.25170  0.93053  1.0000
  H   H4858     1.0  0.94552  0.41055  0.77296  1.0000
  H   H4859     1.0  0.89913  0.47795  0.89540  1.0000
  H   H4860     1.0  0.66804  0.45918  0.95679  1.0000
  H   H4861     1.0  0.76336  0.48486  0.96223  1.0000
  C   C2828     1.0  0.53280  0.25863  0.93942  1.0000
  H   H4862     1.0  0.52013  0.29611  0.92768  1.0000
  C   C2829     1.0  0.57225  0.38345  0.98467  1.0000
  C   C2830     1.0  0.78008  0.46131  0.95633  1.0000
  H   H4863     1.0  0.77312  0.48697  0.94036  1.0000
  H   H4864     1.0  0.70124  0.47341  0.92759  1.0000
  C   C2831     1.0  0.66846  0.48008  0.92367  1.0000
  C   C2832     1.0  0.59892  0.32111  0.95041  1.0000
  C   C2833     1.0  0.60005  0.31350  0.96121  1.0000
  C   C2834     1.0  0.59692  0.30264  0.96414  1.0000
  C   C2835     1.0  0.59219  0.29954  0.95651  1.0000
  C   C2836     1.0  0.59178  0.30676  0.94537  1.0000
  C   C2837     1.0  0.59537  0.31745  0.94224  1.0000
  H   H4865     1.0  0.60333  0.31597  0.96733  1.0000
  H   H4866     1.0  0.59787  0.29675  0.97249  1.0000
  H   H4867     1.0  0.58848  0.30423  0.93928  1.0000
  H   H4868     1.0  0.59487  0.32315  0.93371  1.0000
  C   C2838     1.0  0.67872  0.34812  0.97678  1.0000
  H   H4869     1.0  0.50533  0.32216  0.94511  1.0000
  H   H4870     1.0  0.50474  0.33676  0.94670  1.0000
  S   S826      1.0  0.64783  0.44857  0.96834  1.0000
  H   H4871     1.0  0.58694  0.30471  0.99033  1.0000
  C   C2839     1.0  0.74120  0.42698  0.97589  1.0000
  H   H4872     1.0  0.94953  0.46000  0.88467  1.0000
  H   H4873     1.0  0.52242  0.26301  0.90373  1.0000
  C   C2840     1.0  0.60601  0.26039  0.95148  1.0000
  H   H4874     1.0  0.93168  0.45330  0.78597  1.0000
  H   H4875     1.0  0.95864  0.43017  0.78009  1.0000
  S   S827      1.0  0.68888  0.40043  0.96691  1.0000
  N   N201      1.0  0.92159  0.46702  0.90309  1.0000
  C   C2841     1.0  0.77228  0.42876  0.95488  1.0000
  H   H4876     1.0  0.56616  0.33994  0.95679  1.0000
  Fe  Fe415     1.0  0.83188  0.45813  0.94916  1.0000
  H   H4877     1.0  0.59824  0.26771  0.95008  1.0000
  H   H4878     1.0  0.53195  0.29291  0.95820  1.0000
  H   H4879     1.0  0.62713  0.39246  0.96397  1.0000
  C   C2842     1.0  0.72893  0.39941  0.97781  1.0000
  Fe  Fe416     1.0  0.72209  0.44872  0.93848  1.0000
  Fe  Fe417     1.0  0.82669  0.43720  0.96844  1.0000
  H   H4880     1.0  0.67175  0.38295  0.97778  1.0000
  C   C2843     1.0  0.53097  0.31465  0.90282  1.0000
  N   N202      1.0  0.58051  0.39135  0.98284  1.0000
  H   H4881     1.0  0.66813  0.46203  0.93055  1.0000
  H   H4882     1.0  0.78576  0.48827  0.98340  1.0000
  H   H4883     1.0  0.60848  0.28286  0.94134  1.0000
  H   H4884     1.0  0.56588  0.24798  0.94463  1.0000
  C   C2844     1.0  0.86534  0.46273  0.99068  1.0000
  H   H4885     1.0  0.65993  0.47062  0.98189  1.0000
  C   C2845     1.0  0.90479  0.45562  0.90964  1.0000
  H   H4886     1.0  0.66002  0.47082  0.94055  1.0000
  C   C2846     1.0  0.50103  0.35950  0.92722  1.0000
  H   H4887     1.0  0.95166  0.48154  0.78533  1.0000
  C   C2847     1.0  0.98765  0.45954  0.76621  1.0000
  C   C2848     1.0  0.62900  0.27408  0.95678  1.0000
  H   H4888     1.0  0.66146  0.38684  0.95613  1.0000
  H   H4889     1.0  0.93591  0.45856  0.88293  1.0000
  H   H4890     1.0  0.52100  0.34964  0.89547  1.0000
  H   H4891     1.0  0.70164  0.40119  0.94296  1.0000
  C   C2849     1.0  0.97701  0.39460  0.77333  1.0000
  C   C2850     1.0  0.66628  0.46226  0.98421  1.0000
  H   H4892     1.0  0.55133  0.26341  0.90938  1.0000
  C   C2851     1.0  0.78161  0.42940  0.97510  1.0000
  H   H4893     1.0  0.89972  0.48416  0.90715  1.0000
  H   H4894     1.0  0.98576  0.45564  0.79230  1.0000
  C   C2852     1.0  0.55402  0.25964  0.98203  1.0000
  S   S828      1.0  0.50077  0.27851  0.92802  1.0000
  C   C2853     1.0  0.74295  0.43643  0.99019  1.0000
  H   H4895     1.0  0.50902  0.30683  0.97158  1.0000
  C   C2854     1.0  0.98321  0.44459  0.83652  1.0000
  H   H4896     1.0  0.68806  0.34419  0.97727  1.0000
  H   H4897     1.0  0.56063  0.30902  0.96874  1.0000
  H   H4898     1.0  0.87908  0.46491  0.96888  1.0000
  C   C2855     1.0  0.50768  0.34247  0.90965  1.0000
  H   H4899     1.0  0.84873  0.47147  0.96408  1.0000
  H   H4900     1.0  0.61805  0.26213  0.96681  1.0000
  H   H4901     1.0  0.87812  0.44502  0.94934  1.0000
  H   H4902     1.0  0.64702  0.47320  0.96002  1.0000
  Fe  Fe418     1.0  0.65287  0.43082  0.98013  1.0000
  H   H4903     1.0  0.62858  0.28265  0.95042  1.0000
  C   C2856     1.0  0.87403  0.45307  0.94403  1.0000
  H   H4904     1.0  0.69694  0.47990  0.97925  1.0000
  C   C2857     1.0  0.97085  0.40612  0.75539  1.0000
  H   H4905     1.0  0.75387  0.45787  0.95467  1.0000
  C   C2858     1.0  0.91873  0.46830  0.91566  1.0000
  H   H4906     1.0  0.95644  0.48636  0.81299  1.0000
  H   H4907     1.0  0.77934  0.40943  0.97301  1.0000
  Fe  Fe419     1.0  0.98577  0.43277  0.78262  1.0000
  H   H4908     1.0  0.66073  0.36666  0.96158  1.0000
  C   C2859     1.0  0.49745  0.27268  0.98462  1.0000
  H   H4909     1.0  0.85889  0.44667  0.94507  1.0000
  H   H4910     1.0  0.50169  0.32189  0.92295  1.0000
  C   C2860     1.0  0.63483  0.45875  0.98695  1.0000
  S   S829      1.0  0.99219  0.45900  0.86483  1.0000
  C   C2861     1.0  0.62771  0.25596  0.94447  1.0000
  C   C2862     1.0  0.54152  0.35882  0.98839  1.0000
  C   C2863     1.0  0.91697  0.47864  0.89548  1.0000
  S   S830      1.0  0.51129  0.30663  0.90645  1.0000
  H   H4911     1.0  0.73674  0.42680  0.96945  1.0000
  H   H4912     1.0  0.78185  0.43886  0.97226  1.0000
  S   S831      1.0  0.89268  0.46153  0.94372  1.0000
  H   H4913     1.0  0.85527  0.47688  0.97233  1.0000
  C   C2864     1.0  0.49593  0.33022  0.92527  1.0000
  H   H4914     1.0  0.93935  0.45531  0.77073  1.0000
  S   S832      1.0  0.50195  0.27148  0.96139  1.0000
  H   H4915     1.0  0.93357  0.41579  0.78391  1.0000
  H   H4916     1.0  0.71458  0.42395  0.98999  1.0000
  H   H4917     1.0  0.53905  0.27854  0.91793  1.0000
  C   C2865     1.0  0.93992  0.46393  0.88601  1.0000
  S   S833      1.0  0.58708  0.25169  0.92719  1.0000
  H   H4918     1.0  0.62391  0.27931  0.93560  1.0000
  C   C2866     1.0  0.70217  0.40882  0.94553  1.0000
  C   C2867     1.0  0.97156  0.48066  0.76048  1.0000
  H   H4919     1.0  0.96028  0.47234  0.91397  1.0000
  H   H4920     1.0  0.89444  0.47826  0.97887  1.0000
  H   H4921     1.0  0.90155  0.49237  0.89245  1.0000
  C   C2868     1.0  0.52248  0.29719  0.95988  1.0000
  S   S834      1.0  0.52674  0.36779  0.96010  1.0000
  Fe  Fe420     1.0  0.74173  0.45992  0.93751  1.0000
  H   H4922     1.0  0.92811  0.44181  0.77276  1.0000
  H   H4923     1.0  0.52205  0.31229  0.96585  1.0000
  S   S835      1.0  0.99439  0.42179  0.76920  1.0000
  C   C2869     1.0  0.53492  0.33680  0.95337  1.0000
  H   H4924     1.0  0.72767  0.49118  0.93377  1.0000
  H   H4925     1.0  0.55018  0.32249  0.97065  1.0000
  Fe  Fe421     1.0  0.99231  0.40671  0.78459  1.0000
  C   C2870     1.0  0.58652  0.39349  0.96998  1.0000
  H   H4926     1.0  0.53690  0.25797  0.94674  1.0000
  H   H4927     1.0  0.67212  0.48701  0.92461  1.0000
  H   H4928     1.0  0.88943  0.45571  0.98634  1.0000
  C   C2871     1.0  0.95373  0.48940  0.88825  1.0000
  C   C2872     1.0  0.89663  0.47960  0.98634  1.0000
  S   S836      1.0  0.82019  0.44577  0.95181  1.0000
  H   H4929     1.0  0.71257  0.41556  0.92867  1.0000
  N   N203      1.0  0.55748  0.33459  0.94645  1.0000
  C   C2873     1.0  0.94379  0.48480  0.91246  1.0000
  H   H4930     1.0  0.86413  0.47076  0.95982  1.0000
  H   H4931     1.0  0.56811  0.33221  0.91694  1.0000
  C   C2874     1.0  0.54199  0.26341  0.91013  1.0000
  S   S837      1.0  0.81764  0.47088  0.95848  1.0000
  H   H4932     1.0  0.94000  0.48301  0.92179  1.0000
  H   H4933     1.0  0.72825  0.47876  0.97392  1.0000
  C   C2875     1.0  0.96001  0.43861  0.75806  1.0000
  C   C2876     1.0  0.95503  0.48319  0.79216  1.0000
  H   H4934     1.0  0.53965  0.28684  0.97458  1.0000
  H   H4935     1.0  0.60940  0.24615  0.96706  1.0000
  S   S838      1.0  0.97131  0.48192  0.85688  1.0000
  N   N204      1.0  0.50314  0.33923  0.92282  1.0000
  H   H4936     1.0  0.98030  0.48654  0.81515  1.0000
  H   H4937     1.0  0.57628  0.41939  0.98710  1.0000
  H   H4938     1.0  0.67974  0.36379  0.96368  1.0000
  C   C2877     1.0  0.67640  0.45616  0.95068  1.0000
  N   N205      1.0  0.86785  0.45455  0.98250  1.0000
  H   H4939     1.0  0.73047  0.46532  0.98411  1.0000
  H   H4940     1.0  0.50809  0.35627  0.93221  1.0000
  H   H4941     1.0  0.93862  0.47059  0.90103  1.0000
  H   H4942     1.0  0.83295  0.49132  0.95858  1.0000
  C   C2878     1.0  0.80173  0.42445  0.96356  1.0000
  H   H4943     1.0  0.56590  0.32163  0.96749  1.0000
  H   H4944     1.0  0.92306  0.44914  0.92320  1.0000
  C   C2879     1.0  0.96196  0.38991  0.76695  1.0000
  C   C2880     1.0  0.63762  0.48138  0.97465  1.0000
  H   H4945     1.0  0.70237  0.42740  0.98336  1.0000
  H   H4946     1.0  0.64517  0.35638  0.97002  1.0000
  C   C2881     1.0  0.85774  0.46437  0.93482  1.0000
  C   C2882     1.0  0.75535  0.41726  0.98805  1.0000
  H   H4947     1.0  0.97209  0.49164  0.79714  1.0000
  H   H4948     1.0  0.55131  0.36719  0.95453  1.0000
  S   S839      1.0  0.70342  0.49062  0.94229  1.0000
  H   H4949     1.0  0.91955  0.45830  0.93347  1.0000
  H   H4950     1.0  0.92180  0.47591  0.91616  1.0000
  H   H4951     1.0  0.67431  0.43811  0.95681  1.0000
  H   H4952     1.0  0.67317  0.47732  0.91527  1.0000
  C   C2883     1.0  0.76857  0.45968  0.95996  1.0000
  H   H4953     1.0  0.84160  0.39616  0.98945  1.0000
  H   H4954     1.0  0.66797  0.39643  0.95962  1.0000
  H   H4955     1.0  0.71806  0.40833  0.96483  1.0000
  C   C2884     1.0  0.61460  0.30348  0.98751  1.0000
  S   S840      1.0  0.83949  0.44848  0.96488  1.0000
  H   H4956     1.0  0.50598  0.26680  0.98491  1.0000
  C   C2885     1.0  0.64238  0.47181  0.96910  1.0000
  H   H4957     1.0  0.96177  0.46454  0.79792  1.0000
  C   C2886     1.0  0.93863  0.41850  0.77481  1.0000
  H   H4958     1.0  0.50819  0.28927  0.98745  1.0000
  H   H4959     1.0  0.62641  0.25273  0.93732  1.0000
  C   C2887     1.0  0.70835  0.41694  0.93745  1.0000
  H   H4960     1.0  0.64886  0.37512  0.97017  1.0000
  C   C2888     1.0  0.93485  0.46418  0.89913  1.0000
  H   H4961     1.0  0.63529  0.40070  0.97567  1.0000
  C   C2889     1.0  0.87935  0.45564  0.97377  1.0000
  H   H4962     1.0  0.76429  0.45840  0.96917  1.0000
  C   C2890     1.0  0.61398  0.27359  0.92722  1.0000
  C   C2891     1.0  0.66858  0.46936  0.93409  1.0000
  H   H4963     1.0  0.57729  0.37462  0.98304  1.0000
  H   H4964     1.0  0.52072  0.30333  0.95157  1.0000
  H   H4965     1.0  0.94660  0.44655  0.78248  1.0000
  S   S841      1.0  0.91469  0.48017  0.94243  1.0000
  H   H4966     1.0  0.55827  0.39722  0.97710  1.0000
  H   H4967     1.0  0.67527  0.46385  0.98192  1.0000
  Fe  Fe422     1.0  0.80667  0.45765  0.96286  1.0000
  C   C2892     1.0  0.67683  0.36163  0.97342  1.0000
  C   C2893     1.0  0.55488  0.24531  0.97131  1.0000
  H   H4968     1.0  0.69182  0.47643  0.91741  1.0000
  C   C2894     1.0  0.81079  0.41885  0.95375  1.0000
  C   C2895     1.0  0.56811  0.35181  0.93984  1.0000
  C   C2896     1.0  0.66803  0.38703  0.96076  1.0000
  H   H4969     1.0  0.98772  0.37496  0.75334  1.0000
  C   C2897     1.0  0.55892  0.31874  0.96558  1.0000
  H   H4970     1.0  0.78261  0.41616  0.99156  1.0000
  C   C2898     1.0  0.90456  0.48661  0.98460  1.0000
  H   H4971     1.0  0.57073  0.35669  0.94481  1.0000
  H   H4972     1.0  0.57170  0.32073  0.92897  1.0000
  H   H4973     1.0  0.90587  0.44855  0.91759  1.0000
  H   H4974     1.0  0.67362  0.34475  0.98557  1.0000
  C   C2899     1.0  0.74192  0.47646  0.98269  1.0000
  S   S842      1.0  0.61597  0.33966  0.97138  1.0000
  H   H4975     1.0  0.71175  0.47250  0.97439  1.0000
  H   H4976     1.0  0.80965  0.42413  0.94492  1.0000
  H   H4977     1.0  0.81979  0.41875  0.95431  1.0000
  H   H4978     1.0  0.81048  0.40965  0.95454  1.0000
  H   H4979     1.0  0.79094  0.39569  0.98417  1.0000
  S   S843      1.0  0.84358  0.46608  0.93267  1.0000
  C   C2900     1.0  0.79632  0.40151  0.97745  1.0000
  H   H4980     1.0  0.79058  0.42431  0.94726  1.0000
  C   C2901     1.0  0.70924  0.42675  0.94076  1.0000
  H   H4981     1.0  0.69634  0.45448  0.93712  1.0000
  H   H4982     1.0  0.57500  0.31513  0.98432  1.0000
  H   H4983     1.0  0.95086  0.46485  0.81559  1.0000
  C   C2902     1.0  0.55745  0.33578  0.93376  1.0000
  C   C2903     1.0  0.69005  0.46073  0.93190  1.0000
  C   C2904     1.0  0.56713  0.33947  0.94753  1.0000
  H   H4984     1.0  0.93442  0.42279  0.75724  1.0000
  C   C2905     1.0  0.56919  0.33043  0.92610  1.0000
  H   H4985     1.0  0.52009  0.25947  0.92578  1.0000
  Fe  Fe423     1.0  0.72546  0.45242  0.96059  1.0000
  S   S844      1.0  0.50607  0.34919  0.98317  1.0000
  H   H4986     1.0  0.97165  0.41330  0.74781  1.0000
  H   H4987     1.0  0.77232  0.42915  0.97640  1.0000
  Fe  Fe424     1.0  0.89654  0.47889  0.94264  1.0000
  S   S845      1.0  0.73746  0.44252  0.94710  1.0000
  H   H4988     1.0  0.61020  0.27611  0.96124  1.0000
  H   H4989     1.0  0.68340  0.45370  0.95576  1.0000
  C   C2906     1.0  0.54585  0.34137  0.95231  1.0000
  H   H4990     1.0  0.52999  0.26809  0.93565  1.0000
  H   H4991     1.0  0.71675  0.42261  0.97499  1.0000
  C   C2907     1.0  0.92408  0.45749  0.92432  1.0000
  H   H4992     1.0  0.77056  0.41981  0.95766  1.0000
  C   C2908     1.0  0.80374  0.48029  0.98462  1.0000
  C   C2909     1.0  0.95289  0.46906  0.82151  1.0000
  H   H4993     1.0  0.94435  0.47435  0.82549  1.0000
  H   H4994     1.0  0.59903  0.25945  0.97035  1.0000
  C   C2910     1.0  0.86309  0.45403  0.94171  1.0000
  H   H4995     1.0  0.98157  0.46182  0.81640  1.0000
  H   H4996     1.0  0.80545  0.42105  0.97150  1.0000
  C   C2911     1.0  0.86917  0.44188  0.98909  1.0000
  H   H4997     1.0  0.87197  0.43595  0.98277  1.0000
  H   H4998     1.0  0.69334  0.42186  0.96884  1.0000
  N   N206      1.0  0.78938  0.42287  0.96578  1.0000
  N   N207      1.0  0.67884  0.46577  0.93994  1.0000
  C   C2912     1.0  0.78510  0.42869  0.95454  1.0000
  H   H4999     1.0  0.89870  0.46358  0.91231  1.0000
  N   N208      1.0  0.61702  0.26505  0.94849  1.0000
  H   H5000     1.0  0.71982  0.39255  0.96857  1.0000
  C   C2913     1.0  0.55944  0.32171  0.95228  1.0000
  C   C2914     1.0  0.96287  0.39919  0.75710  1.0000
  C   C2915     1.0  0.96508  0.47274  0.79547  1.0000
  H   H5001     1.0  0.53531  0.32777  0.95881  1.0000
  S   S846      1.0  0.72742  0.46536  0.92744  1.0000
  H   H5002     1.0  0.90915  0.47045  0.91937  1.0000
  H   H5003     1.0  0.98148  0.42569  0.82127  1.0000
  C   C2916     1.0  0.76398  0.49149  0.94368  1.0000
  H   H5004     1.0  0.51818  0.32591  0.94570  1.0000
  Fe  Fe425     1.0  0.49883  0.29787  0.92136  1.0000
  H   H5005     1.0  0.55087  0.33137  0.93311  1.0000
  H   H5006     1.0  0.91645  0.45855  0.89244  1.0000
  H   H5007     1.0  0.68346  0.48270  0.93664  1.0000
  H   H5008     1.0  0.68829  0.45541  0.92673  1.0000
  H   H5009     1.0  0.61999  0.29196  0.97539  1.0000
  H   H5010     1.0  0.95581  0.38450  0.76831  1.0000
  H   H5011     1.0  0.91949  0.47817  0.88607  1.0000
  C   C2917     1.0  0.66949  0.48211  0.95184  1.0000
  H   H5012     1.0  0.55515  0.33027  0.98587  1.0000
  H   H5013     1.0  0.59490  0.24970  0.96455  1.0000
  N   N209      1.0  0.52284  0.29773  0.98103  1.0000
  H   H5014     1.0  0.77063  0.43247  0.94587  1.0000
  C   C2918     1.0  0.69651  0.41069  0.95681  1.0000
  H   H5015     1.0  0.68756  0.47252  0.94902  1.0000
  H   H5016     1.0  0.54488  0.30072  0.98862  1.0000
  H   H5017     1.0  0.66667  0.47632  0.96039  1.0000
  C   C2919     1.0  0.63126  0.39327  0.97983  1.0000
  C   C2920     1.0  0.96026  0.48106  0.89589  1.0000
  H   H5018     1.0  0.74530  0.47091  0.99050  1.0000
  H   H5019     1.0  0.55313  0.31756  0.95074  1.0000
  H   H5020     1.0  0.93353  0.45705  0.92344  1.0000
  C   C2921     1.0  0.93462  0.43817  0.77844  1.0000
  Fe  Fe426     1.0  0.60423  0.33329  0.98864  1.0000
  H   H5021     1.0  0.89319  0.44203  0.98142  1.0000
  C   C2922     1.0  0.70381  0.42845  0.95213  1.0000
  H   H5022     1.0  0.70446  0.46451  0.91718  1.0000
  C   C2923     1.0  0.60234  0.25349  0.96411  1.0000
  H   H5023     1.0  0.56824  0.31688  0.94830  1.0000
  H   H5024     1.0  0.51922  0.33958  0.92715  1.0000
  Fe  Fe427     1.0  0.82449  0.46031  0.97433  1.0000
  H   H5025     1.0  0.53347  0.33723  0.94464  1.0000
  C   C2924     1.0  0.57343  0.40271  0.98642  1.0000
  H   H5026     1.0  0.54601  0.34182  0.96129  1.0000
  C   C2925     1.0  0.51878  0.30409  0.96977  1.0000
  H   H5027     1.0  0.54182  0.26315  0.90109  1.0000
  H   H5028     1.0  0.67700  0.38292  0.95640  1.0000
  H   H5029     1.0  0.83049  0.43277  0.99059  1.0000
  H   H5030     1.0  0.96584  0.47739  0.82207  1.0000
  S   S847      1.0  0.67122  0.42665  0.98262  1.0000
  H   H5031     1.0  0.66205  0.48600  0.94736  1.0000
  C   C2926     1.0  0.79357  0.48931  0.98518  1.0000
  H   H5032     1.0  0.51719  0.29053  0.96173  1.0000
  H   H5033     1.0  0.65652  0.34820  0.97768  1.0000
  C   C2927     1.0  0.93006  0.42089  0.76669  1.0000
  C   C2928     1.0  0.66505  0.38150  0.97404  1.0000
  C   C2929     1.0  0.51328  0.33357  0.92888  1.0000
  C   C2930     1.0  0.65023  0.35675  0.97618  1.0000
  C   C2931     1.0  0.70818  0.47794  0.99111  1.0000
  H   H5034     1.0  0.75829  0.48567  0.94394  1.0000
  S   S848      1.0  0.82666  0.47051  0.98580  1.0000
  H   H5035     1.0  0.50913  0.33483  0.90559  1.0000
  C   C2932     1.0  0.72416  0.39984  0.96719  1.0000
  H   H5036     1.0  0.75275  0.40988  0.97509  1.0000
  S   S849      1.0  0.72441  0.44683  0.97981  1.0000
  C   C2933     1.0  0.61653  0.29265  0.98446  1.0000
  C   C2934     1.0  0.75029  0.41744  0.97902  1.0000
  Fe  Fe428     1.0  0.60690  0.35779  0.97483  1.0000
  C   C2935     1.0  0.72972  0.47488  0.98293  1.0000
  H   H5037     1.0  0.63868  0.49010  0.96986  1.0000
  C   C2936     1.0  0.65624  0.36724  0.97082  1.0000
  C   C2937     1.0  0.63116  0.47969  0.98626  1.0000
  H   H5038     1.0  0.55021  0.26810  0.98425  1.0000
  N   N210      1.0  0.66457  0.36867  0.97725  1.0000
  H   H5039     1.0  0.51681  0.32367  0.97889  1.0000
  C   C2938     1.0  0.99418  0.38031  0.74791  1.0000
  C   C2939     1.0  0.73717  0.43616  0.98191  1.0000
  S   S850      1.0  0.88720  0.48961  0.95629  1.0000
  C   C2940     1.0  0.56437  0.25293  0.98547  1.0000
  C   C2941     1.0  0.62150  0.37880  0.97841  1.0000
  H   H5040     1.0  0.99497  0.46302  0.79574  1.0000
  C   C2942     1.0  0.51950  0.34635  0.90515  1.0000
  C   C2943     1.0  0.98540  0.43022  0.82512  1.0000
  H   H5041     1.0  0.52078  0.28127  0.97902  1.0000
  C   C2944     1.0  0.53328  0.36141  0.98141  1.0000
  H   H5042     1.0  0.79993  0.40557  0.98230  1.0000
  H   H5043     1.0  0.83632  0.48837  0.94129  1.0000
  H   H5044     1.0  0.80366  0.47223  0.98260  1.0000
  H   H5045     1.0  0.97282  0.45505  0.81219  1.0000
  H   H5046     1.0  0.98370  0.48137  0.79068  1.0000
  H   H5047     1.0  0.67672  0.34479  0.97010  1.0000
  C   C2945     1.0  0.85671  0.46990  0.96754  1.0000
  H   H5048     1.0  0.88097  0.45047  0.96698  1.0000
  H   H5049     1.0  0.55613  0.38262  0.98081  1.0000
  H   H5050     1.0  0.82044  0.48789  0.93426  1.0000
  C   C2946     1.0  0.51798  0.28681  0.98563  1.0000
  C   C2947     1.0  0.97818  0.46181  0.80882  1.0000
  C   C2948     1.0  0.71104  0.42127  0.98392  1.0000
  H   H5051     1.0  0.52696  0.33878  0.90682  1.0000
  C   C2949     1.0  0.99542  0.44199  0.83520  1.0000
  Fe  Fe429     1.0  0.58262  0.35175  0.98341  1.0000
  H   H5052     1.0  0.84991  0.45647  0.98111  1.0000
  H   H5053     1.0  0.98932  0.38957  0.74681  1.0000
  H   H5054     1.0  0.68344  0.36416  0.97640  1.0000
  H   H5055     1.0  0.99039  0.49096  0.80190  1.0000
  H   H5056     1.0  0.99365  0.44855  0.80369  1.0000
  S   S851      1.0  0.58972  0.33344  0.98072  1.0000
  H   H5057     1.0  0.64371  0.35795  0.98449  1.0000
  H   H5058     1.0  0.56228  0.24654  0.90307  1.0000
  H   H5059     1.0  0.73640  0.39159  0.97827  1.0000
  C   C2950     1.0  0.59533  0.40150  0.96596  1.0000
  C   C2951     1.0  0.98560  0.48392  0.80686  1.0000
  C   C2952     1.0  0.57777  0.30613  0.98942  1.0000
  C   C2953     1.0  0.52094  0.31762  0.98604  1.0000
  C   C2954     1.0  0.83543  0.41474  0.98882  1.0000
  H   H5060     1.0  0.63556  0.25981  0.94019  1.0000
  S   S852      1.0  0.95383  0.40243  0.74712  1.0000
  N   N211      1.0  0.53870  0.25276  0.91901  1.0000
  H   H5061     1.0  0.78215  0.48665  0.96385  1.0000
  C   C2955     1.0  0.54205  0.29277  0.98880  1.0000
  H   H5062     1.0  0.56912  0.40865  0.97928  1.0000
  Fe  Fe430     1.0  0.90507  0.49239  0.95477  1.0000
  H   H5063     1.0  0.98831  0.47484  0.90779  1.0000
  H   H5064     1.0  0.51986  0.35341  0.90901  1.0000
  H   H5065     1.0  0.59128  0.38497  0.96738  1.0000
  C   C2956     1.0  0.65993  0.36555  0.99036  1.0000
  H   H5066     1.0  0.60238  0.39842  0.97092  1.0000
  N   N212      1.0  0.72020  0.39902  0.98946  1.0000
  H   H5067     1.0  0.60634  0.26964  0.92893  1.0000
  H   H5068     1.0  0.80369  0.39562  0.97260  1.0000
  S   S853      1.0  0.98253  0.41781  0.79786  1.0000
  C   C2957     1.0  0.55336  0.35895  0.98317  1.0000
  H   H5069     1.0  0.74200  0.48577  0.98171  1.0000
  H   H5070     1.0  0.52504  0.24717  0.90543  1.0000
  H   H5071     1.0  0.86818  0.47104  0.98572  1.0000
  H   H5072     1.0  0.59625  0.38968  0.98903  1.0000
  H   H5073     1.0  0.53056  0.31677  0.98328  1.0000
  H   H5074     1.0  0.59480  0.37663  0.98676  1.0000
  C   C2958     1.0  0.89048  0.45175  0.97885  1.0000
  H   H5075     1.0  0.67173  0.48950  0.95383  1.0000
  C   C2959     1.0  0.62080  0.37394  0.99040  1.0000
  H   H5076     1.0  0.86081  0.45110  0.96967  1.0000
  H   H5077     1.0  0.58961  0.40851  0.98609  1.0000
  H   H5078     1.0  0.95751  0.49129  0.87892  1.0000
  C   C2960     1.0  0.85860  0.45746  0.97546  1.0000
  C   C2961     1.0  0.98871  0.45716  0.79947  1.0000
  H   H5079     1.0  0.59079  0.41075  0.96631  1.0000
  H   H5080     1.0  0.78469  0.49097  0.94836  1.0000
  H   H5081     1.0  0.99225  0.47572  0.80889  1.0000
  H   H5082     1.0  0.89788  0.45469  0.97188  1.0000
  H   H5083     1.0  0.50437  0.36399  0.91812  1.0000
  H   H5084     1.0  0.65919  0.48442  0.92315  1.0000
  H   H5085     1.0  0.73298  0.40709  0.97553  1.0000
  H   H5086     1.0  0.98370  0.40946  0.76209  1.0000
  S   S854      1.0  0.49743  0.36250  0.95848  1.0000
  C   C2962     1.0  0.81402  0.49216  0.98927  1.0000
  H   H5087     1.0  0.59978  0.40141  0.95663  1.0000
  S   S855      1.0  0.61652  0.26923  0.98916  1.0000
  H   H5088     1.0  0.70791  0.48826  0.97283  1.0000
  C   C2963     1.0  0.51738  0.30568  0.98966  1.0000
  H   H5089     1.0  0.50759  0.30764  0.99127  1.0000
  H   H5090     1.0  0.55036  0.28595  0.98764  1.0000
  C   C2964     1.0  0.71879  0.49247  0.99159  1.0000
  C   C2965     1.0  0.58008  0.40986  0.98997  1.0000
  C   C2966     1.0  0.58959  0.38469  0.99002  1.0000
  C   C2967     1.0  0.55873  0.63435  0.00725  1.0000
  H   H5091     1.0  0.51167  0.61108  0.01782  1.0000
  S   S856      1.0  0.62458  0.54701  0.99795  1.0000
  H   H5092     1.0  0.58479  0.56199  0.02490  1.0000
  C   C2968     1.0  0.58026  0.72841  0.00987  1.0000
  C   C2969     1.0  0.52670  0.66863  0.05571  1.0000
  S   S857      1.0  0.59430  0.68222  0.99893  1.0000
  S   S858      1.0  0.77386  0.54953  0.05103  1.0000
  H   H5093     1.0  0.93311  0.59246  0.16366  1.0000
  C   C2970     1.0  0.54669  0.72644  0.02691  1.0000
  C   C2971     1.0  0.59302  0.57009  0.99872  1.0000
  C   C2972     1.0  0.82360  0.51666  0.02551  1.0000
  H   H5094     1.0  0.54619  0.68070  0.03177  1.0000
  H   H5095     1.0  0.95217  0.51293  0.20664  1.0000
  S   S859      1.0  0.69954  0.51217  0.04340  1.0000
  S   S860      1.0  0.97422  0.54506  0.19244  1.0000
  Fe  Fe431     1.0  0.70697  0.50775  0.05940  1.0000
  S   S861      1.0  0.70722  0.52131  0.06854  1.0000
  Fe  Fe432     1.0  0.71560  0.49915  0.03673  1.0000
  H   H5096     1.0  0.74944  0.50712  0.06629  1.0000
  C   C2973     1.0  0.98152  0.57286  0.18094  1.0000
  C   C2974     1.0  0.83356  0.50645  0.00947  1.0000
  H   H5097     1.0  0.90270  0.51436  0.15726  1.0000
  H   H5098     1.0  0.51791  0.62764  0.01588  1.0000
  S   S862      1.0  0.58407  0.65258  0.01290  1.0000
  Fe  Fe433     1.0  0.94892  0.50448  0.12251  1.0000
  H   H5099     1.0  0.91423  0.50349  0.17899  1.0000
  H   H5100     1.0  0.97619  0.58336  0.22384  1.0000
  H   H5101     1.0  0.55196  0.57077  0.02863  1.0000
  H   H5102     1.0  0.99177  0.51083  0.11560  1.0000
  H   H5103     1.0  0.52085  0.60864  0.00369  1.0000
  S   S863      1.0  0.56921  0.68535  0.01851  1.0000
  H   H5104     1.0  0.87672  0.52671  0.99824  1.0000
  H   H5105     1.0  0.65275  0.53175  0.00571  1.0000
  N   N213      1.0  0.67437  0.53922  0.00149  1.0000
  C   C2975     1.0  0.51841  0.66559  0.03529  1.0000
  S   S864      1.0  0.57018  0.68010  0.99326  1.0000
  Fe  Fe434     1.0  0.77921  0.52993  0.05689  1.0000
  H   H5106     1.0  0.65443  0.50223  0.03900  1.0000
  H   H5107     1.0  0.57389  0.56141  0.03831  1.0000
  C   C2976     1.0  0.74722  0.52369  0.02503  1.0000
  H   H5108     1.0  0.55385  0.73007  0.02755  1.0000
  H   H5109     1.0  0.50376  0.69173  0.01156  1.0000
  S   S865      1.0  0.94073  0.52611  0.17758  1.0000
  Fe  Fe435     1.0  0.56059  0.69407  0.00330  1.0000
  S   S866      1.0  0.76659  0.52009  0.05615  1.0000
  H   H5110     1.0  0.54711  0.58505  0.04747  1.0000
  S   S867      1.0  0.77960  0.52164  0.07577  1.0000
  H   H5111     1.0  0.56101  0.59025  0.05350  1.0000
  Fe  Fe436     1.0  0.78260  0.50663  0.05060  1.0000
  Fe  Fe437     1.0  0.76827  0.51068  0.07444  1.0000
  H   H5112     1.0  0.97723  0.56552  0.21694  1.0000
  N   N214      1.0  0.54240  0.73283  0.01577  1.0000
  C   C2977     1.0  0.84512  0.50787  0.05657  1.0000
  C   C2978     1.0  0.52161  0.63210  0.99293  1.0000
  H   H5113     1.0  0.69211  0.49573  0.02942  1.0000
  S   S868      1.0  0.95119  0.52143  0.12484  1.0000
  C   C2979     1.0  0.55150  0.72872  0.00549  1.0000
  C   C2980     1.0  0.53255  0.69267  0.00512  1.0000
  C   C2981     1.0  0.82373  0.51334  0.06067  1.0000
  H   H5114     1.0  0.81568  0.51929  0.05871  1.0000
  C   C2982     1.0  0.94435  0.52438  0.16299  1.0000
  C   C2983     1.0  0.94016  0.51609  0.16027  1.0000
  C   C2984     1.0  0.94249  0.51492  0.14860  1.0000
  C   C2985     1.0  0.94871  0.52233  0.13956  1.0000
  C   C2986     1.0  0.95284  0.53068  0.14228  1.0000
  C   C2987     1.0  0.95088  0.53155  0.15400  1.0000
  H   H5115     1.0  0.93520  0.51049  0.16723  1.0000
  H   H5116     1.0  0.93931  0.50847  0.14654  1.0000
  H   H5117     1.0  0.95752  0.53652  0.13529  1.0000
  H   H5118     1.0  0.95414  0.53798  0.15601  1.0000
  C   C2988     1.0  0.57527  0.56498  0.02870  1.0000
  S   S869      1.0  0.72625  0.50089  0.01823  1.0000
  H   H5119     1.0  0.98302  0.52997  0.14815  1.0000
  C   C2989     1.0  0.98261  0.50406  0.21353  1.0000
  S   S870      1.0  0.79616  0.53249  0.99450  1.0000
  C   C2990     1.0  0.98855  0.49517  0.09634  1.0000
  C   C2991     1.0  0.65226  0.53896  0.00984  1.0000
  H   H5120     1.0  0.98415  0.58961  0.20978  1.0000
  H   H5121     1.0  0.95965  0.49916  0.22830  1.0000
  H   H5122     1.0  0.54917  0.60164  0.03273  1.0000
  C   C2992     1.0  0.77568  0.56041  0.01161  1.0000
  C   C2993     1.0  0.76682  0.56659  0.01931  1.0000
  C   C2994     1.0  0.76653  0.56343  0.03138  1.0000
  C   C2995     1.0  0.77489  0.55389  0.03583  1.0000
  H   H5123     1.0  0.99233  0.58636  0.19026  1.0000
  C   C2996     1.0  0.78439  0.55126  0.01600  1.0000
  H   H5124     1.0  0.76018  0.57380  0.01594  1.0000
  H   H5125     1.0  0.75972  0.56827  0.03730  1.0000
  C   C2997     1.0  0.92535  0.56268  0.18518  1.0000
  H   H5126     1.0  0.79152  0.54679  0.01009  1.0000
  C   C2998     1.0  0.58224  0.71956  0.01982  1.0000
  C   C2999     1.0  0.94830  0.57164  0.20906  1.0000
  C   C3000     1.0  0.68886  0.52697  0.01501  1.0000
  S   S871      1.0  0.58894  0.70484  0.01893  1.0000
  H   H5127     1.0  0.52405  0.73269  0.02453  1.0000
  C   C3001     1.0  0.57913  0.72249  0.03081  1.0000
  H   H5128     1.0  0.96976  0.58692  0.21156  1.0000
  H   H5129     1.0  0.69035  0.51608  0.99422  1.0000
  C   C3002     1.0  0.97827  0.58346  0.21430  1.0000
  H   H5130     1.0  0.58083  0.71574  0.03849  1.0000
  C   C3003     1.0  0.71981  0.51679  0.07432  1.0000
  C   C3004     1.0  0.71888  0.51698  0.08601  1.0000
  C   C3005     1.0  0.72899  0.51357  0.09061  1.0000
  C   C3006     1.0  0.74005  0.51028  0.08343  1.0000
  C   C3007     1.0  0.74097  0.50997  0.07178  1.0000
  C   C3008     1.0  0.73085  0.51321  0.06723  1.0000
  H   H5131     1.0  0.71033  0.51970  0.09151  1.0000
  H   H5132     1.0  0.72826  0.51375  0.09964  1.0000
  C   C3009     1.0  0.75055  0.51012  0.02772  1.0000
  H   H5133     1.0  0.73163  0.51327  0.05814  1.0000
  C   C3010     1.0  0.72287  0.51552  0.01077  1.0000
  C   C3011     1.0  0.57853  0.63506  0.00699  1.0000
  N   N215      1.0  0.53116  0.67412  0.04301  1.0000
  H   H5134     1.0  0.93707  0.51417  0.20589  1.0000
  H   H5135     1.0  0.54689  0.67966  0.99793  1.0000
  C   C3012     1.0  0.71788  0.52455  0.01694  1.0000
  H   H5136     1.0  0.69514  0.52277  0.00802  1.0000
  H   H5137     1.0  0.95628  0.55320  0.21399  1.0000
  H   H5138     1.0  0.52095  0.69185  0.05673  1.0000
  H   H5139     1.0  0.71653  0.52260  0.02638  1.0000
  Fe  Fe438     1.0  0.96754  0.52872  0.20034  1.0000
  Fe  Fe439     1.0  0.79464  0.50808  0.06850  1.0000
  N   N216      1.0  0.83280  0.50605  0.02220  1.0000
  H   H5140     1.0  0.54536  0.70837  0.02749  1.0000
  H   H5141     1.0  0.98013  0.49781  0.09389  1.0000
  C   C3013     1.0  0.98571  0.51992  0.13473  1.0000
  H   H5142     1.0  0.55410  0.65846  0.03644  1.0000
  H   H5143     1.0  0.97321  0.58155  0.19506  1.0000
  H   H5144     1.0  0.54515  0.64928  0.01174  1.0000
  H   H5145     1.0  0.52689  0.64702  0.99554  1.0000
  H   H5146     1.0  0.83506  0.52354  0.04728  1.0000
  H   H5147     1.0  0.51596  0.73460  0.00864  1.0000
  Fe  Fe440     1.0  0.58255  0.69618  0.00857  1.0000
  C   C3014     1.0  0.83468  0.51574  0.05423  1.0000
  H   H5148     1.0  0.56357  0.57464  0.05944  1.0000
  N   N217      1.0  0.75338  0.52980  0.01325  1.0000
  H   H5149     1.0  0.94298  0.59155  0.22594  1.0000
  C   C3015     1.0  0.75025  0.54284  0.01291  1.0000
  C   C3016     1.0  0.76652  0.52548  0.01141  1.0000
  C   C3017     1.0  0.74949  0.52711  0.00376  1.0000
  H   H5150     1.0  0.98061  0.51526  0.15392  1.0000
  C   C3018     1.0  0.73750  0.54924  0.01201  1.0000
  C   C3019     1.0  0.77193  0.52672  0.02091  1.0000
  H   H5151     1.0  0.97673  0.52960  0.11405  1.0000
  H   H5152     1.0  0.66038  0.55306  0.00815  1.0000
  C   C3020     1.0  0.52338  0.69518  0.04710  1.0000
  H   H5153     1.0  0.75628  0.54756  0.00564  1.0000
  H   H5154     1.0  0.75157  0.54450  0.02094  1.0000
  H   H5155     1.0  0.91601  0.51319  0.14624  1.0000
  C   C3021     1.0  0.84436  0.50675  0.02396  1.0000
  H   H5156     1.0  0.75267  0.51761  0.00356  1.0000
  C   C3022     1.0  0.57081  0.62936  0.00529  1.0000
  C   C3023     1.0  0.94577  0.50818  0.20645  1.0000
  H   H5157     1.0  0.88317  0.50180  0.99838  1.0000
  C   C3024     1.0  0.84461  0.49792  0.06570  1.0000
  H   H5158     1.0  0.73098  0.54549  0.01947  1.0000
  H   H5159     1.0  0.73617  0.55860  0.01226  1.0000
  H   H5160     1.0  0.73561  0.54919  0.00362  1.0000
  H   H5161     1.0  0.78160  0.52324  0.01874  1.0000
  H   H5162     1.0  0.76855  0.52162  0.02971  1.0000
  H   H5163     1.0  0.52819  0.62531  0.99744  1.0000
  C   C3025     1.0  0.97863  0.57263  0.19424  1.0000
  C   C3026     1.0  0.92925  0.50764  0.23138  1.0000
  C   C3027     1.0  0.94481  0.49756  0.21680  1.0000
  C   C3028     1.0  0.49943  0.69278  0.07848  1.0000
  C   C3029     1.0  0.52038  0.69603  0.00889  1.0000
  H   H5164     1.0  0.94907  0.50497  0.19813  1.0000
  C   C3030     1.0  0.95341  0.56159  0.21653  1.0000
  H   H5165     1.0  0.98552  0.52726  0.10013  1.0000
  C   C3031     1.0  0.82542  0.52872  0.01776  1.0000
  H   H5166     1.0  0.53657  0.65854  0.03545  1.0000
  H   H5167     1.0  0.94047  0.59018  0.20687  1.0000
  S   S872      1.0  0.85876  0.51011  0.04770  1.0000
  C   C3032     1.0  0.68213  0.54795  0.99745  1.0000
  H   H5168     1.0  0.53425  0.58457  0.03782  1.0000
  H   H5169     1.0  0.92243  0.57036  0.18942  1.0000
  H   H5170     1.0  0.99474  0.50298  0.22374  1.0000
  H   H5171     1.0  0.99516  0.51752  0.14883  1.0000
  S   S873      1.0  0.75271  0.50714  0.08892  1.0000
  C   C3033     1.0  0.55150  0.58039  0.02560  1.0000
  H   H5172     1.0  0.51322  0.64299  0.01159  1.0000
  H   H5173     1.0  0.82503  0.52963  0.00853  1.0000
  H   H5174     1.0  0.81817  0.53572  0.02119  1.0000
  H   H5175     1.0  0.83376  0.53053  0.01803  1.0000
  H   H5176     1.0  0.57485  0.60154  0.01986  1.0000
  H   H5177     1.0  0.55898  0.65980  0.01383  1.0000
  C   C3034     1.0  0.55448  0.64537  0.01026  1.0000
  H   H5178     1.0  0.53173  0.72029  0.01902  1.0000
  C   C3035     1.0  0.53083  0.72994  0.01689  1.0000
  S   S874      1.0  0.94883  0.53780  0.19987  1.0000
  H   H5179     1.0  0.56384  0.61262  0.02628  1.0000
  H   H5180     1.0  0.86907  0.51193  0.00053  1.0000
  H   H5181     1.0  0.93410  0.56207  0.14852  1.0000
  C   C3036     1.0  0.93047  0.57496  0.16575  1.0000
  C   C3037     1.0  0.92744  0.55560  0.16741  1.0000
  C   C3038     1.0  0.92826  0.58618  0.17040  1.0000
  C   C3039     1.0  0.92685  0.55797  0.15441  1.0000
  H   H5182     1.0  0.94004  0.57078  0.16485  1.0000
  H   H5183     1.0  0.92904  0.57810  0.15663  1.0000
  H   H5184     1.0  0.93675  0.55145  0.16791  1.0000
  H   H5185     1.0  0.93495  0.55954  0.18482  1.0000
  H   H5186     1.0  0.91884  0.59072  0.17213  1.0000
  H   H5187     1.0  0.93175  0.58431  0.17839  1.0000
  H   H5188     1.0  0.91830  0.56351  0.15266  1.0000
  H   H5189     1.0  0.92811  0.54945  0.15199  1.0000
  N   N218      1.0  0.73497  0.54917  0.07004  1.0000
  C   C3040     1.0  0.74600  0.54107  0.07354  1.0000
  C   C3041     1.0  0.73356  0.54573  0.05958  1.0000
  C   C3042     1.0  0.72474  0.54731  0.08036  1.0000
  C   C3043     1.0  0.73650  0.56160  0.06718  1.0000
  C   C3044     1.0  0.74842  0.54200  0.08502  1.0000
  C   C3045     1.0  0.74288  0.54814  0.04813  1.0000
  C   C3046     1.0  0.71239  0.55028  0.07776  1.0000
  C   C3047     1.0  0.72674  0.57137  0.06226  1.0000
  H   H5190     1.0  0.74584  0.53174  0.07455  1.0000
  H   H5191     1.0  0.75394  0.54255  0.06662  1.0000
  H   H5192     1.0  0.72498  0.55027  0.05723  1.0000
  H   H5193     1.0  0.73352  0.53622  0.06174  1.0000
  H   H5194     1.0  0.72610  0.53793  0.08511  1.0000
  H   H5195     1.0  0.72415  0.55238  0.08693  1.0000
  H   H5196     1.0  0.73704  0.56400  0.07517  1.0000
  H   H5197     1.0  0.74514  0.56254  0.06109  1.0000
  H   H5198     1.0  0.75024  0.55064  0.08428  1.0000
  H   H5199     1.0  0.74127  0.54012  0.09278  1.0000
  H   H5200     1.0  0.75645  0.53526  0.08679  1.0000
  H   H5201     1.0  0.74092  0.54510  0.04125  1.0000
  H   H5202     1.0  0.74264  0.55767  0.04485  1.0000
  H   H5203     1.0  0.75190  0.54334  0.04903  1.0000
  H   H5204     1.0  0.71000  0.55926  0.07248  1.0000
  H   H5205     1.0  0.70575  0.54965  0.08621  1.0000
  H   H5206     1.0  0.71155  0.54377  0.07336  1.0000
  H   H5207     1.0  0.71959  0.57445  0.06950  1.0000
  H   H5208     1.0  0.72296  0.56878  0.05636  1.0000
  H   H5209     1.0  0.73056  0.57892  0.05671  1.0000
  C   C3048     1.0  0.51814  0.67831  0.00523  1.0000
  S   S875      1.0  0.54878  0.62653  0.00681  1.0000
  H   H5210     1.0  0.77039  0.53600  0.02135  1.0000
  H   H5211     1.0  0.51936  0.65928  0.02982  1.0000
  H   H5212     1.0  0.53953  0.72782  0.03482  1.0000
  C   C3049     1.0  0.89715  0.49630  0.17590  1.0000
  H   H5213     1.0  0.95137  0.51354  0.22464  1.0000
  C   C3050     1.0  0.94589  0.58317  0.22335  1.0000
  C   C3051     1.0  0.55242  0.73735  0.99340  1.0000
  H   H5214     1.0  0.95877  0.55462  0.23310  1.0000
  S   S876      1.0  0.95293  0.49979  0.10491  1.0000
  C   C3052     1.0  0.98577  0.52908  0.10851  1.0000
  C   C3053     1.0  0.95490  0.56240  0.22734  1.0000
  H   H5215     1.0  0.52974  0.72854  0.99965  1.0000
  H   H5216     1.0  0.57121  0.73616  0.04055  1.0000
  H   H5217     1.0  0.69203  0.53424  0.01603  1.0000
  H   H5218     1.0  0.97172  0.50249  0.20307  1.0000
  H   H5219     1.0  0.56008  0.71082  0.02219  1.0000
  H   H5220     1.0  0.50334  0.65239  0.99580  1.0000
  H   H5221     1.0  0.92189  0.54476  0.19108  1.0000
  H   H5222     1.0  0.84785  0.51395  0.01718  1.0000
  C   C3054     1.0  0.51316  0.68896  0.00882  1.0000
  H   H5223     1.0  0.53187  0.69787  0.04464  1.0000
  C   C3055     1.0  0.98400  0.57081  0.21255  1.0000
  S   S877      1.0  0.97445  0.51784  0.21605  1.0000
  C   C3056     1.0  0.57373  0.73406  0.03196  1.0000
  H   H5224     1.0  0.53736  0.65055  0.05332  1.0000
  H   H5225     1.0  0.73753  0.52621  0.02590  1.0000
  H   H5226     1.0  0.57054  0.56104  0.02477  1.0000
  H   H5227     1.0  0.90673  0.57765  0.17962  1.0000
  H   H5228     1.0  0.79048  0.54060  0.03151  1.0000
  H   H5229     1.0  0.51260  0.67387  0.03169  1.0000
  H   H5230     1.0  0.55522  0.57081  0.04659  1.0000
  H   H5231     1.0  0.76930  0.51610  0.01072  1.0000
  H   H5232     1.0  0.55026  0.72044  0.00439  1.0000
  C   C3057     1.0  0.91224  0.51025  0.15575  1.0000
  S   S878      1.0  0.93289  0.49688  0.12964  1.0000
  Fe  Fe441     1.0  0.69175  0.49646  0.05215  1.0000
  H   H5233     1.0  0.58463  0.54649  0.99669  1.0000
  H   H5234     1.0  0.65394  0.50438  0.01821  1.0000
  C   C3058     1.0  0.60229  0.54657  0.99694  1.0000
  C   C3059     1.0  0.50102  0.64407  0.99607  1.0000
  C   C3060     1.0  0.78385  0.54782  0.02813  1.0000
  C   C3061     1.0  0.55325  0.66419  0.04244  1.0000
  H   H5235     1.0  0.53395  0.67186  0.02532  1.0000
  H   H5236     1.0  0.57844  0.58152  0.02818  1.0000
  N   N219      1.0  0.92311  0.56619  0.17293  1.0000
  H   H5237     1.0  0.75994  0.50658  0.02808  1.0000
  H   H5238     1.0  0.74535  0.50677  0.03653  1.0000
  C   C3062     1.0  0.55609  0.58013  0.04396  1.0000
  H   H5239     1.0  0.71101  0.54322  0.01559  1.0000
  C   C3063     1.0  0.57430  0.64600  0.01014  1.0000
  C   C3064     1.0  0.91936  0.55317  0.19401  1.0000
  C   C3065     1.0  0.52550  0.73438  0.00596  1.0000
  H   H5240     1.0  0.92272  0.54853  0.17223  1.0000
  C   C3066     1.0  0.56402  0.58150  0.05117  1.0000
  H   H5241     1.0  0.90967  0.55635  0.19623  1.0000
  H   H5242     1.0  0.55333  0.70932  0.03736  1.0000
  H   H5243     1.0  0.52230  0.65130  0.06121  1.0000
  S   S879      1.0  0.95917  0.55037  0.17230  1.0000
  C   C3067     1.0  0.54357  0.67553  0.04086  1.0000
  H   H5244     1.0  0.77096  0.53030  0.00286  1.0000
  C   C3068     1.0  0.57490  0.74011  0.01101  1.0000
  H   H5245     1.0  0.51690  0.67106  0.05801  1.0000
  C   C3069     1.0  0.66256  0.50112  0.03243  1.0000
  Fe  Fe442     1.0  0.95343  0.53358  0.18202  1.0000
  H   H5246     1.0  0.81981  0.50021  0.04692  1.0000
  H   H5247     1.0  0.53419  0.66693  0.99809  1.0000
  H   H5248     1.0  0.55209  0.65927  0.05170  1.0000
  C   C3070     1.0  0.56725  0.60295  0.02737  1.0000
  H   H5249     1.0  0.55448  0.58191  0.01588  1.0000
  H   H5250     1.0  0.68041  0.55313  0.00426  1.0000
  C   C3071     1.0  0.57191  0.57854  0.02562  1.0000
  Fe  Fe443     1.0  0.97695  0.54007  0.17538  1.0000
  H   H5251     1.0  0.52608  0.69037  0.03065  1.0000
  H   H5252     1.0  0.67128  0.53599  0.02048  1.0000
  C   C3072     1.0  0.52346  0.68628  0.04013  1.0000
  H   H5253     1.0  0.58293  0.72624  0.00131  1.0000
  H   H5254     1.0  0.54421  0.68059  0.04690  1.0000
  C   C3073     1.0  0.55741  0.59739  0.02718  1.0000
  H   H5255     1.0  0.56187  0.66663  0.04021  1.0000
  H   H5256     1.0  0.51665  0.70332  0.04488  1.0000
  C   C3074     1.0  0.56229  0.65132  0.01146  1.0000
  C   C3075     1.0  0.66228  0.50231  0.02066  1.0000
  S   S880      1.0  0.97156  0.52295  0.18342  1.0000
  C   C3076     1.0  0.53753  0.68231  0.00095  1.0000
  H   H5257     1.0  0.90945  0.57795  0.16439  1.0000
  H   H5258     1.0  0.98627  0.57982  0.17564  1.0000
  H   H5259     1.0  0.89633  0.52403  0.99924  1.0000
  H   H5260     1.0  0.53669  0.59610  0.02476  1.0000
  C   C3077     1.0  0.90184  0.56372  0.17551  1.0000
  C   C3078     1.0  0.67334  0.49858  0.03568  1.0000
  H   H5261     1.0  0.68888  0.52025  0.02333  1.0000
  C   C3079     1.0  0.67618  0.53135  0.01319  1.0000
  C   C3080     1.0  0.53011  0.65505  0.05948  1.0000
  S   S881      1.0  0.63767  0.51174  0.00249  1.0000
  H   H5262     1.0  0.67072  0.52553  0.99595  1.0000
  H   H5263     1.0  0.98827  0.55103  0.20546  1.0000
  H   H5264     1.0  0.97259  0.56660  0.19877  1.0000
  S   S882      1.0  0.94708  0.57115  0.19510  1.0000
  C   C3081     1.0  0.59029  0.55168  0.99719  1.0000
  C   C3082     1.0  0.67281  0.50060  0.01222  1.0000
  H   H5265     1.0  0.51410  0.68587  0.04172  1.0000
  H   H5266     1.0  0.89320  0.56754  0.18078  1.0000
  C   C3083     1.0  0.71492  0.53623  0.01083  1.0000
  C   C3084     1.0  0.53065  0.66738  0.03453  1.0000
  S   S883      1.0  0.79534  0.51728  0.04956  1.0000
  H   H5267     1.0  0.82303  0.51715  0.03466  1.0000
  C   C3085     1.0  0.53031  0.67513  0.00098  1.0000
  S   S884      1.0  0.50929  0.66862  0.00687  1.0000
  H   H5268     1.0  0.73979  0.52864  0.00573  1.0000
  C   C3086     1.0  0.95128  0.57325  0.23070  1.0000
  H   H5269     1.0  0.56045  0.72655  0.00715  1.0000
  Fe  Fe444     1.0  0.95596  0.55370  0.19036  1.0000
  H   H5270     1.0  0.74870  0.52652  0.03235  1.0000
  H   H5271     1.0  0.90000  0.56338  0.16718  1.0000
  H   H5272     1.0  0.57032  0.59981  0.03565  1.0000
  C   C3087     1.0  0.98624  0.52072  0.14705  1.0000
  H   H5273     1.0  0.81468  0.51600  0.02532  1.0000
  C   C3088     1.0  0.55155  0.71300  0.02842  1.0000
  C   C3089     1.0  0.91031  0.57195  0.17307  1.0000
  C   C3090     1.0  0.94446  0.58239  0.21256  1.0000
  C   C3091     1.0  0.53829  0.58646  0.02830  1.0000
  H   H5274     1.0  0.53357  0.58297  0.02390  1.0000
  Fe  Fe445     1.0  0.58001  0.67230  0.00753  1.0000
  H   H5275     1.0  0.92540  0.50610  0.24102  1.0000
  H   H5276     1.0  0.55611  0.60052  0.01799  1.0000
  H   H5277     1.0  0.98220  0.51213  0.13555  1.0000
  C   C3092     1.0  0.68353  0.49813  0.01549  1.0000
  H   H5278     1.0  0.67251  0.52346  0.01504  1.0000
  H   H5279     1.0  0.92331  0.50523  0.22741  1.0000
  C   C3093     1.0  0.51170  0.61100  0.00872  1.0000
  C   C3094     1.0  0.97925  0.49834  0.20693  1.0000
  H   H5280     1.0  0.57345  0.58005  0.04683  1.0000
  H   H5281     1.0  0.90467  0.55469  0.18046  1.0000
  H   H5282     1.0  0.57415  0.62088  0.00296  1.0000
  S   S885      1.0  0.77536  0.56399  0.99665  1.0000
  C   C3095     1.0  0.82327  0.50323  0.06964  1.0000
  S   S886      1.0  0.57308  0.70594  0.99413  1.0000
  H   H5283     1.0  0.83874  0.51290  0.00359  1.0000
  H   H5284     1.0  0.52953  0.67231  0.06162  1.0000
  H   H5285     1.0  0.53286  0.65258  0.06798  1.0000
  H   H5286     1.0  0.97857  0.52746  0.13211  1.0000
  N   N220      1.0  0.55940  0.58414  0.03079  1.0000
  H   H5287     1.0  0.98869  0.52691  0.23086  1.0000
  S   S887      1.0  0.54111  0.70149  0.00628  1.0000
  H   H5288     1.0  0.89560  0.50556  0.17671  1.0000
  H   H5289     1.0  0.57373  0.58139  0.01587  1.0000
  H   H5290     1.0  0.92230  0.55119  0.20236  1.0000
  H   H5291     1.0  0.51661  0.70396  0.01219  1.0000
  Fe  Fe446     1.0  0.55614  0.61389  0.99473  1.0000
  H   H5292     1.0  0.98650  0.56432  0.17868  1.0000
  H   H5293     1.0  0.74839  0.50649  0.02139  1.0000
  H   H5294     1.0  0.65263  0.53530  0.01921  1.0000
  S   S888      1.0  0.67300  0.50131  0.99757  1.0000
  C   C3096     1.0  0.58564  0.56348  0.99800  1.0000
  C   C3097     1.0  0.95076  0.50493  0.23064  1.0000
  H   H5295     1.0  0.86053  0.49596  0.02892  1.0000
  C   C3098     1.0  0.85453  0.49572  0.02363  1.0000
  H   H5296     1.0  0.51402  0.66196  0.04437  1.0000
  N   N221      1.0  0.94147  0.49993  0.22900  1.0000
  H   H5297     1.0  0.97311  0.57497  0.17807  1.0000
  H   H5298     1.0  0.93518  0.52390  0.21994  1.0000
  H   H5299     1.0  0.60581  0.53748  0.99625  1.0000
  H   H5300     1.0  0.91657  0.51367  0.16055  1.0000
  C   C3099     1.0  0.72520  0.51819  0.99852  1.0000
  C   C3100     1.0  0.51065  0.63463  0.01260  1.0000
  H   H5301     1.0  0.88098  0.50365  0.16950  1.0000
  H   H5302     1.0  0.99271  0.53927  0.12246  1.0000
  S   S889      1.0  0.99430  0.54100  0.16292  1.0000
  C   C3101     1.0  0.92810  0.52110  0.22725  1.0000
  H   H5303     1.0  0.58960  0.57920  0.99927  1.0000
  N   N222      1.0  0.98895  0.56941  0.20001  1.0000
  C   C3102     1.0  0.60488  0.56486  0.99892  1.0000
  H   H5304     1.0  0.65942  0.55088  0.99460  1.0000
  H   H5305     1.0  0.84321  0.50946  0.03230  1.0000
  H   H5306     1.0  0.99407  0.51100  0.08602  1.0000
  H   H5307     1.0  0.69157  0.54358  0.99646  1.0000
  N   N223      1.0  0.50954  0.63337  0.00099  1.0000
  C   C3103     1.0  0.99485  0.51900  0.11418  1.0000
  H   H5308     1.0  0.58781  0.63095  0.00596  1.0000
  C   C3104     1.0  0.71681  0.53880  0.99858  1.0000
  C   C3105     1.0  0.50489  0.62271  0.00240  1.0000
  H   H5309     1.0  0.69165  0.49706  0.00898  1.0000
  H   H5310     1.0  0.91977  0.52515  0.22417  1.0000
  H   H5311     1.0  0.98815  0.53770  0.10627  1.0000
  H   H5312     1.0  0.83995  0.49676  0.99553  1.0000
  H   H5313     1.0  0.64342  0.54491  0.00978  1.0000
  C   C3106     1.0  0.68380  0.49731  0.02712  1.0000
  H   H5314     1.0  0.90119  0.49720  0.09604  1.0000
  H   H5315     1.0  0.61049  0.56997  0.99968  1.0000
  C   C3107     1.0  0.60958  0.55312  0.99792  1.0000
  H   H5316     1.0  0.50494  0.62142  0.99367  1.0000
  S   S890      1.0  0.54676  0.59981  0.99663  1.0000
  H   H5317     1.0  0.50734  0.60390  0.00937  1.0000
  H   H5318     1.0  0.50889  0.58507  0.99805  1.0000
  H   H5319     1.0  0.85972  0.49550  0.01458  1.0000
  C   C3108     1.0  0.82740  0.49374  0.04316  1.0000
  C   C3109     1.0  0.49949  0.63462  0.02255  1.0000
  C   C3110     1.0  0.66174  0.54613  0.00320  1.0000
  S   S891      1.0  0.50000  0.71561  0.07513  1.0000
  C   C3111     1.0  0.83370  0.49574  0.07236  1.0000
  S   S892      1.0  0.57050  0.56959  0.99863  1.0000
  H   H5320     1.0  0.92729  0.52507  0.23472  1.0000
  H   H5321     1.0  0.82462  0.50961  0.00746  1.0000
  S   S893      1.0  0.98107  0.54979  0.24025  1.0000
  H   H5322     1.0  0.89225  0.49659  0.15941  1.0000
  H   H5323     1.0  0.71094  0.49595  0.99802  1.0000
  H   H5324     1.0  0.99064  0.56715  0.21801  1.0000
  S   S894      1.0  0.67373  0.49689  0.05040  1.0000
  H   H5325     1.0  0.99404  0.52724  0.18650  1.0000
  H   H5326     1.0  0.83555  0.49410  0.04529  1.0000
  H   H5327     1.0  0.50328  0.72085  0.00702  1.0000
  C   C3112     1.0  0.99235  0.49855  0.21853  1.0000
  C   C3113     1.0  0.99461  0.55660  0.20011  1.0000
  H   H5328     1.0  0.50169  0.63469  0.03079  1.0000
  C   C3114     1.0  0.83888  0.49484  0.00521  1.0000
  S   S895      1.0  0.72383  0.49625  0.05184  1.0000
  H   H5329     1.0  0.50254  0.69161  0.08633  1.0000
  S   S896      1.0  0.80987  0.49934  0.07720  1.0000
  C   C3115     1.0  0.82858  0.49534  0.02989  1.0000
  S   S897      1.0  0.78326  0.49628  0.06887  1.0000
  H   H5330     1.0  0.72947  0.51132  0.99372  1.0000
  C   C3116     1.0  0.91456  0.49671  0.15884  1.0000
  S   S898      1.0  0.78309  0.49852  0.03602  1.0000
  H   H5331     1.0  0.72618  0.49356  0.99458  1.0000
  H   H5332     1.0  0.49878  0.67464  0.08180  1.0000
  C   C3117     1.0  0.49748  0.70389  0.07105  1.0000
  C   C3118     1.0  0.88851  0.49592  0.16892  1.0000
  H   H5333     1.0  0.81983  0.49555  0.02857  1.0000
  C   C3119     1.0  0.91680  0.49400  0.17873  1.0000
  H   H5334     1.0  0.91086  0.49432  0.15272  1.0000
  C   C3120     1.0  0.67628  0.53208  0.99250  1.0000
  H   H5335     1.0  0.49755  0.72823  0.01886  1.0000
  H   H5336     1.0  0.93825  0.49360  0.21543  1.0000
  C   C3121     1.0  0.87543  0.50658  0.99450  1.0000
  H   H5337     1.0  0.49623  0.71324  0.02092  1.0000
  C   C3122     1.0  0.72198  0.52977  0.99244  1.0000
  Fe  Fe447     1.0  0.65607  0.51047  0.99167  1.0000
  H   H5338     1.0  0.85807  0.53335  0.99769  1.0000
  H   H5339     1.0  0.87128  0.49964  0.99428  1.0000
  Fe  Fe448     1.0  0.63351  0.53011  0.99170  1.0000
  C   C3123     1.0  0.49729  0.68317  0.07592  1.0000
  Fe  Fe449     1.0  0.87271  0.49357  0.05083  1.0000
  H   H5340     1.0  0.91355  0.49364  0.99306  1.0000
  H   H5341     1.0  0.89795  0.49318  0.07837  1.0000
  C   C3124     1.0  0.57154  0.74290  0.02211  1.0000
  H   H5342     1.0  0.99564  0.50145  0.18233  1.0000
  H   H5343     1.0  0.92424  0.49319  0.15621  1.0000
  C   C3125     1.0  0.96346  0.73360  0.45600  1.0000
  S   S899      1.0  0.97037  0.65799  0.47052  1.0000
  C   C3126     1.0  0.98331  0.62750  0.46946  1.0000
  H   H5344     1.0  0.96124  0.61965  0.40434  1.0000
  C   C3127     1.0  0.95956  0.62843  0.48720  1.0000
  C   C3128     1.0  0.97025  0.73477  0.44449  1.0000
  H   H5345     1.0  0.96036  0.52347  0.28327  1.0000
  S   S900      1.0  0.98115  0.56675  0.25754  1.0000
  C   C3129     1.0  0.95108  0.51041  0.32337  1.0000
  C   C3130     1.0  0.97750  0.49721  0.27251  1.0000
  Fe  Fe450     1.0  0.96263  0.66385  0.45463  1.0000
  Fe  Fe451     1.0  0.96790  0.56134  0.25160  1.0000
  C   C3131     1.0  0.97458  0.60031  0.46683  1.0000
  H   H5346     1.0  0.98777  0.58893  0.36975  1.0000
  Fe  Fe452     1.0  0.98027  0.55071  0.27230  1.0000
  C   C3132     1.0  0.96740  0.71610  0.44341  1.0000
  S   S901      1.0  0.97976  0.54682  0.29180  1.0000
  C   C3133     1.0  0.98348  0.63037  0.43400  1.0000
  H   H5347     1.0  0.98997  0.69997  0.41515  1.0000
  Fe  Fe453     1.0  0.97991  0.53552  0.25651  1.0000
  S   S902      1.0  0.97801  0.51775  0.25644  1.0000
  H   H5348     1.0  0.97384  0.74248  0.44038  1.0000
  S   S903      1.0  0.96553  0.54668  0.26743  1.0000
  H   H5349     1.0  0.95411  0.50609  0.33165  1.0000
  H   H5350     1.0  0.97739  0.62958  0.38966  1.0000
  H   H5351     1.0  0.98891  0.58617  0.38939  1.0000
  H   H5352     1.0  0.97352  0.52467  0.30740  1.0000
  C   C3134     1.0  0.98706  0.62611  0.38786  1.0000
  C   C3135     1.0  0.95598  0.51836  0.30234  1.0000
  H   H5353     1.0  0.97490  0.61595  0.40852  1.0000
  C   C3136     1.0  0.96442  0.62157  0.47731  1.0000
  Fe  Fe454     1.0  0.98498  0.66628  0.45891  1.0000
  H   H5354     1.0  0.98416  0.71320  0.48648  1.0000
  S   S904      1.0  0.98757  0.60878  0.42841  1.0000
  H   H5355     1.0  0.98990  0.72540  0.48577  1.0000
  C   C3137     1.0  0.98166  0.72227  0.48785  1.0000
  C   C3138     1.0  0.99056  0.61501  0.38275  1.0000
  H   H5356     1.0  0.96352  0.71463  0.48732  1.0000
  C   C3139     1.0  0.96082  0.71484  0.45499  1.0000
  C   C3140     1.0  0.96663  0.62205  0.43742  1.0000
  H   H5357     1.0  0.96291  0.61516  0.43693  1.0000
  H   H5358     1.0  0.98196  0.63254  0.47620  1.0000
  N   N224      1.0  0.97759  0.61712  0.47419  1.0000
  H   H5359     1.0  0.96339  0.63614  0.48544  1.0000
  C   C3141     1.0  0.97058  0.50272  0.31137  1.0000
  H   H5360     1.0  0.95151  0.49810  0.24932  1.0000
  C   C3142     1.0  0.94070  0.52071  0.32631  1.0000
  Fe  Fe455     1.0  0.96145  0.67604  0.47362  1.0000
  H   H5361     1.0  0.97902  0.50513  0.30617  1.0000
  H   H5362     1.0  0.97801  0.66902  0.48504  1.0000
  Fe  Fe456     1.0  0.99412  0.55420  0.24703  1.0000
  C   C3143     1.0  0.95871  0.72366  0.46121  1.0000
  C   C3144     1.0  0.97870  0.62143  0.43329  1.0000
  H   H5363     1.0  0.97911  0.63395  0.46246  1.0000
  S   S905      1.0  0.97803  0.67069  0.44262  1.0000
  H   H5364     1.0  0.97712  0.72714  0.42918  1.0000
  H   H5365     1.0  0.97615  0.59389  0.47504  1.0000
  H   H5366     1.0  0.96502  0.60324  0.46701  1.0000
  H   H5367     1.0  0.95337  0.72275  0.47006  1.0000
  H   H5368     1.0  0.97023  0.49690  0.26921  1.0000
  H   H5369     1.0  0.98990  0.60732  0.46149  1.0000
  C   C3145     1.0  0.97057  0.52043  0.32602  1.0000
  H   H5370     1.0  0.96119  0.62734  0.46941  1.0000
  C   C3146     1.0  0.96594  0.52295  0.31478  1.0000
  H   H5371     1.0  0.93440  0.51736  0.33431  1.0000
  H   H5372     1.0  0.94937  0.52679  0.30287  1.0000
  N   N225      1.0  0.96099  0.51358  0.31323  1.0000
  H   H5373     1.0  0.95006  0.63168  0.44586  1.0000
  H   H5374     1.0  0.94357  0.52768  0.32829  1.0000
  H   H5375     1.0  0.97205  0.51314  0.28910  1.0000
  S   S906      1.0  0.95469  0.65102  0.45102  1.0000
  C   C3147     1.0  0.95937  0.63137  0.44252  1.0000
  H   H5376     1.0  0.97544  0.49707  0.32874  1.0000
  H   H5377     1.0  0.97757  0.61707  0.45646  1.0000
  Fe  Fe457     1.0  0.96849  0.68781  0.44801  1.0000
  H   H5378     1.0  0.96839  0.49789  0.30601  1.0000
  S   S907      1.0  0.97679  0.68395  0.46327  1.0000
  H   H5379     1.0  0.96925  0.61137  0.38858  1.0000
  C   C3148     1.0  0.96494  0.52093  0.29063  1.0000
  S   S908      1.0  0.95225  0.68140  0.45870  1.0000
  H   H5380     1.0  0.96517  0.60610  0.41420  1.0000
  C   C3149     1.0  0.97616  0.63972  0.43920  1.0000
  N   N226      1.0  0.98708  0.60406  0.39087  1.0000
  H   H5381     1.0  0.99096  0.63312  0.38120  1.0000
  C   C3150     1.0  0.96410  0.64014  0.44358  1.0000
  C   C3151     1.0  0.96878  0.61225  0.40622  1.0000
  H   H5382     1.0  0.94995  0.63193  0.48788  1.0000
  H   H5383     1.0  0.96988  0.52892  0.32822  1.0000
  C   C3152     1.0  0.97208  0.72610  0.43815  1.0000
  H   H5384     1.0  0.97539  0.59924  0.37575  1.0000
  H   H5385     1.0  0.95963  0.53167  0.31401  1.0000
  C   C3153     1.0  0.98513  0.59707  0.37326  1.0000
  H   H5386     1.0  0.95711  0.70719  0.45908  1.0000
  C   C3154     1.0  0.99251  0.50694  0.27196  1.0000
  H   H5387     1.0  0.93572  0.52452  0.31924  1.0000
  H   H5388     1.0  0.96536  0.51560  0.33390  1.0000
  H   H5389     1.0  0.99530  0.70874  0.43400  1.0000
  H   H5390     1.0  0.98836  0.60397  0.36590  1.0000
  H   H5391     1.0  0.97121  0.59754  0.39855  1.0000
  C   C3155     1.0  0.98851  0.55208  0.29765  1.0000
  S   S909      1.0  0.95354  0.57485  0.24383  1.0000
  H   H5392     1.0  0.98184  0.58993  0.41411  1.0000
  H   H5393     1.0  0.97994  0.51563  0.32469  1.0000
  H   H5394     1.0  0.95986  0.61419  0.48025  1.0000
  H   H5395     1.0  0.98481  0.54042  0.31455  1.0000
  H   H5396     1.0  0.94746  0.50373  0.32167  1.0000
  H   H5397     1.0  0.95128  0.51213  0.30141  1.0000
  C   C3156     1.0  0.99127  0.58880  0.40974  1.0000
  C   C3157     1.0  0.97395  0.60610  0.39566  1.0000
  C   C3158     1.0  0.98311  0.50657  0.26766  1.0000
  C   C3159     1.0  0.98956  0.54709  0.30930  1.0000
  S   S910      1.0  0.96990  0.70518  0.43550  1.0000
  H   H5398     1.0  0.98654  0.61775  0.37499  1.0000
  H   H5399     1.0  0.97988  0.64648  0.43996  1.0000
  H   H5400     1.0  0.99040  0.62480  0.39580  1.0000
  H   H5401     1.0  0.99280  0.62994  0.43080  1.0000
  H   H5402     1.0  0.97856  0.59560  0.45950  1.0000
  H   H5403     1.0  0.96878  0.52836  0.29007  1.0000
  H   H5404     1.0  0.97659  0.72785  0.48116  1.0000
  S   S911      1.0  0.99453  0.53863  0.26214  1.0000
  C   C3160     1.0  0.98028  0.61083  0.46431  1.0000
  H   H5405     1.0  0.94037  0.51149  0.24663  1.0000
  C   C3161     1.0  0.94932  0.50663  0.24313  1.0000
  H   H5406     1.0  0.97569  0.60304  0.48969  1.0000
  H   H5407     1.0  0.99295  0.60665  0.40511  1.0000
  H   H5408     1.0  0.99388  0.56468  0.28197  1.0000
  H   H5409     1.0  0.99125  0.68867  0.43548  1.0000
  C   C3162     1.0  0.98208  0.60858  0.48451  1.0000
  C   C3163     1.0  0.99084  0.59464  0.38380  1.0000
  C   C3164     1.0  0.99464  0.56077  0.29096  1.0000
  H   H5410     1.0  0.99533  0.67970  0.41843  1.0000
  H   H5411     1.0  0.99487  0.69893  0.44782  1.0000
  H   H5412     1.0  0.99031  0.60238  0.48129  1.0000
  C   C3165     1.0  0.99402  0.59979  0.40035  1.0000
  H   H5413     1.0  0.95564  0.51181  0.24286  1.0000
  H   H5414     1.0  0.99425  0.58075  0.40615  1.0000
  H   H5415     1.0  0.99412  0.51722  0.29697  1.0000
  H   H5416     1.0  0.99471  0.61398  0.49062  1.0000
  C   C3166     1.0  0.97334  0.49342  0.32240  1.0000
  H   H5417     1.0  0.99416  0.49324  0.35721  1.0000
  H   H5418     1.0  0.92333  0.53370  0.71924  1.0000
  C   C3167     1.0  0.93110  0.53069  0.72288  1.0000
  S   S912      1.0  0.95609  0.53060  0.67868  1.0000
  H   H5419     1.0  0.96067  0.62258  0.49582  1.0000
  C   C3168     1.0  0.98950  0.54839  0.64462  1.0000
  H   H5420     1.0  0.97444  0.71834  0.52331  1.0000
  H   H5421     1.0  0.96615  0.54574  0.64981  1.0000
  H   H5422     1.0  0.98704  0.56442  0.59003  1.0000
  S   S913      1.0  0.98530  0.68824  0.54022  1.0000
  C   C3169     1.0  0.97450  0.72375  0.50032  1.0000
  H   H5423     1.0  0.98191  0.51434  0.64368  1.0000
  H   H5424     1.0  0.97683  0.53686  0.71690  1.0000
  H   H5425     1.0  0.98579  0.52283  0.70054  1.0000
  H   H5426     1.0  0.96494  0.72594  0.55191  1.0000
  H   H5427     1.0  0.98682  0.62009  0.53105  1.0000
  H   H5428     1.0  0.95437  0.55535  0.65742  1.0000
  C   C3170     1.0  0.98628  0.56865  0.70175  1.0000
  C   C3171     1.0  0.95614  0.72497  0.52367  1.0000
  H   H5429     1.0  0.96051  0.63400  0.55490  1.0000
  C   C3172     1.0  0.97914  0.52215  0.63738  1.0000
  H   H5430     1.0  0.96930  0.55041  0.61475  1.0000
  C   C3173     1.0  0.97206  0.54244  0.62097  1.0000
  N   N227      1.0  0.97234  0.55567  0.71577  1.0000
  C   C3174     1.0  0.96892  0.63335  0.54819  1.0000
  H   H5431     1.0  0.95832  0.63745  0.53557  1.0000
  N   N228      1.0  0.97130  0.71294  0.50899  1.0000
  Fe  Fe458     1.0  0.97473  0.52585  0.68056  1.0000
  H   H5432     1.0  0.97241  0.55645  0.66114  1.0000
  S   S914      1.0  0.93868  0.51507  0.70854  1.0000
  S   S915      1.0  0.95673  0.52161  0.64991  1.0000
  H   H5433     1.0  0.95434  0.54109  0.63021  1.0000
  H   H5434     1.0  0.97086  0.55187  0.73461  1.0000
  S   S916      1.0  0.97790  0.66249  0.54852  1.0000
  C   C3175     1.0  0.94017  0.52159  0.71909  1.0000
  C   C3176     1.0  0.97270  0.64457  0.51442  1.0000
  C   C3177     1.0  0.98060  0.62449  0.52516  1.0000
  H   H5435     1.0  0.96333  0.54194  0.72613  1.0000
  H   H5436     1.0  0.95717  0.51054  0.72108  1.0000
  H   H5437     1.0  0.93289  0.70438  0.56679  1.0000
  H   H5438     1.0  0.95845  0.70234  0.51359  1.0000
  C   C3178     1.0  0.97117  0.61709  0.52883  1.0000
  C   C3179     1.0  0.96113  0.70988  0.50662  1.0000
  C   C3180     1.0  0.96751  0.71546  0.52122  1.0000
  H   H5439     1.0  0.94818  0.72181  0.52452  1.0000
  S   S917      1.0  0.98148  0.51452  0.66731  1.0000
  H   H5440     1.0  0.95374  0.68123  0.51479  1.0000
  S   S918      1.0  0.94278  0.74267  0.55764  1.0000
  H   H5441     1.0  0.98949  0.54416  0.65399  1.0000
  H   H5442     1.0  0.96213  0.62211  0.52838  1.0000
  Fe  Fe459     1.0  0.95419  0.51477  0.69328  1.0000
  H   H5443     1.0  0.95909  0.55981  0.64188  1.0000
  H   H5444     1.0  0.97450  0.63758  0.55076  1.0000
  C   C3181     1.0  0.96225  0.55513  0.65004  1.0000
  H   H5445     1.0  0.96957  0.70445  0.55363  1.0000
  C   C3182     1.0  0.96637  0.63971  0.53595  1.0000
  S   S919      1.0  0.98630  0.67214  0.56702  1.0000
  C   C3183     1.0  0.97699  0.55497  0.72630  1.0000
  C   C3184     1.0  0.97209  0.67611  0.51561  1.0000
  H   H5446     1.0  0.97311  0.62391  0.54875  1.0000
  C   C3185     1.0  0.96362  0.53719  0.62969  1.0000
  H   H5447     1.0  0.98925  0.54979  0.70478  1.0000
  C   C3186     1.0  0.96718  0.52723  0.63810  1.0000
  C   C3187     1.0  0.98639  0.64168  0.52669  1.0000
  H   H5448     1.0  0.97361  0.61080  0.52296  1.0000
  H   H5449     1.0  0.95414  0.64324  0.51823  1.0000
  C   C3188     1.0  0.93991  0.70907  0.56357  1.0000
  C   C3189     1.0  0.93212  0.53611  0.73120  1.0000
  C   C3190     1.0  0.95794  0.72129  0.55522  1.0000
  C   C3191     1.0  0.94630  0.72738  0.55867  1.0000
  H   H5450     1.0  0.96417  0.57409  0.71525  1.0000
  H   H5451     1.0  0.96614  0.70735  0.52805  1.0000
  Fe  Fe460     1.0  0.96252  0.51783  0.66680  1.0000
  N   N229      1.0  0.97636  0.63733  0.52560  1.0000
  C   C3192     1.0  0.96266  0.67799  0.51028  1.0000
  S   S920      1.0  0.95443  0.68773  0.56107  1.0000
  C   C3193     1.0  0.95019  0.51768  0.72388  1.0000
  C   C3194     1.0  0.95152  0.70296  0.56018  1.0000
  H   H5452     1.0  0.96047  0.64830  0.50322  1.0000
  N   N230      1.0  0.98238  0.56089  0.64330  1.0000
  H   H5453     1.0  0.96604  0.53560  0.70508  1.0000
  C   C3195     1.0  0.93731  0.72122  0.56288  1.0000
  Fe  Fe461     1.0  0.97337  0.67902  0.55531  1.0000
  C   C3196     1.0  0.98362  0.67216  0.50961  1.0000
  H   H5454     1.0  0.95526  0.72703  0.53226  1.0000
  H   H5455     1.0  0.97043  0.67782  0.52428  1.0000
  C   C3197     1.0  0.96056  0.70908  0.55607  1.0000
  H   H5456     1.0  0.98913  0.63710  0.53505  1.0000
  H   H5457     1.0  0.99204  0.70833  0.51780  1.0000
  H   H5458     1.0  0.96366  0.64932  0.53581  1.0000
  H   H5459     1.0  0.98541  0.54294  0.64171  1.0000
  H   H5460     1.0  0.92831  0.72587  0.56556  1.0000
  H   H5461     1.0  0.98352  0.65113  0.52708  1.0000
  H   H5462     1.0  0.97583  0.57568  0.58412  1.0000
  C   C3198     1.0  0.96895  0.54426  0.71723  1.0000
  H   H5463     1.0  0.97948  0.57664  0.69935  1.0000
  H   H5464     1.0  0.98529  0.60319  0.56737  1.0000
  C   C3199     1.0  0.98150  0.70238  0.50926  1.0000
  H   H5465     1.0  0.95924  0.56787  0.70653  1.0000
  H   H5466     1.0  0.97961  0.72769  0.50389  1.0000
  H   H5467     1.0  0.95497  0.70402  0.49460  1.0000
  H   H5468     1.0  0.97020  0.65401  0.51471  1.0000
  H   H5469     1.0  0.97123  0.61150  0.53779  1.0000
  H   H5470     1.0  0.94412  0.57305  0.72405  1.0000
  H   H5471     1.0  0.95875  0.51979  0.73626  1.0000
  H   H5472     1.0  0.99339  0.73626  0.57224  1.0000
  H   H5473     1.0  0.95295  0.54386  0.71241  1.0000
  H   H5474     1.0  0.98578  0.62346  0.51620  1.0000
  H   H5475     1.0  0.96465  0.63306  0.50956  1.0000
  C   C3200     1.0  0.98568  0.66966  0.49858  1.0000
  C   C3201     1.0  0.98405  0.53758  0.62053  1.0000
  C   C3202     1.0  0.96237  0.64195  0.51141  1.0000
  C   C3203     1.0  0.97297  0.57777  0.62796  1.0000
  H   H5476     1.0  0.98008  0.64365  0.50664  1.0000
  H   H5477     1.0  0.94675  0.55782  0.72436  1.0000
  H   H5478     1.0  0.95329  0.71733  0.50697  1.0000
  H   H5479     1.0  0.98436  0.56581  0.66471  1.0000
  C   C3204     1.0  0.98547  0.57285  0.58353  1.0000
  C   C3205     1.0  0.98966  0.49791  0.62284  1.0000
  S   S921      1.0  0.97239  0.51092  0.69609  1.0000
  S   S922      1.0  0.95876  0.50240  0.68122  1.0000
  H   H5480     1.0  0.92516  0.54330  0.73394  1.0000
  H   H5481     1.0  0.97740  0.56382  0.72686  1.0000
  C   C3206     1.0  0.98870  0.56889  0.64534  1.0000
  H   H5482     1.0  0.97913  0.69516  0.51677  1.0000
  H   H5483     1.0  0.96612  0.57012  0.65321  1.0000
  C   C3207     1.0  0.98162  0.55741  0.70461  1.0000
  H   H5484     1.0  0.97839  0.55766  0.69683  1.0000
  C   C3208     1.0  0.94205  0.53219  0.73608  1.0000
  C   C3209     1.0  0.98926  0.54682  0.72694  1.0000
  H   H5485     1.0  0.98802  0.57974  0.58599  1.0000
  C   C3210     1.0  0.98756  0.52719  0.62848  1.0000
  C   C3211     1.0  0.96230  0.54396  0.70818  1.0000
  H   H5486     1.0  0.98372  0.69847  0.50151  1.0000
  Fe  Fe462     1.0  0.99103  0.67118  0.53448  1.0000
  H   H5487     1.0  0.98727  0.56586  0.56868  1.0000
  H   H5488     1.0  0.98411  0.60779  0.50193  1.0000
  H   H5489     1.0  0.95628  0.73329  0.51703  1.0000
  H   H5490     1.0  0.98315  0.57799  0.64473  1.0000
  H   H5491     1.0  0.98567  0.50664  0.61791  1.0000
  H   H5492     1.0  0.96263  0.55117  0.70028  1.0000
  C   C3212     1.0  0.99048  0.60967  0.56280  1.0000
  H   H5493     1.0  0.98858  0.72105  0.56490  1.0000
  C   C3213     1.0  0.96189  0.56592  0.71504  1.0000
  H   H5494     1.0  0.97859  0.58429  0.62473  1.0000
  C   C3214     1.0  0.95106  0.52286  0.73251  1.0000
  S   S923      1.0  0.98358  0.54019  0.67885  1.0000
  C   C3215     1.0  0.96481  0.67570  0.49909  1.0000
  C   C3216     1.0  0.97086  0.56104  0.65224  1.0000
  H   H5495     1.0  0.95266  0.56267  0.73380  1.0000
  C   C3217     1.0  0.99042  0.61839  0.56832  1.0000
  C   C3218     1.0  0.95083  0.56464  0.72494  1.0000
  H   H5496     1.0  0.99103  0.50115  0.71630  1.0000
  C   C3219     1.0  0.98048  0.56517  0.63095  1.0000
  H   H5497     1.0  0.98952  0.58019  0.56488  1.0000
  H   H5498     1.0  0.97674  0.55908  0.62856  1.0000
  H   H5499     1.0  0.96590  0.58032  0.63542  1.0000
  H   H5500     1.0  0.98959  0.56945  0.70903  1.0000
  H   H5501     1.0  0.98993  0.53787  0.72591  1.0000
  H   H5502     1.0  0.96842  0.57833  0.62101  1.0000
  H   H5503     1.0  0.98525  0.61856  0.57715  1.0000
  H   H5504     1.0  0.96641  0.73067  0.49914  1.0000
  H   H5505     1.0  0.98902  0.56509  0.62446  1.0000
  H   H5506     1.0  0.99101  0.54590  0.73569  1.0000
  H   H5507     1.0  0.97041  0.69942  0.49284  1.0000
  C   C3220     1.0  0.99306  0.70444  0.51025  1.0000
  C   C3221     1.0  0.99172  0.57147  0.57088  1.0000
  C   C3222     1.0  0.99218  0.56534  0.65731  1.0000
  Fe  Fe463     1.0  0.97730  0.49999  0.68265  1.0000
  C   C3223     1.0  0.97630  0.67130  0.49340  1.0000
  C   C3224     1.0  0.96289  0.70684  0.49464  1.0000
  H   H5508     1.0  0.97433  0.49839  0.63714  1.0000
  H   H5509     1.0  0.97980  0.62258  0.49433  1.0000
  H   H5510     1.0  0.98110  0.49386  0.65345  1.0000
  Fe  Fe464     1.0  0.99199  0.65640  0.55882  1.0000
  C   C3225     1.0  0.98522  0.61383  0.49315  1.0000
  C   C3226     1.0  0.99290  0.52724  0.69788  1.0000
  H   H5511     1.0  0.99379  0.56834  0.69399  1.0000
  C   C3227     1.0  0.99388  0.53602  0.68759  1.0000
  H   H5512     1.0  0.99451  0.66624  0.49406  1.0000
  H   H5513     1.0  0.99487  0.71467  0.55235  1.0000
  S   S924      1.0  0.99569  0.72920  0.52633  1.0000
  S   S925      1.0  0.99566  0.66998  0.51570  1.0000
  H   H5514     1.0  0.99484  0.56728  0.54867  1.0000
  S   S926      1.0  0.99457  0.54506  0.61086  1.0000
  H   H5515     1.0  0.99382  0.54794  0.57655  1.0000
  H   H5516     1.0  0.92608  0.49457  0.70381  1.0000
  H   H5517     1.0  0.99546  0.49954  0.62749  1.0000
  S   S927      1.0  0.95330  0.67822  0.49214  1.0000
  H   H5518     1.0  0.94245  0.49374  0.73208  1.0000
  H   H5519     1.0  0.93098  0.49350  0.72010  1.0000
  Fe  Fe465     1.0  0.57269  0.60887  0.97196  1.0000
  S   S928      1.0  0.55547  0.62154  0.97591  1.0000
  S   S929      1.0  0.58850  0.61248  0.95788  1.0000
  H   H5520     1.0  0.82723  0.50217  0.96712  1.0000
  H   H5521     1.0  0.99396  0.56323  0.78971  1.0000
  H   H5522     1.0  0.81919  0.50242  0.92548  1.0000
  Fe  Fe466     1.0  0.54727  0.60671  0.97746  1.0000
  H   H5523     1.0  0.63349  0.56320  0.97503  1.0000
  H   H5524     1.0  0.70910  0.52058  0.95864  1.0000
  H   H5525     1.0  0.84353  0.52966  0.92472  1.0000
  S   S930      1.0  0.56455  0.59463  0.97170  1.0000
  C   C3228     1.0  0.53284  0.64269  0.95459  1.0000
  S   S931      1.0  0.65424  0.53187  0.95028  1.0000
  Fe  Fe467     1.0  0.55457  0.69437  0.90393  1.0000
  S   S932      1.0  0.53837  0.69680  0.91825  1.0000
  H   H5526     1.0  0.98273  0.57559  0.79376  1.0000
  Fe  Fe468     1.0  0.56488  0.66999  0.91678  1.0000
  S   S933      1.0  0.54952  0.67032  0.93218  1.0000
  S   S934      1.0  0.58040  0.65474  0.91473  1.0000
  Fe  Fe469     1.0  0.53862  0.67825  0.91869  1.0000
  Fe  Fe470     1.0  0.97646  0.50792  0.75862  1.0000
  Fe  Fe471     1.0  0.55087  0.68870  0.93027  1.0000
  C   C3229     1.0  0.72530  0.51193  0.94862  1.0000
  S   S935      1.0  0.55380  0.67637  0.90338  1.0000
  S   S936      1.0  0.56720  0.68793  0.91588  1.0000
  S   S937      1.0  0.59088  0.69305  0.96593  1.0000
  Fe  Fe472     1.0  0.71602  0.55282  0.97197  1.0000
  S   S938      1.0  0.71239  0.56897  0.95799  1.0000
  Fe  Fe473     1.0  0.72548  0.53686  0.95477  1.0000
  S   S939      1.0  0.72279  0.55161  0.93926  1.0000
  H   H5527     1.0  0.52719  0.59237  0.98832  1.0000
  Fe  Fe474     1.0  0.73013  0.56126  0.94775  1.0000
  S   S940      1.0  0.74323  0.57238  0.93747  1.0000
  Fe  Fe475     1.0  0.70538  0.55768  0.95100  1.0000
  S   S941      1.0  0.68872  0.56461  0.94416  1.0000
  S   S942      1.0  0.73421  0.54593  0.96236  1.0000
  S   S943      1.0  0.70759  0.54210  0.96591  1.0000
  Fe  Fe476     1.0  0.79646  0.54671  0.96173  1.0000
  H   H5528     1.0  0.54572  0.62225  0.94882  1.0000
  S   S944      1.0  0.79601  0.55499  0.94284  1.0000
  C   C3230     1.0  0.59582  0.63312  0.97401  1.0000
  H   H5529     1.0  0.62656  0.58969  0.94145  1.0000
  C   C3231     1.0  0.84907  0.53076  0.95025  1.0000
  H   H5530     1.0  0.59502  0.57403  0.97445  1.0000
  S   S945      1.0  0.80554  0.52796  0.96748  1.0000
  S   S946      1.0  0.54732  0.69487  0.94685  1.0000
  H   H5531     1.0  0.55406  0.61699  0.92396  1.0000
  Fe  Fe477     1.0  0.96060  0.51572  0.78069  1.0000
  H   H5532     1.0  0.61111  0.59482  0.94772  1.0000
  H   H5533     1.0  0.88780  0.53923  0.96731  1.0000
  Fe  Fe478     1.0  0.95675  0.52917  0.75659  1.0000
  C   C3232     1.0  0.51153  0.68645  0.91744  1.0000
  H   H5534     1.0  0.70139  0.50378  0.91853  1.0000
  H   H5535     1.0  0.78372  0.57765  0.95476  1.0000
  H   H5536     1.0  0.54367  0.61041  0.93623  1.0000
  H   H5537     1.0  0.53562  0.64119  0.98312  1.0000
  H   H5538     1.0  0.50894  0.68851  0.93510  1.0000
  S   S947      1.0  0.95849  0.53476  0.77197  1.0000
  H   H5539     1.0  0.99109  0.54728  0.78709  1.0000
  H   H5540     1.0  0.69197  0.51772  0.93599  1.0000
  H   H5541     1.0  0.75223  0.49744  0.95851  1.0000
  H   H5542     1.0  0.77818  0.52598  0.94296  1.0000
  C   C3233     1.0  0.88717  0.52998  0.96848  1.0000
  H   H5543     1.0  0.85013  0.51390  0.93716  1.0000
  S   S948      1.0  0.73430  0.51864  0.95225  1.0000
  H   H5544     1.0  0.71040  0.51719  0.92295  1.0000
  C   C3234     1.0  0.59577  0.65882  0.97853  1.0000
  H   H5545     1.0  0.73528  0.58309  0.97140  1.0000
  H   H5546     1.0  0.67999  0.50718  0.93492  1.0000
  C   C3235     1.0  0.97643  0.50866  0.82359  1.0000
  C   C3236     1.0  0.79372  0.49984  0.98756  1.0000
  C   C3237     1.0  0.61750  0.58906  0.94200  1.0000
  C   C3238     1.0  0.96141  0.51050  0.80903  1.0000
  S   S949      1.0  0.82951  0.52649  0.98350  1.0000
  C   C3239     1.0  0.82648  0.49971  0.95925  1.0000
  C   C3240     1.0  0.63199  0.56709  0.95653  1.0000
  H   H5547     1.0  0.62175  0.57161  0.93904  1.0000
  H   H5548     1.0  0.61521  0.55411  0.97095  1.0000
  H   H5549     1.0  0.53824  0.72995  0.97859  1.0000
  Fe  Fe479     1.0  0.88628  0.50501  0.94098  1.0000
  C   C3241     1.0  0.83978  0.53212  0.96007  1.0000
  H   H5550     1.0  0.55645  0.62839  0.93779  1.0000
  C   C3242     1.0  0.50828  0.69134  0.90663  1.0000
  H   H5551     1.0  0.83213  0.53929  0.95931  1.0000
  H   H5552     1.0  0.75584  0.58993  0.94390  1.0000
  H   H5553     1.0  0.75716  0.60144  0.95892  1.0000
  C   C3243     1.0  0.75811  0.56659  0.93820  1.0000
  C   C3244     1.0  0.76657  0.57277  0.93093  1.0000
  C   C3245     1.0  0.77831  0.56894  0.93207  1.0000
  C   C3246     1.0  0.78164  0.55892  0.94053  1.0000
  C   C3247     1.0  0.77330  0.55247  0.94747  1.0000
  C   C3248     1.0  0.76156  0.55632  0.94634  1.0000
  H   H5554     1.0  0.76400  0.58067  0.92455  1.0000
  H   H5555     1.0  0.78474  0.57392  0.92662  1.0000
  H   H5556     1.0  0.77590  0.54453  0.95373  1.0000
  H   H5557     1.0  0.75520  0.55147  0.95192  1.0000
  H   H5558     1.0  0.74231  0.56628  0.98660  1.0000
  C   C3249     1.0  0.50837  0.61275  0.97270  1.0000
  H   H5559     1.0  0.51903  0.70846  0.95083  1.0000
  C   C3250     1.0  0.55970  0.69435  0.95170  1.0000
  C   C3251     1.0  0.57111  0.69151  0.94494  1.0000
  C   C3252     1.0  0.58080  0.69132  0.94915  1.0000
  C   C3253     1.0  0.57902  0.69398  0.96009  1.0000
  C   C3254     1.0  0.56761  0.69707  0.96666  1.0000
  C   C3255     1.0  0.55800  0.69712  0.96254  1.0000
  H   H5560     1.0  0.57249  0.68937  0.93655  1.0000
  H   H5561     1.0  0.58965  0.68899  0.94401  1.0000
  H   H5562     1.0  0.56613  0.69962  0.97488  1.0000
  C   C3256     1.0  0.63678  0.55913  0.96727  1.0000
  C   C3257     1.0  0.66357  0.54099  0.94926  1.0000
  C   C3258     1.0  0.66301  0.55161  0.94094  1.0000
  C   C3259     1.0  0.67059  0.55886  0.93971  1.0000
  C   C3260     1.0  0.67906  0.55539  0.94651  1.0000
  C   C3261     1.0  0.67976  0.54467  0.95475  1.0000
  C   C3262     1.0  0.67198  0.53750  0.95616  1.0000
  H   H5563     1.0  0.65667  0.55427  0.93546  1.0000
  H   H5564     1.0  0.67005  0.56711  0.93330  1.0000
  H   H5565     1.0  0.68631  0.54187  0.95996  1.0000
  H   H5566     1.0  0.67274  0.52910  0.96233  1.0000
  S   S950      1.0  0.71282  0.55326  0.99091  1.0000
  H   H5567     1.0  0.76146  0.49974  0.93726  1.0000
  S   S951      1.0  0.90358  0.50856  0.94022  1.0000
  H   H5568     1.0  0.74494  0.57612  0.96008  1.0000
  H   H5569     1.0  0.50818  0.62043  0.96557  1.0000
  C   C3263     1.0  0.58559  0.62389  0.94581  1.0000
  C   C3264     1.0  0.59430  0.62477  0.93545  1.0000
  C   C3265     1.0  0.59249  0.63415  0.92589  1.0000
  C   C3266     1.0  0.58205  0.64284  0.92671  1.0000
  C   C3267     1.0  0.57332  0.64197  0.93707  1.0000
  C   C3268     1.0  0.57502  0.63243  0.94657  1.0000
  H   H5570     1.0  0.60251  0.61824  0.93483  1.0000
  H   H5571     1.0  0.59928  0.63482  0.91790  1.0000
  H   H5572     1.0  0.56537  0.64874  0.93783  1.0000
  H   H5573     1.0  0.56833  0.63193  0.95456  1.0000
  C   C3269     1.0  0.72359  0.49752  0.93928  1.0000
  C   C3270     1.0  0.55828  0.73040  0.87818  1.0000
  S   S952      1.0  0.62878  0.52480  0.97771  1.0000
  H   H5574     1.0  0.53154  0.65369  0.93726  1.0000
  H   H5575     1.0  0.90163  0.52753  0.98369  1.0000
  H   H5576     1.0  0.82980  0.53635  0.92068  1.0000
  C   C3271     1.0  0.59376  0.65205  0.94546  1.0000
  C   C3272     1.0  0.61433  0.55860  0.96179  1.0000
  C   C3273     1.0  0.50902  0.72750  0.92137  1.0000
  S   S953      1.0  0.95700  0.51044  0.76596  1.0000
  C   C3274     1.0  0.80394  0.50127  0.98956  1.0000
  C   C3275     1.0  0.70606  0.52078  0.91538  1.0000
  H   H5577     1.0  0.88306  0.52029  0.95777  1.0000
  H   H5578     1.0  0.51858  0.72572  0.98465  1.0000
  C   C3276     1.0  0.59946  0.58117  0.96900  1.0000
  H   H5579     1.0  0.77359  0.52189  0.95856  1.0000
  H   H5580     1.0  0.78832  0.50563  0.96349  1.0000
  H   H5581     1.0  0.95284  0.55496  0.81464  1.0000
  H   H5582     1.0  0.64652  0.55775  0.96508  1.0000
  H   H5583     1.0  0.55530  0.64681  0.90740  1.0000
  H   H5584     1.0  0.52132  0.65020  0.98238  1.0000
  H   H5585     1.0  0.96262  0.56488  0.79775  1.0000
  H   H5586     1.0  0.72321  0.49748  0.97208  1.0000
  H   H5587     1.0  0.55280  0.66369  0.96922  1.0000
  C   C3277     1.0  0.87938  0.51331  0.98176  1.0000
  H   H5588     1.0  0.70384  0.54510  0.93274  1.0000
  N   N231      1.0  0.61883  0.56973  0.95785  1.0000
  H   H5589     1.0  0.53089  0.71811  0.90129  1.0000
  H   H5590     1.0  0.63507  0.57535  0.95454  1.0000
  H   H5591     1.0  0.58165  0.63727  0.96510  1.0000
  C   C3278     1.0  0.56253  0.73283  0.92904  1.0000
  H   H5592     1.0  0.55875  0.73268  0.98668  1.0000
  H   H5593     1.0  0.79229  0.50750  0.94765  1.0000
  H   H5594     1.0  0.69885  0.53191  0.93953  1.0000
  H   H5595     1.0  0.55529  0.64978  0.92089  1.0000
  C   C3279     1.0  0.56064  0.65956  0.97312  1.0000
  H   H5596     1.0  0.57971  0.66921  0.97417  1.0000
  C   C3280     1.0  0.88427  0.52913  0.95722  1.0000
  H   H5597     1.0  0.97633  0.53809  0.81916  1.0000
  C   C3281     1.0  0.54818  0.62551  0.93918  1.0000
  C   C3282     1.0  0.57584  0.72830  0.95564  1.0000
  H   H5598     1.0  0.86663  0.54307  0.97643  1.0000
  H   H5599     1.0  0.68688  0.52663  0.90538  1.0000
  H   H5600     1.0  0.58418  0.72340  0.91966  1.0000
  C   C3283     1.0  0.61603  0.57624  0.94608  1.0000
  H   H5601     1.0  0.50045  0.72841  0.90016  1.0000
  C   C3284     1.0  0.52130  0.71713  0.94816  1.0000
  H   H5602     1.0  0.69463  0.53787  0.90051  1.0000
  H   H5603     1.0  0.74488  0.50665  0.97297  1.0000
  H   H5604     1.0  0.56857  0.71729  0.94992  1.0000
  H   H5605     1.0  0.70187  0.54444  0.91328  1.0000
  N   N232      1.0  0.69435  0.52902  0.91867  1.0000
  H   H5606     1.0  0.56050  0.72825  0.86963  1.0000
  H   H5607     1.0  0.58357  0.74177  0.93590  1.0000
  H   H5608     1.0  0.62966  0.54624  0.95365  1.0000
  N   N233      1.0  0.75348  0.58430  0.96811  1.0000
  C   C3285     1.0  0.58411  0.64101  0.97120  1.0000
  C   C3286     1.0  0.61299  0.57699  0.96702  1.0000
  S   S954      1.0  0.80400  0.55385  0.97245  1.0000
  H   H5609     1.0  0.61471  0.57185  0.97571  1.0000
  H   H5610     1.0  0.53552  0.64844  0.91916  1.0000
  H   H5611     1.0  0.96115  0.55531  0.82478  1.0000
  H   H5612     1.0  0.49881  0.66567  0.92905  1.0000
  C   C3287     1.0  0.57634  0.74235  0.93176  1.0000
  H   H5613     1.0  0.55254  0.72019  0.94187  1.0000
  C   C3288     1.0  0.70597  0.50989  0.91133  1.0000
  Fe  Fe480     1.0  0.64798  0.52301  0.96903  1.0000
  H   H5614     1.0  0.88147  0.53875  0.98801  1.0000
  C   C3289     1.0  0.56879  0.72673  0.94766  1.0000
  H   H5615     1.0  0.76909  0.57064  0.97074  1.0000
  H   H5616     1.0  0.70235  0.51215  0.90339  1.0000
  H   H5617     1.0  0.52582  0.62590  0.94688  1.0000
  C   C3290     1.0  0.49802  0.60872  0.97827  1.0000
  C   C3291     1.0  0.57183  0.65956  0.96312  1.0000
  C   C3292     1.0  0.52065  0.70677  0.97689  1.0000
  C   C3293     1.0  0.75246  0.58562  0.98037  1.0000
  Fe  Fe481     1.0  0.91160  0.49614  0.92797  1.0000
  C   C3294     1.0  0.71777  0.50112  0.97977  1.0000
  Fe  Fe482     1.0  0.58360  0.69108  0.98534  1.0000
  H   H5618     1.0  0.71216  0.52561  0.90827  1.0000
  H   H5619     1.0  0.57150  0.66889  0.95843  1.0000
  H   H5620     1.0  0.61685  0.58472  0.96542  1.0000
  S   S955      1.0  0.87045  0.51989  0.93874  1.0000
  N   N234      1.0  0.76886  0.50136  0.95762  1.0000
  C   C3295     1.0  0.74887  0.59650  0.94818  1.0000
  H   H5621     1.0  0.60472  0.56065  0.96220  1.0000
  H   H5622     1.0  0.60691  0.57633  0.94589  1.0000
  C   C3296     1.0  0.68858  0.53370  0.90830  1.0000
  H   H5623     1.0  0.98761  0.51620  0.80782  1.0000
  H   H5624     1.0  0.59479  0.64239  0.94773  1.0000
  H   H5625     1.0  0.66997  0.51975  0.92918  1.0000
  H   H5626     1.0  0.50863  0.70111  0.96976  1.0000
  H   H5627     1.0  0.51351  0.72413  0.94624  1.0000
  H   H5628     1.0  0.73987  0.50189  0.93804  1.0000
  C   C3297     1.0  0.84058  0.52445  0.97093  1.0000
  H   H5629     1.0  0.84855  0.53686  0.94190  1.0000
  H   H5630     1.0  0.76506  0.57204  0.95749  1.0000
  H   H5631     1.0  0.77352  0.58906  0.94767  1.0000
  H   H5632     1.0  0.55858  0.60816  0.93706  1.0000
  C   C3298     1.0  0.50632  0.72455  0.96915  1.0000
  C   C3299     1.0  0.58366  0.65961  0.97631  1.0000
  H   H5633     1.0  0.59206  0.66655  0.95318  1.0000
  H   H5634     1.0  0.59629  0.58464  0.96074  1.0000
  C   C3300     1.0  0.97064  0.54316  0.81285  1.0000
  H   H5635     1.0  0.51632  0.71931  0.88365  1.0000
  C   C3301     1.0  0.74435  0.57775  0.96882  1.0000
  S   S956      1.0  0.77975  0.54531  0.97517  1.0000
  H   H5636     1.0  0.74918  0.60531  0.94237  1.0000
  H   H5637     1.0  0.74018  0.59482  0.94878  1.0000
  H   H5638     1.0  0.55572  0.74065  0.93140  1.0000
  C   C3302     1.0  0.67945  0.51530  0.92787  1.0000
  H   H5639     1.0  0.50864  0.63713  0.93841  1.0000
  C   C3303     1.0  0.55631  0.72168  0.88835  1.0000
  H   H5640     1.0  0.60161  0.65396  0.93857  1.0000
  S   S957      1.0  0.52213  0.67325  0.91928  1.0000
  H   H5641     1.0  0.59670  0.62418  0.97272  1.0000
  H   H5642     1.0  0.57737  0.63936  0.97946  1.0000
  S   S958      1.0  0.65237  0.52938  0.98240  1.0000
  H   H5643     1.0  0.54027  0.63808  0.95899  1.0000
  H   H5644     1.0  0.52395  0.69354  0.96649  1.0000
  C   C3304     1.0  0.59306  0.65684  0.95616  1.0000
  Fe  Fe483     1.0  0.56492  0.58894  0.99085  1.0000
  H   H5645     1.0  0.95496  0.54307  0.82689  1.0000
  H   H5646     1.0  0.60371  0.63596  0.96811  1.0000
  H   H5647     1.0  0.61606  0.54182  0.95770  1.0000
  H   H5648     1.0  0.58605  0.65644  0.94144  1.0000
  H   H5649     1.0  0.59599  0.63233  0.98329  1.0000
  C   C3305     1.0  0.69679  0.53943  0.92130  1.0000
  H   H5650     1.0  0.61573  0.59271  0.93305  1.0000
  H   H5651     1.0  0.71273  0.53184  0.92872  1.0000
  C   C3306     1.0  0.68666  0.52315  0.92950  1.0000
  S   S959      1.0  0.55675  0.70762  0.88695  1.0000
  C   C3307     1.0  0.67678  0.54282  0.91020  1.0000
  C   C3308     1.0  0.97941  0.51343  0.81155  1.0000
  H   H5652     1.0  0.96355  0.50117  0.83767  1.0000
  H   H5653     1.0  0.68846  0.54577  0.92405  1.0000
  H   H5654     1.0  0.52607  0.63743  0.95778  1.0000
  H   H5655     1.0  0.59652  0.58868  0.97345  1.0000
  H   H5656     1.0  0.75067  0.51971  0.96642  1.0000
  H   H5657     1.0  0.97403  0.51850  0.79511  1.0000
  N   N235      1.0  0.58344  0.65402  0.96676  1.0000
  H   H5658     1.0  0.68017  0.52990  0.93399  1.0000
  C   C3309     1.0  0.85904  0.52157  0.95120  1.0000
  H   H5659     1.0  0.72118  0.50888  0.97912  1.0000
  S   S960      1.0  0.95239  0.51074  0.79991  1.0000
  H   H5660     1.0  0.67815  0.55150  0.91008  1.0000
  H   H5661     1.0  0.67243  0.54420  0.90287  1.0000
  H   H5662     1.0  0.67061  0.53992  0.91850  1.0000
  C   C3310     1.0  0.50622  0.69208  0.92683  1.0000
  C   C3311     1.0  0.70347  0.53668  0.93114  1.0000
  C   C3312     1.0  0.75044  0.59633  0.96040  1.0000
  H   H5663     1.0  0.60190  0.65361  0.95819  1.0000
  H   H5664     1.0  0.77322  0.51081  0.93963  1.0000
  H   H5665     1.0  0.51401  0.64691  0.94300  1.0000
  C   C3313     1.0  0.49907  0.64444  0.98392  1.0000
  H   H5666     1.0  0.50272  0.71957  0.96521  1.0000
  H   H5667     1.0  0.95034  0.50272  0.82482  1.0000
  H   H5668     1.0  0.55003  0.73824  0.90866  1.0000
  C   C3314     1.0  0.62012  0.54955  0.95395  1.0000
  Fe  Fe484     1.0  0.78789  0.55086  0.98648  1.0000
  H   H5669     1.0  0.57074  0.65511  0.95677  1.0000
  H   H5670     1.0  0.54579  0.64759  0.93953  1.0000
  C   C3315     1.0  0.95929  0.54970  0.82005  1.0000
  H   H5671     1.0  0.55201  0.71771  0.90729  1.0000
  C   C3316     1.0  0.97183  0.51450  0.80431  1.0000
  C   C3317     1.0  0.85963  0.51370  0.96198  1.0000
  S   S961      1.0  0.92284  0.50090  0.90977  1.0000
  H   H5672     1.0  0.60155  0.71523  0.92577  1.0000
  C   C3318     1.0  0.76554  0.57726  0.96345  1.0000
  C   C3319     1.0  0.71314  0.51423  0.95317  1.0000
  N   N236      1.0  0.57284  0.73076  0.93454  1.0000
  S   S962      1.0  0.98013  0.51104  0.77432  1.0000
  H   H5673     1.0  0.49958  0.73263  0.98453  1.0000
  H   H5674     1.0  0.77635  0.59012  0.96109  1.0000
  C   C3320     1.0  0.55348  0.72445  0.89941  1.0000
  C   C3321     1.0  0.77093  0.52322  0.95024  1.0000
  H   H5675     1.0  0.75859  0.51562  0.94695  1.0000
  H   H5676     1.0  0.70846  0.50422  0.97896  1.0000
  C   C3322     1.0  0.53721  0.64533  0.94109  1.0000
  H   H5677     1.0  0.87645  0.53593  0.95500  1.0000
  H   H5678     1.0  0.76326  0.53084  0.94998  1.0000
  H   H5679     1.0  0.96818  0.53640  0.81007  1.0000
  C   C3323     1.0  0.75175  0.51111  0.97269  1.0000
  H   H5680     1.0  0.52808  0.62554  0.93206  1.0000
  C   C3324     1.0  0.98122  0.55904  0.80676  1.0000
  H   H5681     1.0  0.52194  0.62872  0.98521  1.0000
  H   H5682     1.0  0.97472  0.56251  0.78588  1.0000
  S   S963      1.0  0.98927  0.54161  0.76457  1.0000
  H   H5683     1.0  0.60073  0.66464  0.97129  1.0000
  N   N237      1.0  0.83551  0.50724  0.93703  1.0000
  H   H5684     1.0  0.68263  0.55234  0.97838  1.0000
  H   H5685     1.0  0.82270  0.51902  0.92723  1.0000
  H   H5686     1.0  0.59458  0.71143  0.94108  1.0000
  H   H5687     1.0  0.75969  0.60153  0.97609  1.0000
  H   H5688     1.0  0.54141  0.63393  0.91703  1.0000
  H   H5689     1.0  0.74209  0.60163  0.96481  1.0000
  H   H5690     1.0  0.50698  0.64020  0.97813  1.0000
  C   C3325     1.0  0.51890  0.60692  0.97634  1.0000
  C   C3326     1.0  0.55421  0.64306  0.91700  1.0000
  H   H5691     1.0  0.81899  0.51495  0.94751  1.0000
  H   H5692     1.0  0.63670  0.56293  0.94889  1.0000
  Fe  Fe485     1.0  0.78941  0.52723  0.98194  1.0000
  H   H5693     1.0  0.74325  0.58987  0.98416  1.0000
  C   C3327     1.0  0.55117  0.61474  0.93366  1.0000
  H   H5694     1.0  0.68231  0.51244  0.91946  1.0000
  C   C3328     1.0  0.96327  0.55074  0.78990  1.0000
  Fe  Fe486     1.0  0.63452  0.50625  0.98765  1.0000
  C   C3329     1.0  0.54193  0.64020  0.92192  1.0000
  H   H5695     1.0  0.87418  0.51190  0.97632  1.0000
  N   N238      1.0  0.87879  0.52625  0.97992  1.0000
  H   H5696     1.0  0.96961  0.54359  0.78590  1.0000
  H   H5697     1.0  0.56206  0.71470  0.92915  1.0000
  H   H5698     1.0  0.53005  0.70298  0.97709  1.0000
  C   C3330     1.0  0.50449  0.73616  0.89625  1.0000
  S   S964      1.0  0.53161  0.61237  0.96915  1.0000
  C   C3331     1.0  0.58252  0.72143  0.92943  1.0000
  C   C3332     1.0  0.51677  0.69764  0.97311  1.0000
  C   C3333     1.0  0.96595  0.50478  0.82835  1.0000
  C   C3334     1.0  0.70626  0.50783  0.95111  1.0000
  H   H5699     1.0  0.56022  0.66489  0.97937  1.0000
  H   H5700     1.0  0.85113  0.50923  0.98022  1.0000
  C   C3335     1.0  0.78146  0.49450  0.95647  1.0000
  H   H5701     1.0  0.53928  0.71467  0.98036  1.0000
  H   H5702     1.0  0.52518  0.73312  0.91231  1.0000
  H   H5703     1.0  0.67214  0.56294  0.98639  1.0000
  C   C3336     1.0  0.53639  0.72347  0.97488  1.0000
  H   H5704     1.0  0.56145  0.63514  0.91809  1.0000
  H   H5705     1.0  0.51640  0.70662  0.98630  1.0000
  H   H5706     1.0  0.83158  0.51627  0.95120  1.0000
  H   H5707     1.0  0.83002  0.53196  0.93589  1.0000
  C   C3337     1.0  0.85656  0.53172  0.98978  1.0000
  H   H5708     1.0  0.54926  0.69926  0.96782  1.0000
  C   C3338     1.0  0.49926  0.70151  0.90542  1.0000
  C   C3339     1.0  0.49817  0.59873  0.98742  1.0000
  H   H5709     1.0  0.98608  0.55435  0.81386  1.0000
  H   H5710     1.0  0.51696  0.64679  0.92757  1.0000
  C   C3340     1.0  0.52307  0.72646  0.97521  1.0000
  H   H5711     1.0  0.75449  0.57689  0.98636  1.0000
  C   C3341     1.0  0.82805  0.51012  0.94857  1.0000
  H   H5712     1.0  0.54869  0.72532  0.92800  1.0000
  Fe  Fe487     1.0  0.97787  0.52988  0.76474  1.0000
  H   H5713     1.0  0.53351  0.73737  0.89082  1.0000
  C   C3342     1.0  0.85050  0.51522  0.97186  1.0000
  H   H5714     1.0  0.76990  0.58761  0.98022  1.0000
  C   C3343     1.0  0.52648  0.64336  0.98831  1.0000
  H   H5715     1.0  0.59439  0.66209  0.98660  1.0000
  H   H5716     1.0  0.99544  0.51903  0.78028  1.0000
  H   H5717     1.0  0.59684  0.72609  0.93410  1.0000
  H   H5718     1.0  0.95653  0.54704  0.79712  1.0000
  H   H5719     1.0  0.89173  0.53077  0.94967  1.0000
  S   S965      1.0  0.65322  0.50392  0.97745  1.0000
  H   H5720     1.0  0.51260  0.68713  0.89928  1.0000
  H   H5721     1.0  0.72353  0.53167  0.98300  1.0000
  C   C3344     1.0  0.52742  0.63146  0.93786  1.0000
  C   C3345     1.0  0.95843  0.50575  0.82109  1.0000
  N   N239      1.0  0.51903  0.71914  0.96956  1.0000
  H   H5722     1.0  0.61867  0.55311  0.94490  1.0000
  H   H5723     1.0  0.56526  0.73486  0.91928  1.0000
  H   H5724     1.0  0.86377  0.53174  0.97177  1.0000
  H   H5725     1.0  0.53158  0.72046  0.88041  1.0000
  H   H5726     1.0  0.75408  0.55987  0.97556  1.0000
  H   H5727     1.0  0.89626  0.52450  0.96845  1.0000
  H   H5728     1.0  0.55959  0.73149  0.95075  1.0000
  C   C3346     1.0  0.50873  0.59283  0.99101  1.0000
  H   H5729     1.0  0.52800  0.71717  0.93975  1.0000
  H   H5730     1.0  0.57476  0.73773  0.95546  1.0000
  H   H5731     1.0  0.57232  0.72410  0.96487  1.0000
  S   S966      1.0  0.97597  0.52633  0.74832  1.0000
  H   H5732     1.0  0.55975  0.65055  0.97798  1.0000
  H   H5733     1.0  0.57972  0.71297  0.93201  1.0000
  H   H5734     1.0  0.98469  0.53534  0.79476  1.0000
  H   H5735     1.0  0.60119  0.64979  0.98000  1.0000
  C   C3347     1.0  0.51907  0.59697  0.98554  1.0000
  C   C3348     1.0  0.77517  0.58408  0.95642  1.0000
  S   S967      1.0  0.78151  0.51159  0.98709  1.0000
  H   H5736     1.0  0.75003  0.51296  0.98154  1.0000
  C   C3349     1.0  0.52221  0.72056  0.89882  1.0000
  H   H5737     1.0  0.51432  0.71844  0.92370  1.0000
  C   C3350     1.0  0.76060  0.59256  0.98171  1.0000
  H   H5738     1.0  0.97351  0.56507  0.81110  1.0000
  C   C3351     1.0  0.84839  0.50573  0.93643  1.0000
  C   C3352     1.0  0.52440  0.71686  0.88710  1.0000
  H   H5739     1.0  0.53513  0.71349  0.95733  1.0000
  C   C3353     1.0  0.83408  0.52941  0.92730  1.0000
  C   C3354     1.0  0.52644  0.71963  0.95722  1.0000
  C   C3355     1.0  0.73049  0.50362  0.94164  1.0000
  N   N240      1.0  0.53867  0.63560  0.93503  1.0000
  Fe  Fe488     1.0  0.81164  0.53481  0.97948  1.0000
  C   C3356     1.0  0.68089  0.55678  0.98572  1.0000
  H   H5740     1.0  0.95865  0.55670  0.78302  1.0000
  H   H5741     1.0  0.84837  0.53812  0.98790  1.0000
  C   C3357     1.0  0.76424  0.50332  0.97000  1.0000
  H   H5742     1.0  0.54191  0.72416  0.96584  1.0000
  C   C3358     1.0  0.98752  0.54268  0.79615  1.0000
  C   C3359     1.0  0.83219  0.51740  0.92717  1.0000
  H   H5743     1.0  0.51680  0.71470  0.90547  1.0000
  C   C3360     1.0  0.86662  0.53352  0.97890  1.0000
  H   H5744     1.0  0.71520  0.50490  0.90898  1.0000
  H   H5745     1.0  0.76428  0.49474  0.97644  1.0000
  C   C3361     1.0  0.76774  0.51255  0.94828  1.0000
  H   H5746     1.0  0.88857  0.50863  0.97861  1.0000
  C   C3362     1.0  0.96949  0.55780  0.79400  1.0000
  C   C3363     1.0  0.98854  0.56718  0.79723  1.0000
  N   N241      1.0  0.97722  0.55069  0.80245  1.0000
  H   H5747     1.0  0.50550  0.73335  0.96319  1.0000
  H   H5748     1.0  0.85378  0.50401  0.92773  1.0000
  C   C3364     1.0  0.51622  0.64124  0.93659  1.0000
  H   H5749     1.0  0.73898  0.56111  0.97589  1.0000
  H   H5750     1.0  0.93739  0.50203  0.88673  1.0000
  H   H5751     1.0  0.80414  0.50936  0.99141  1.0000
  S   S968      1.0  0.57425  0.60242  0.99079  1.0000
  C   C3365     1.0  0.71152  0.49943  0.94420  1.0000
  C   C3366     1.0  0.55625  0.72258  0.93231  1.0000
  H   H5752     1.0  0.52743  0.70713  0.88859  1.0000
  H   H5753     1.0  0.51461  0.69061  0.98093  1.0000
  N   N242      1.0  0.51651  0.73334  0.89893  1.0000
  H   H5754     1.0  0.63483  0.55030  0.96963  1.0000
  H   H5755     1.0  0.52830  0.72856  0.95327  1.0000
  C   C3367     1.0  0.74514  0.56557  0.97727  1.0000
  C   C3368     1.0  0.79063  0.50114  0.95614  1.0000
  H   H5756     1.0  0.83711  0.51534  0.91846  1.0000
  H   H5757     1.0  0.50066  0.72707  0.91975  1.0000
  C   C3369     1.0  0.59442  0.71846  0.93295  1.0000
  C   C3370     1.0  0.51609  0.73504  0.91088  1.0000
  H   H5758     1.0  0.50521  0.73775  0.88662  1.0000
  C   C3371     1.0  0.55231  0.73606  0.90020  1.0000
  H   H5759     1.0  0.75936  0.52789  0.98548  1.0000
  H   H5760     1.0  0.69695  0.50919  0.95511  1.0000
  C   C3372     1.0  0.52434  0.74057  0.88962  1.0000
  H   H5761     1.0  0.50665  0.73148  0.92914  1.0000
  H   H5762     1.0  0.86713  0.50647  0.96271  1.0000
  H   H5763     1.0  0.52850  0.65110  0.95749  1.0000
  H   H5764     1.0  0.57821  0.65594  0.98487  1.0000
  H   H5765     1.0  0.58528  0.72404  0.95356  1.0000
  H   H5766     1.0  0.77005  0.50719  0.97253  1.0000
  H   H5767     1.0  0.52471  0.73954  0.88070  1.0000
  H   H5768     1.0  0.52072  0.73593  0.97094  1.0000
  S   S969      1.0  0.94325  0.53949  0.74614  1.0000
  S   S970      1.0  0.98589  0.50754  0.83256  1.0000
  C   C3373     1.0  0.85366  0.49609  0.94598  1.0000
  H   H5769     1.0  0.67309  0.53754  0.98451  1.0000
  H   H5770     1.0  0.68752  0.56220  0.98335  1.0000
  H   H5771     1.0  0.69003  0.52402  0.97936  1.0000
  H   H5772     1.0  0.81454  0.50012  0.94133  1.0000
  H   H5773     1.0  0.85001  0.49831  0.95474  1.0000
  H   H5774     1.0  0.74564  0.53839  0.98713  1.0000
  H   H5775     1.0  0.81747  0.49818  0.96133  1.0000
  C   C3374     1.0  0.83376  0.49638  0.93467  1.0000
  H   H5776     1.0  0.86328  0.49549  0.94402  1.0000
  C   C3375     1.0  0.82119  0.49688  0.93394  1.0000
  H   H5777     1.0  0.99520  0.53207  0.81137  1.0000
  H   H5778     1.0  0.75807  0.54077  0.99043  1.0000
  H   H5779     1.0  0.99487  0.56911  0.80107  1.0000
  H   H5780     1.0  0.69585  0.52927  0.98807  1.0000
  C   C3376     1.0  0.75342  0.53398  0.99108  1.0000
  H   H5781     1.0  0.49656  0.70513  0.89714  1.0000
  C   C3377     1.0  0.68885  0.52499  0.98848  1.0000
  C   C3378     1.0  0.49720  0.70224  0.92561  1.0000
  H   H5782     1.0  0.49794  0.71756  0.98743  1.0000
  C   C3379     1.0  0.94234  0.49550  0.89269  1.0000
  H   H5783     1.0  0.75827  0.59358  0.99096  1.0000
  C   C3380     1.0  0.76182  0.49363  0.95615  1.0000
  H   H5784     1.0  0.54404  0.74078  0.99051  1.0000
  H   H5785     1.0  0.49681  0.65373  0.97915  1.0000
  C   C3381     1.0  0.49779  0.72603  0.98096  1.0000
  C   C3382     1.0  0.55730  0.74191  0.87900  1.0000
  H   H5786     1.0  0.58772  0.74179  0.91404  1.0000
  H   H5787     1.0  0.83969  0.49448  0.92623  1.0000
  H   H5788     1.0  0.79905  0.49465  0.95694  1.0000
  H   H5789     1.0  0.85470  0.52292  0.99154  1.0000
  C   C3383     1.0  0.88246  0.52908  0.98949  1.0000
  C   C3384     1.0  0.89522  0.52316  0.99077  1.0000
  H   H5790     1.0  0.89751  0.51366  0.99079  1.0000
  S   S971      1.0  0.91083  0.49370  0.97038  1.0000
  S   S972      1.0  0.89405  0.49403  0.92748  1.0000
  C   C3385     1.0  0.93732  0.49322  0.90479  1.0000
  H   H5791     1.0  0.82191  0.49332  0.99081  1.0000
  S   S973      1.0  0.98874  0.49314  0.75079  1.0000
  Fe  Fe489     1.0  0.55796  0.91528  0.19769  1.0000
  S   S974      1.0  0.56592  0.93057  0.19498  1.0000
  S   S975      1.0  0.54517  0.91742  0.18651  1.0000
  Fe  Fe490     1.0  0.56584  0.90328  0.22097  1.0000
  S   S976      1.0  0.57422  0.91769  0.21998  1.0000
  S   S977      1.0  0.50647  0.90360  0.19583  1.0000
  Fe  Fe491     1.0  0.55837  0.92983  0.21411  1.0000
  S   S978      1.0  0.54818  0.94522  0.22209  1.0000
  Fe  Fe492     1.0  0.58108  0.91683  0.20103  1.0000
  S   S979      1.0  0.59999  0.91777  0.19377  1.0000
  S   S980      1.0  0.54936  0.91545  0.21665  1.0000
  S   S981      1.0  0.57378  0.90139  0.20225  1.0000
  Fe  Fe493     1.0  0.56157  0.77170  0.00847  1.0000
  H   H5792     1.0  0.50110  0.95287  0.15332  1.0000
  Fe  Fe494     1.0  0.56244  0.79731  0.99884  1.0000
  H   H5793     1.0  0.53570  0.88197  0.23245  1.0000
  S   S982      1.0  0.56611  0.81435  0.99894  1.0000
  Fe  Fe495     1.0  0.54202  0.78841  0.99759  1.0000
  H   H5794     1.0  0.55140  0.77434  0.07101  1.0000
  H   H5795     1.0  0.63487  0.89766  0.22882  1.0000
  S   S983      1.0  0.54918  0.78848  0.01254  1.0000
  H   H5796     1.0  0.61694  0.91458  0.22276  1.0000
  H   H5797     1.0  0.52510  0.98273  0.23592  1.0000
  S   S984      1.0  0.53025  0.89091  0.13006  1.0000
  C   C3386     1.0  0.51033  0.76537  0.00421  1.0000
  Fe  Fe496     1.0  0.52189  0.92438  0.11635  1.0000
  S   S985      1.0  0.53961  0.91306  0.11057  1.0000
  S   S986      1.0  0.51505  0.94383  0.11046  1.0000
  Fe  Fe497     1.0  0.52963  0.89970  0.11115  1.0000
  S   S987      1.0  0.53509  0.89135  0.09512  1.0000
  Fe  Fe498     1.0  0.53864  0.90530  0.12988  1.0000
  S   S988      1.0  0.55421  0.90264  0.13795  1.0000
  H   H5798     1.0  0.50514  0.86840  0.10245  1.0000
  S   S989      1.0  0.52168  0.91776  0.13543  1.0000
  C   C3387     1.0  0.55950  0.96783  0.23124  1.0000
  C   C3388     1.0  0.51522  0.96390  0.18762  1.0000
  Fe  Fe499     1.0  0.53258  0.83872  0.05005  1.0000
  H   H5799     1.0  0.52288  0.91782  0.06158  1.0000
  S   S990      1.0  0.55061  0.82683  0.04908  1.0000
  Fe  Fe500     1.0  0.58981  0.97826  0.19455  1.0000
  H   H5800     1.0  0.58679  0.93212  0.17457  1.0000
  H   H5801     1.0  0.55096  0.95235  0.15998  1.0000
  S   S991      1.0  0.52788  0.85817  0.04921  1.0000
  H   H5802     1.0  0.54294  0.97182  0.14113  1.0000
  H   H5803     1.0  0.56586  0.83021  0.08576  1.0000
  H   H5804     1.0  0.54886  0.92337  0.07492  1.0000
  C   C3389     1.0  0.56170  0.78033  0.04885  1.0000
  H   H5805     1.0  0.52526  0.98078  0.10750  1.0000
  H   H5806     1.0  0.53258  0.81360  0.05057  1.0000
  C   C3390     1.0  0.53571  0.79455  0.05606  1.0000
  H   H5807     1.0  0.55306  0.77365  0.04021  1.0000
  H   H5808     1.0  0.52202  0.89856  0.17452  1.0000
  H   H5809     1.0  0.62450  0.89504  0.22234  1.0000
  N   N243      1.0  0.60281  0.94962  0.15891  1.0000
  H   H5810     1.0  0.61600  0.95426  0.17308  1.0000
  H   H5811     1.0  0.52416  0.92875  0.04865  1.0000
  H   H5812     1.0  0.51400  0.89904  0.22857  1.0000
  C   C3391     1.0  0.51971  0.92729  0.05811  1.0000
  H   H5813     1.0  0.53336  0.95881  0.17870  1.0000
  C   C3392     1.0  0.52506  0.95274  0.10767  1.0000
  C   C3393     1.0  0.52080  0.96454  0.10851  1.0000
  C   C3394     1.0  0.52862  0.97177  0.10653  1.0000
  C   C3395     1.0  0.54076  0.96730  0.10346  1.0000
  C   C3396     1.0  0.54502  0.95555  0.10240  1.0000
  C   C3397     1.0  0.53719  0.94826  0.10455  1.0000
  H   H5814     1.0  0.51142  0.96806  0.11086  1.0000
  N   N244      1.0  0.53905  0.78325  0.05180  1.0000
  H   H5815     1.0  0.55440  0.95207  0.10002  1.0000
  H   H5816     1.0  0.54056  0.93918  0.10382  1.0000
  C   C3398     1.0  0.52758  0.85848  0.00704  1.0000
  H   H5817     1.0  0.56199  0.93926  0.14447  1.0000
  H   H5818     1.0  0.52753  0.79476  0.06307  1.0000
  H   H5819     1.0  0.55148  0.78882  0.03565  1.0000
  S   S992      1.0  0.56396  0.75709  0.02428  1.0000
  C   C3399     1.0  0.55075  0.94312  0.16087  1.0000
  H   H5820     1.0  0.51988  0.88084  0.22606  1.0000
  S   S993      1.0  0.50792  0.86127  0.08101  1.0000
  H   H5821     1.0  0.51107  0.91215  0.09113  1.0000
  H   H5822     1.0  0.61464  0.96157  0.15168  1.0000
  C   C3400     1.0  0.52678  0.88376  0.09116  1.0000
  C   C3401     1.0  0.52971  0.88206  0.07959  1.0000
  C   C3402     1.0  0.52382  0.87547  0.07626  1.0000
  N   N245      1.0  0.54459  0.94753  0.14082  1.0000
  N   N246      1.0  0.52316  0.93129  0.07675  1.0000
  H   H5823     1.0  0.53920  0.98738  0.17556  1.0000
  H   H5824     1.0  0.53661  0.88581  0.07319  1.0000
  H   H5825     1.0  0.52604  0.87436  0.06732  1.0000
  C   C3403     1.0  0.62554  0.89733  0.23017  1.0000
  C   C3404     1.0  0.55155  0.96678  0.13704  1.0000
  C   C3405     1.0  0.56222  0.81772  0.01289  1.0000
  C   C3406     1.0  0.55641  0.82920  0.01411  1.0000
  C   C3407     1.0  0.55286  0.83201  0.02521  1.0000
  C   C3408     1.0  0.55561  0.82349  0.03507  1.0000
  C   C3409     1.0  0.56190  0.81213  0.03379  1.0000
  C   C3410     1.0  0.56491  0.80915  0.02276  1.0000
  H   H5826     1.0  0.55444  0.83587  0.00649  1.0000
  H   H5827     1.0  0.54813  0.84083  0.02611  1.0000
  H   H5828     1.0  0.56413  0.80557  0.04138  1.0000
  H   H5829     1.0  0.56956  0.80031  0.02181  1.0000
  C   C3411     1.0  0.55715  0.81998  0.08073  1.0000
  H   H5830     1.0  0.55957  0.87449  0.21606  1.0000
  C   C3412     1.0  0.53486  0.98054  0.17535  1.0000
  C   C3413     1.0  0.53723  0.88862  0.19188  1.0000
  H   H5831     1.0  0.51016  0.97310  0.18638  1.0000
  H   H5832     1.0  0.51399  0.96013  0.18084  1.0000
  H   H5833     1.0  0.53625  0.78026  0.07749  1.0000
  C   C3414     1.0  0.55255  0.93986  0.14897  1.0000
  H   H5834     1.0  0.53150  0.79035  0.03635  1.0000
  H   H5835     1.0  0.63746  0.98682  0.21506  1.0000
  H   H5836     1.0  0.52949  0.80894  0.01901  1.0000
  H   H5837     1.0  0.54573  0.89071  0.22340  1.0000
  H   H5838     1.0  0.55148  0.93064  0.15144  1.0000
  H   H5839     1.0  0.54008  0.84799  0.99535  1.0000
  S   S994      1.0  0.57761  0.99120  0.20492  1.0000
  C   C3415     1.0  0.60166  0.93011  0.19728  1.0000
  C   C3416     1.0  0.59167  0.93836  0.20117  1.0000
  C   C3417     1.0  0.59279  0.94878  0.20298  1.0000
  C   C3418     1.0  0.60389  0.95107  0.20087  1.0000
  C   C3419     1.0  0.61397  0.94256  0.19759  1.0000
  C   C3420     1.0  0.61285  0.93206  0.19573  1.0000
  H   H5840     1.0  0.58301  0.93694  0.20249  1.0000
  H   H5841     1.0  0.58502  0.95509  0.20595  1.0000
  H   H5842     1.0  0.62259  0.94431  0.19596  1.0000
  H   H5843     1.0  0.62061  0.92565  0.19278  1.0000
  C   C3421     1.0  0.53347  0.94433  0.22525  1.0000
  C   C3422     1.0  0.59776  0.90615  0.23397  1.0000
  C   C3423     1.0  0.51115  0.89909  0.16311  1.0000
  C   C3424     1.0  0.51077  0.94022  0.23147  1.0000
  C   C3425     1.0  0.51818  0.93826  0.22075  1.0000
  C   C3426     1.0  0.52954  0.94028  0.21767  1.0000
  H   H5844     1.0  0.51243  0.92838  0.16433  1.0000
  S   S995      1.0  0.51187  0.87237  0.02152  1.0000
  H   H5845     1.0  0.51371  0.80875  0.01364  1.0000
  H   H5846     1.0  0.53536  0.93846  0.20952  1.0000
  C   C3427     1.0  0.54814  0.91282  0.17322  1.0000
  C   C3428     1.0  0.53862  0.91398  0.16835  1.0000
  C   C3429     1.0  0.54038  0.91066  0.15770  1.0000
  C   C3430     1.0  0.55174  0.90630  0.15169  1.0000
  C   C3431     1.0  0.56134  0.90514  0.15654  1.0000
  C   C3432     1.0  0.55955  0.90836  0.16732  1.0000
  H   H5847     1.0  0.52978  0.91720  0.17300  1.0000
  H   H5848     1.0  0.53291  0.91134  0.15426  1.0000
  H   H5849     1.0  0.57016  0.90174  0.15195  1.0000
  H   H5850     1.0  0.56697  0.90742  0.17101  1.0000
  H   H5851     1.0  0.53243  0.89792  0.19002  1.0000
  H   H5852     1.0  0.53278  0.85556  0.01365  1.0000
  H   H5853     1.0  0.59230  0.94785  0.17670  1.0000
  C   C3433     1.0  0.61758  0.90944  0.23179  1.0000
  H   H5854     1.0  0.52234  0.86434  0.21493  1.0000
  H   H5855     1.0  0.51868  0.96444  0.20960  1.0000
  H   H5856     1.0  0.55790  0.96741  0.17429  1.0000
  C   C3434     1.0  0.59671  0.98415  0.22401  1.0000
  C   C3435     1.0  0.60214  0.95016  0.14655  1.0000
  H   H5857     1.0  0.52555  0.83256  0.99418  1.0000
  H   H5858     1.0  0.51530  0.93488  0.21499  1.0000
  H   H5859     1.0  0.53074  0.86179  0.22583  1.0000
  H   H5860     1.0  0.60058  0.94195  0.14565  1.0000
  H   H5861     1.0  0.61077  0.95094  0.14039  1.0000
  C   C3436     1.0  0.52791  0.93988  0.08001  1.0000
  H   H5862     1.0  0.61848  0.98418  0.21648  1.0000
  C   C3437     1.0  0.61842  0.99123  0.22066  1.0000
  H   H5863     1.0  0.50431  0.93488  0.14895  1.0000
  C   C3438     1.0  0.51870  0.82735  0.99650  1.0000
  H   H5864     1.0  0.55492  0.96528  0.22593  1.0000
  H   H5865     1.0  0.56738  0.98353  0.23813  1.0000
  H   H5866     1.0  0.60775  0.88807  0.23216  1.0000
  C   C3439     1.0  0.60877  0.96145  0.17015  1.0000
  H   H5867     1.0  0.52963  0.96970  0.21295  1.0000
  C   C3440     1.0  0.59260  0.96026  0.14158  1.0000
  H   H5868     1.0  0.51602  0.94389  0.06260  1.0000
  H   H5869     1.0  0.51726  0.91315  0.22253  1.0000
  C   C3441     1.0  0.51776  0.87895  0.09931  1.0000
  H   H5870     1.0  0.53698  0.81855  0.00667  1.0000
  H   H5871     1.0  0.51484  0.97793  0.21429  1.0000
  C   C3442     1.0  0.51505  0.87034  0.08451  1.0000
  N   N247      1.0  0.54995  0.84205  0.08116  1.0000
  C   C3443     1.0  0.55722  0.84634  0.06920  1.0000
  C   C3444     1.0  0.55659  0.83008  0.08640  1.0000
  C   C3445     1.0  0.54778  0.85020  0.08926  1.0000
  C   C3446     1.0  0.53823  0.84153  0.07972  1.0000
  C   C3447     1.0  0.55295  0.85927  0.06319  1.0000
  C   C3448     1.0  0.55887  0.85258  0.09107  1.0000
  C   C3449     1.0  0.52968  0.83696  0.09111  1.0000
  H   H5872     1.0  0.56654  0.84517  0.06954  1.0000
  H   H5873     1.0  0.55758  0.84099  0.06295  1.0000
  H   H5874     1.0  0.55295  0.82746  0.09600  1.0000
  H   H5875     1.0  0.54199  0.85881  0.08626  1.0000
  H   H5876     1.0  0.54280  0.84668  0.09817  1.0000
  H   H5877     1.0  0.53340  0.85043  0.07601  1.0000
  H   H5878     1.0  0.53920  0.83648  0.07302  1.0000
  H   H5879     1.0  0.55296  0.86556  0.06826  1.0000
  H   H5880     1.0  0.55902  0.86126  0.05451  1.0000
  H   H5881     1.0  0.54413  0.86093  0.06144  1.0000
  H   H5882     1.0  0.51309  0.78645  0.02157  1.0000
  H   H5883     1.0  0.56432  0.85654  0.08274  1.0000
  H   H5884     1.0  0.56429  0.84448  0.09553  1.0000
  H   H5885     1.0  0.55608  0.85899  0.09686  1.0000
  H   H5886     1.0  0.57201  0.95150  0.22774  1.0000
  H   H5887     1.0  0.53410  0.82985  0.09742  1.0000
  H   H5888     1.0  0.53245  0.76060  0.02280  1.0000
  H   H5889     1.0  0.54238  0.94129  0.16684  1.0000
  H   H5890     1.0  0.51609  0.98369  0.19380  1.0000
  H   H5891     1.0  0.55789  0.93742  0.16530  1.0000
  H   H5892     1.0  0.52004  0.98075  0.16816  1.0000
  H   H5893     1.0  0.59315  0.89193  0.22999  1.0000
  H   H5894     1.0  0.54541  0.96123  0.12506  1.0000
  C   C3450     1.0  0.55107  0.78169  0.04370  1.0000
  C   C3451     1.0  0.51688  0.86667  0.00874  1.0000
  H   H5895     1.0  0.55134  0.92733  0.12276  1.0000
  S   S996      1.0  0.55077  0.97593  0.10177  1.0000
  H   H5896     1.0  0.56037  0.97688  0.22645  1.0000
  H   H5897     1.0  0.53539  0.97061  0.23047  1.0000
  C   C3452     1.0  0.57201  0.95990  0.22969  1.0000
  H   H5898     1.0  0.58370  0.96021  0.14728  1.0000
  H   H5899     1.0  0.51576  0.96471  0.14641  1.0000
  C   C3453     1.0  0.51313  0.89966  0.17371  1.0000
  H   H5900     1.0  0.53343  0.95818  0.15327  1.0000
  H   H5901     1.0  0.52868  0.94547  0.15399  1.0000
  C   C3454     1.0  0.54269  0.93979  0.13405  1.0000
  S   S997      1.0  0.51195  0.91179  0.11557  1.0000
  H   H5902     1.0  0.53660  0.94092  0.07419  1.0000
  S   S998      1.0  0.49706  0.93658  0.23615  1.0000
  H   H5903     1.0  0.52312  0.90293  0.20679  1.0000
  H   H5904     1.0  0.53698  0.75115  0.00707  1.0000
  S   S999      1.0  0.60500  0.96502  0.20109  1.0000
  C   C3455     1.0  0.54450  0.96784  0.19092  1.0000
  H   H5905     1.0  0.53069  0.95456  0.19418  1.0000
  H   H5906     1.0  0.53718  0.94500  0.12766  1.0000
  H   H5907     1.0  0.51888  0.88439  0.21141  1.0000
  H   H5908     1.0  0.56014  0.78635  0.05474  1.0000
  H   H5909     1.0  0.54365  0.96156  0.19959  1.0000
  N   N248      1.0  0.53282  0.97241  0.18729  1.0000
  H   H5910     1.0  0.56224  0.95732  0.18686  1.0000
  C   C3456     1.0  0.53269  0.95267  0.14774  1.0000
  C   C3457     1.0  0.55469  0.96132  0.18251  1.0000
  C   C3458     1.0  0.52854  0.96207  0.18684  1.0000
  C   C3459     1.0  0.52359  0.96047  0.14046  1.0000
  H   H5911     1.0  0.52693  0.96772  0.13369  1.0000
  C   C3460     1.0  0.55392  0.93302  0.12688  1.0000
  H   H5912     1.0  0.53145  0.91678  0.08880  1.0000
  H   H5913     1.0  0.52598  0.74354  0.00157  1.0000
  S   S1000     1.0  0.57524  0.97373  0.19008  1.0000
  H   H5914     1.0  0.52045  0.95527  0.13628  1.0000
  H   H5915     1.0  0.51075  0.93165  0.09352  1.0000
  H   H5916     1.0  0.59233  0.95921  0.13288  1.0000
  H   H5917     1.0  0.54239  0.79523  0.06027  1.0000
  H   H5918     1.0  0.53776  0.93316  0.14008  1.0000
  H   H5919     1.0  0.55750  0.96338  0.14322  1.0000
  H   H5920     1.0  0.55234  0.95404  0.18053  1.0000
  C   C3461     1.0  0.52465  0.97933  0.19614  1.0000
  C   C3462     1.0  0.52191  0.97229  0.20891  1.0000
  H   H5921     1.0  0.50191  0.87677  0.00140  1.0000
  C   C3463     1.0  0.52398  0.98697  0.17010  1.0000
  C   C3464     1.0  0.55032  0.95693  0.13212  1.0000
  H   H5922     1.0  0.54335  0.76454  0.05938  1.0000
  H   H5923     1.0  0.58607  0.93779  0.15935  1.0000
  C   C3465     1.0  0.54168  0.88348  0.22361  1.0000
  H   H5924     1.0  0.55558  0.97318  0.12959  1.0000
  C   C3466     1.0  0.52133  0.90360  0.22457  1.0000
  S   S1001     1.0  0.50134  0.75054  0.02386  1.0000
  H   H5925     1.0  0.54889  0.90892  0.07435  1.0000
  Fe  Fe501     1.0  0.56345  0.98819  0.19861  1.0000
  H   H5926     1.0  0.53869  0.74792  0.03256  1.0000
  C   C3467     1.0  0.58457  0.94021  0.16784  1.0000
  Fe  Fe502     1.0  0.51575  0.85894  0.03786  1.0000
  C   C3468     1.0  0.53123  0.81787  0.01562  1.0000
  H   H5927     1.0  0.55860  0.93899  0.11960  1.0000
  H   H5928     1.0  0.57793  0.96447  0.22217  1.0000
  H   H5929     1.0  0.58500  0.95817  0.16648  1.0000
  C   C3469     1.0  0.51641  0.78254  0.00456  1.0000
  H   H5930     1.0  0.52445  0.84424  0.09561  1.0000
  H   H5931     1.0  0.56680  0.98132  0.14000  1.0000
  Fe  Fe503     1.0  0.51326  0.90410  0.13430  1.0000
  H   H5932     1.0  0.56004  0.92714  0.13242  1.0000
  S   S1002     1.0  0.57629  0.98216  0.15857  1.0000
  H   H5933     1.0  0.56907  0.78280  0.04155  1.0000
  S   S1003     1.0  0.55308  0.77090  0.99464  1.0000
  H   H5934     1.0  0.52507  0.74876  0.02872  1.0000
  H   H5935     1.0  0.55933  0.95309  0.12755  1.0000
  H   H5936     1.0  0.53119  0.88282  0.19321  1.0000
  H   H5937     1.0  0.61131  0.93745  0.17246  1.0000
  C   C3470     1.0  0.59117  0.94942  0.16758  1.0000
  H   H5938     1.0  0.52242  0.83610  0.01367  1.0000
  H   H5939     1.0  0.57620  0.95798  0.23715  1.0000
  H   H5940     1.0  0.51540  0.88017  0.10824  1.0000
  C   C3471     1.0  0.53344  0.80601  0.04675  1.0000
  S   S1004     1.0  0.59332  0.99152  0.17772  1.0000
  H   H5941     1.0  0.61915  0.92035  0.16459  1.0000
  C   C3472     1.0  0.51977  0.82754  0.01621  1.0000
  C   C3473     1.0  0.54312  0.88581  0.20233  1.0000
  C   C3474     1.0  0.55196  0.87255  0.22330  1.0000
  C   C3475     1.0  0.53025  0.78389  0.04488  1.0000
  H   H5942     1.0  0.52801  0.76550  0.04985  1.0000
  C   C3476     1.0  0.54229  0.77327  0.07301  1.0000
  C   C3477     1.0  0.52015  0.95247  0.07945  1.0000
  H   H5943     1.0  0.54412  0.88726  0.18383  1.0000
  H   H5944     1.0  0.59971  0.96862  0.15621  1.0000
  H   H5945     1.0  0.51852  0.89749  0.15585  1.0000
  H   H5946     1.0  0.56102  0.82179  0.07115  1.0000
  H   H5947     1.0  0.56465  0.77109  0.05343  1.0000
  H   H5948     1.0  0.53552  0.90544  0.20940  1.0000
  H   H5949     1.0  0.56286  0.81182  0.08476  1.0000
  H   H5950     1.0  0.58834  0.90976  0.23766  1.0000
  H   H5951     1.0  0.59928  0.91011  0.22436  1.0000
  C   C3478     1.0  0.61278  0.92737  0.16002  1.0000
  C   C3479     1.0  0.51233  0.78056  0.01674  1.0000
  C   C3480     1.0  0.52589  0.94667  0.23578  1.0000
  C   C3481     1.0  0.54415  0.91828  0.07229  1.0000
  H   H5952     1.0  0.52504  0.80738  0.04411  1.0000
  H   H5953     1.0  0.60526  0.93207  0.22305  1.0000
  H   H5954     1.0  0.52669  0.90229  0.23101  1.0000
  C   C3482     1.0  0.53383  0.75089  0.02538  1.0000
  H   H5955     1.0  0.60070  0.96175  0.17725  1.0000
  H   H5956     1.0  0.50318  0.81582  0.02395  1.0000
  H   H5957     1.0  0.51904  0.95698  0.07042  1.0000
  H   H5958     1.0  0.62407  0.89011  0.23790  1.0000
  H   H5959     1.0  0.50844  0.78854  0.07757  1.0000
  H   H5960     1.0  0.54309  0.98558  0.23682  1.0000
  H   H5961     1.0  0.61151  0.96980  0.16872  1.0000
  C   C3483     1.0  0.60649  0.96060  0.15860  1.0000
  H   H5962     1.0  0.52899  0.77200  0.06564  1.0000
  H   H5963     1.0  0.52456  0.95777  0.08222  1.0000
  S   S1005     1.0  0.52205  0.83994  0.03726  1.0000
  H   H5964     1.0  0.54872  0.87684  0.20252  1.0000
  S   S1006     1.0  0.52303  0.79430  0.99720  1.0000
  H   H5965     1.0  0.50003  0.84222  0.02651  1.0000
  S   S1007     1.0  0.51845  0.83425  0.06587  1.0000
  H   H5966     1.0  0.54758  0.97515  0.19208  1.0000
  C   C3484     1.0  0.53172  0.85425  0.99666  1.0000
  H   H5967     1.0  0.57496  0.94391  0.17016  1.0000
  C   C3485     1.0  0.53038  0.77229  0.04191  1.0000
  H   H5968     1.0  0.52117  0.78712  0.04968  1.0000
  H   H5969     1.0  0.62113  0.94101  0.15879  1.0000
  H   H5970     1.0  0.54837  0.81810  0.08230  1.0000
  H   H5971     1.0  0.52817  0.91236  0.07778  1.0000
  C   C3486     1.0  0.61221  0.93917  0.16281  1.0000
  H   H5972     1.0  0.54074  0.80625  0.03891  1.0000
  H   H5973     1.0  0.53726  0.86479  0.21024  1.0000
  H   H5974     1.0  0.57334  0.74692  0.00333  1.0000
  N   N249      1.0  0.53486  0.88705  0.21404  1.0000
  C   C3487     1.0  0.51198  0.87224  0.09601  1.0000
  C   C3488     1.0  0.53130  0.91939  0.07929  1.0000
  S   S1008     1.0  0.54585  0.98691  0.21013  1.0000
  H   H5975     1.0  0.52358  0.77409  0.03680  1.0000
  H   H5976     1.0  0.52354  0.83310  0.08892  1.0000
  C   C3489     1.0  0.51025  0.87050  0.00005  1.0000
  C   C3490     1.0  0.52933  0.86707  0.21708  1.0000
  C   C3491     1.0  0.53829  0.77291  0.06215  1.0000
  S   S1009     1.0  0.50044  0.85617  0.05298  1.0000
  C   C3492     1.0  0.59726  0.93127  0.23008  1.0000
  C   C3493     1.0  0.52536  0.88030  0.21712  1.0000
  H   H5977     1.0  0.52949  0.93651  0.08908  1.0000
  H   H5978     1.0  0.51106  0.95888  0.19619  1.0000
  C   C3494     1.0  0.51547  0.77493  0.99830  1.0000
  H   H5979     1.0  0.59456  0.96900  0.14009  1.0000
  H   H5980     1.0  0.61610  0.92753  0.15049  1.0000
  H   H5981     1.0  0.54192  0.76480  0.07948  1.0000
  H   H5982     1.0  0.58781  0.98231  0.22771  1.0000
  H   H5983     1.0  0.61860  0.98677  0.22999  1.0000
  H   H5984     1.0  0.54946  0.89159  0.20000  1.0000
  H   H5985     1.0  0.51526  0.82644  0.02567  1.0000
  H   H5986     1.0  0.60431  0.92466  0.16319  1.0000
  C   C3495     1.0  0.52893  0.89993  0.21308  1.0000
  C   C3496     1.0  0.52273  0.93550  0.06394  1.0000
  H   H5987     1.0  0.54984  0.74785  0.01256  1.0000
  H   H5988     1.0  0.53637  0.81898  0.02130  1.0000
  C   C3497     1.0  0.56648  0.99042  0.13950  1.0000
  C   C3498     1.0  0.51458  0.94456  0.23891  1.0000
  H   H5989     1.0  0.53891  0.76869  0.03640  1.0000
  H   H5990     1.0  0.53107  0.93796  0.05848  1.0000
  C   C3499     1.0  0.59874  0.89293  0.23532  1.0000
  H   H5991     1.0  0.50632  0.84652  0.00492  1.0000
  H   H5992     1.0  0.59052  0.92952  0.22669  1.0000
  H   H5993     1.0  0.52366  0.81826  0.99574  1.0000
  C   C3500     1.0  0.50338  0.80501  0.06566  1.0000
  H   H5994     1.0  0.59907  0.98382  0.21463  1.0000
  Fe  Fe504     1.0  0.51302  0.85395  0.06440  1.0000
  Fe  Fe505     1.0  0.50740  0.83691  0.05293  1.0000
  H   H5995     1.0  0.54098  0.97567  0.16868  1.0000
  H   H5996     1.0  0.50928  0.92822  0.17953  1.0000
  N   N250      1.0  0.51160  0.82759  0.00888  1.0000
  S   S1010     1.0  0.57563  0.78060  0.99594  1.0000
  H   H5997     1.0  0.50642  0.81008  0.06975  1.0000
  H   H5998     1.0  0.52829  0.98673  0.19625  1.0000
  S   S1011     1.0  0.50318  0.77076  0.06992  1.0000
  H   H5999     1.0  0.54949  0.86476  0.22260  1.0000
  H   H6000     1.0  0.54479  0.92080  0.06268  1.0000
  S   S1012     1.0  0.50684  0.74503  0.05492  1.0000
  H   H6001     1.0  0.60278  0.97691  0.22869  1.0000
  S   S1013     1.0  0.56504  0.88829  0.23677  1.0000
  H   H6002     1.0  0.49692  0.92163  0.09122  1.0000
  C   C3501     1.0  0.50223  0.83882  0.00902  1.0000
  Fe  Fe506     1.0  0.57776  0.98794  0.17397  1.0000
  H   H6003     1.0  0.51008  0.92921  0.05876  1.0000
  H   H6004     1.0  0.50937  0.75964  0.99931  1.0000
  H   H6005     1.0  0.55601  0.74481  0.99329  1.0000
  H   H6006     1.0  0.50595  0.91843  0.07765  1.0000
  H   H6007     1.0  0.50487  0.76897  0.03217  1.0000
  C   C3502     1.0  0.51101  0.93106  0.08444  1.0000
  C   C3503     1.0  0.50661  0.81680  0.01429  1.0000
  H   H6008     1.0  0.55509  0.87019  0.23159  1.0000
  C   C3504     1.0  0.50613  0.92016  0.08603  1.0000
  C   C3505     1.0  0.50695  0.93341  0.17108  1.0000
  H   H6009     1.0  0.51144  0.95265  0.08559  1.0000
  C   C3506     1.0  0.53161  0.97447  0.23834  1.0000
  S   S1014     1.0  0.49717  0.90110  0.14829  1.0000
  C   C3507     1.0  0.54103  0.74582  0.01455  1.0000
  H   H6010     1.0  0.59360  0.94004  0.23235  1.0000
  C   C3508     1.0  0.50367  0.90193  0.18310  1.0000
  H   H6011     1.0  0.50442  0.93890  0.08116  1.0000
  H   H6012     1.0  0.51997  0.90362  0.99284  1.0000
  H   H6013     1.0  0.62255  0.91414  0.23466  1.0000
  C   C3509     1.0  0.50445  0.79283  0.07010  1.0000
  H   H6014     1.0  0.50931  0.94199  0.16936  1.0000
  C   C3510     1.0  0.50658  0.76317  0.01643  1.0000
  C   C3511     1.0  0.50753  0.77078  0.02271  1.0000
  H   H6015     1.0  0.61409  0.99201  0.19973  1.0000
  C   C3512     1.0  0.49969  0.90053  0.16195  1.0000
  H   H6016     1.0  0.50106  0.81186  0.00092  1.0000
  C   C3513     1.0  0.50054  0.78617  0.06486  1.0000
  C   C3514     1.0  0.49819  0.81061  0.05606  1.0000
  S   S1015     1.0  0.49770  0.93443  0.20326  1.0000
  N   N251      1.0  0.60549  0.90959  0.23962  1.0000
  C   C3515     1.0  0.49714  0.81540  0.00900  1.0000
  H   H6017     1.0  0.53421  0.92140  0.24077  1.0000
  H   H6018     1.0  0.49595  0.83968  0.00361  1.0000
  S   S1016     1.0  0.49644  0.82588  0.05031  1.0000
  H   H6019     1.0  0.51726  0.99271  0.17561  1.0000
  H   H6020     1.0  0.52681  0.99284  0.16153  1.0000
  C   C3516     1.0  0.59995  0.92204  0.24120  1.0000
  C   C3517     1.0  0.57260  0.90150  0.26051  1.0000
  C   C3518     1.0  0.56928  0.88973  0.24897  1.0000
  C   C3519     1.0  0.58304  0.96407  0.26457  1.0000
  S   S1017     1.0  0.60014  0.98976  0.25865  1.0000
  H   H6021     1.0  0.53584  0.97185  0.28011  1.0000
  H   H6022     1.0  0.61707  0.98215  0.28011  1.0000
  H   H6023     1.0  0.53498  0.92077  0.34389  1.0000
  S   S1018     1.0  0.50684  0.93700  0.27430  1.0000
  C   C3520     1.0  0.52446  0.95105  0.33914  1.0000
  H   H6024     1.0  0.76334  0.92110  0.48394  1.0000
  H   H6025     1.0  0.56642  0.98863  0.30614  1.0000
  C   C3521     1.0  0.52058  0.96446  0.29127  1.0000
  H   H6026     1.0  0.73166  0.99276  0.38699  1.0000
  H   H6027     1.0  0.50716  0.92285  0.35740  1.0000
  S   S1019     1.0  0.51593  0.96059  0.37462  1.0000
  H   H6028     1.0  0.54153  0.92959  0.35938  1.0000
  H   H6029     1.0  0.59524  0.88870  0.24453  1.0000
  C   C3522     1.0  0.59102  0.95635  0.25785  1.0000
  H   H6030     1.0  0.58878  0.96298  0.31060  1.0000
  H   H6031     1.0  0.72467  0.97707  0.43007  1.0000
  Fe  Fe507     1.0  0.99245  0.76693  0.43867  1.0000
  H   H6032     1.0  0.61051  0.94322  0.30644  1.0000
  N   N252      1.0  0.51110  0.97562  0.29102  1.0000
  H   H6033     1.0  0.60376  0.94432  0.28931  1.0000
  H   H6034     1.0  0.77574  0.92463  0.46270  1.0000
  H   H6035     1.0  0.75431  0.98436  0.46384  1.0000
  C   C3523     1.0  0.55827  0.97051  0.25129  1.0000
  C   C3524     1.0  0.83206  0.93779  0.39818  1.0000
  H   H6036     1.0  0.71259  0.96056  0.48605  1.0000
  S   S1020     1.0  0.60403  0.96794  0.35189  1.0000
  H   H6037     1.0  0.70710  0.96840  0.43782  1.0000
  H   H6038     1.0  0.54090  0.95713  0.25657  1.0000
  S   S1021     1.0  0.57744  0.96945  0.36898  1.0000
  H   H6039     1.0  0.77179  0.90610  0.48599  1.0000
  Fe  Fe508     1.0  0.59253  0.97812  0.36550  1.0000
  S   S1022     1.0  0.59703  0.98129  0.38117  1.0000
  Fe  Fe509     1.0  0.58832  0.96056  0.35424  1.0000
  S   S1023     1.0  0.58944  0.94144  0.35560  1.0000
  H   H6040     1.0  0.53129  0.93531  0.37122  1.0000
  S   S1024     1.0  0.58070  0.97442  0.34029  1.0000
  C   C3525     1.0  0.85111  0.91667  0.46895  1.0000
  H   H6041     1.0  0.56643  0.96386  0.25249  1.0000
  C   C3526     1.0  0.77713  0.96787  0.48746  1.0000
  Fe  Fe510     1.0  0.67119  0.96559  0.42154  1.0000
  S   S1025     1.0  0.67264  0.97601  0.40302  1.0000
  S   S1026     1.0  0.68436  0.94932  0.42770  1.0000
  H   H6042     1.0  0.81176  0.92085  0.45031  1.0000
  H   H6043     1.0  0.97850  0.79992  0.43782  1.0000
  H   H6044     1.0  0.96062  0.81777  0.41222  1.0000
  H   H6045     1.0  0.51520  0.94169  0.36150  1.0000
  S   S1027     1.0  0.65189  0.96638  0.42463  1.0000
  Fe  Fe511     1.0  0.57859  0.90885  0.28592  1.0000
  S   S1028     1.0  0.56613  0.92440  0.27809  1.0000
  Fe  Fe512     1.0  0.97865  0.77840  0.45893  1.0000
  Fe  Fe513     1.0  0.58556  0.92333  0.29904  1.0000
  S   S1029     1.0  0.57374  0.94008  0.29182  1.0000
  S   S1030     1.0  0.59877  0.92324  0.30895  1.0000
  Fe  Fe514     1.0  0.56080  0.92874  0.29586  1.0000
  S   S1031     1.0  0.54191  0.93426  0.30488  1.0000
  Fe  Fe515     1.0  0.58031  0.93394  0.27487  1.0000
  H   H6046     1.0  0.83876  0.92968  0.39655  1.0000
  S   S1032     1.0  0.57218  0.91225  0.30426  1.0000
  S   S1033     1.0  0.59322  0.91812  0.28161  1.0000
  H   H6047     1.0  0.93282  0.77844  0.46695  1.0000
  Fe  Fe516     1.0  0.75053  0.91840  0.43485  1.0000
  S   S1034     1.0  0.75526  0.92144  0.41522  1.0000
  S   S1035     1.0  0.73834  0.90643  0.44477  1.0000
  Fe  Fe517     1.0  0.76223  0.93720  0.43518  1.0000
  S   S1036     1.0  0.76727  0.94229  0.41551  1.0000
  S   S1037     1.0  0.76575  0.94647  0.44692  1.0000
  Fe  Fe518     1.0  0.74934  0.94045  0.41596  1.0000
  S   S1038     1.0  0.73711  0.95287  0.40478  1.0000
  Fe  Fe519     1.0  0.77263  0.92284  0.41697  1.0000
  S   S1039     1.0  0.79024  0.91515  0.40682  1.0000
  S   S1040     1.0  0.74373  0.93741  0.43553  1.0000
  S   S1041     1.0  0.76855  0.91778  0.43667  1.0000
  Fe  Fe520     1.0  0.91667  0.92815  0.48280  1.0000
  S   S1042     1.0  0.90895  0.94735  0.48284  1.0000
  Fe  Fe521     1.0  0.57100  0.98400  0.35471  1.0000
  H   H6048     1.0  0.53730  0.97804  0.34048  1.0000
  H   H6049     1.0  0.87927  0.96363  0.43787  1.0000
  H   H6050     1.0  0.95481  0.93120  0.47326  1.0000
  S   S1043     1.0  0.87528  0.95445  0.48296  1.0000
  H   H6051     1.0  0.54551  0.92261  0.24662  1.0000
  S   S1044     1.0  0.99291  0.74864  0.44938  1.0000
  H   H6052     1.0  0.85888  0.90089  0.48006  1.0000
  C   C3527     1.0  0.82349  0.98895  0.41073  1.0000
  Fe  Fe522     1.0  0.82849  0.93439  0.43410  1.0000
  S   S1045     1.0  0.81285  0.94953  0.43558  1.0000
  S   S1046     1.0  0.83024  0.91745  0.42909  1.0000
  Fe  Fe523     1.0  0.84416  0.94641  0.44002  1.0000
  S   S1047     1.0  0.83004  0.96278  0.44191  1.0000
  S   S1048     1.0  0.86314  0.94287  0.44085  1.0000
  Fe  Fe524     1.0  0.81830  0.95017  0.45153  1.0000
  S   S1049     1.0  0.80500  0.95132  0.46851  1.0000
  Fe  Fe525     1.0  0.82578  0.96084  0.42584  1.0000
  H   H6053     1.0  0.77952  0.96083  0.48252  1.0000
  S   S1050     1.0  0.83278  0.93397  0.45094  1.0000
  S   S1051     1.0  0.84101  0.94562  0.42303  1.0000
  H   H6054     1.0  0.53319  0.92943  0.32994  1.0000
  H   H6055     1.0  0.53737  0.88190  0.27322  1.0000
  H   H6056     1.0  0.55372  0.98990  0.24732  1.0000
  H   H6057     1.0  0.53583  0.94536  0.35815  1.0000
  H   H6058     1.0  0.52202  0.92663  0.36152  1.0000
  H   H6059     1.0  0.96294  0.83226  0.40859  1.0000
  C   C3528     1.0  0.94925  0.90114  0.46735  1.0000
  H   H6060     1.0  0.97745  0.78971  0.40279  1.0000
  C   C3529     1.0  0.81138  0.95262  0.47921  1.0000
  H   H6061     1.0  0.60813  0.95272  0.24641  1.0000
  H   H6062     1.0  0.78740  0.93613  0.48205  1.0000
  C   C3530     1.0  0.75817  0.98159  0.47170  1.0000
  C   C3531     1.0  0.82653  0.95815  0.48447  1.0000
  C   C3532     1.0  0.82170  0.95674  0.47590  1.0000
  H   H6063     1.0  0.73945  0.97214  0.43199  1.0000
  H   H6064     1.0  0.51898  0.95398  0.32242  1.0000
  H   H6065     1.0  0.83429  0.96168  0.48188  1.0000
  H   H6066     1.0  0.82582  0.95917  0.46675  1.0000
  C   C3533     1.0  0.52624  0.95491  0.32564  1.0000
  C   C3534     1.0  0.53333  0.96598  0.28873  1.0000
  H   H6067     1.0  0.77220  0.97709  0.41168  1.0000
  H   H6068     1.0  0.70075  0.91426  0.45195  1.0000
  H   H6069     1.0  0.60850  0.89242  0.25166  1.0000
  H   H6070     1.0  0.89021  0.96287  0.42472  1.0000
  H   H6071     1.0  0.55264  0.97018  0.26033  1.0000
  H   H6072     1.0  0.81693  0.95451  0.40731  1.0000
  H   H6073     1.0  0.73131  0.91762  0.42067  1.0000
  N   N253      1.0  0.73086  0.98876  0.40583  1.0000
  S   S1052     1.0  0.97293  0.85244  0.48106  1.0000
  H   H6074     1.0  0.50156  0.95399  0.29574  1.0000
  C   C3535     1.0  0.94325  0.91017  0.47343  1.0000
  C   C3536     1.0  0.78365  0.97693  0.46045  1.0000
  C   C3537     1.0  0.95525  0.96365  0.48744  1.0000
  C   C3538     1.0  0.53450  0.92989  0.33850  1.0000
  C   C3539     1.0  0.87196  0.95114  0.47129  1.0000
  C   C3540     1.0  0.86060  0.95548  0.46920  1.0000
  C   C3541     1.0  0.85763  0.95260  0.46017  1.0000
  C   C3542     1.0  0.86621  0.94576  0.45289  1.0000
  C   C3543     1.0  0.87762  0.94152  0.45490  1.0000
  C   C3544     1.0  0.88046  0.94409  0.46418  1.0000
  H   H6075     1.0  0.85401  0.96079  0.47481  1.0000
  H   H6076     1.0  0.84875  0.95576  0.45881  1.0000
  H   H6077     1.0  0.88428  0.93623  0.44927  1.0000
  H   H6078     1.0  0.88928  0.94077  0.46570  1.0000
  C   C3545     1.0  0.80096  0.91520  0.41385  1.0000
  C   C3546     1.0  0.81218  0.90793  0.41149  1.0000
  C   C3547     1.0  0.82098  0.90835  0.41663  1.0000
  C   C3548     1.0  0.81869  0.91630  0.42384  1.0000
  C   C3549     1.0  0.80744  0.92351  0.42628  1.0000
  C   C3550     1.0  0.79853  0.92284  0.42142  1.0000
  H   H6079     1.0  0.81406  0.90197  0.40570  1.0000
  H   H6080     1.0  0.82966  0.90274  0.41475  1.0000
  H   H6081     1.0  0.80559  0.92966  0.43184  1.0000
  H   H6082     1.0  0.78988  0.92848  0.42329  1.0000
  H   H6083     1.0  0.73295  0.98748  0.42969  1.0000
  H   H6084     1.0  0.86211  0.99034  0.40060  1.0000
  C   C3551     1.0  0.75847  0.97020  0.44510  1.0000
  C   C3552     1.0  0.76515  0.96108  0.43946  1.0000
  C   C3553     1.0  0.77047  0.96362  0.42753  1.0000
  C   C3554     1.0  0.76850  0.97519  0.42102  1.0000
  C   C3555     1.0  0.98937  0.82351  0.45967  1.0000
  H   H6085     1.0  0.75440  0.96823  0.45436  1.0000
  H   H6086     1.0  0.77603  0.95660  0.42334  1.0000
  H   H6087     1.0  0.53853  0.91139  0.26576  1.0000
  C   C3556     1.0  0.80597  0.94973  0.49111  1.0000
  H   H6088     1.0  0.50779  0.89824  0.25449  1.0000
  H   H6089     1.0  0.78730  0.98802  0.44269  1.0000
  S   S1053     1.0  0.58721  0.94392  0.25696  1.0000
  H   H6090     1.0  0.68978  0.99068  0.48311  1.0000
  C   C3557     1.0  0.69892  0.95053  0.42123  1.0000
  C   C3558     1.0  0.70175  0.95839  0.41057  1.0000
  C   C3559     1.0  0.71353  0.95885  0.40538  1.0000
  C   C3560     1.0  0.72249  0.95161  0.41094  1.0000
  C   C3561     1.0  0.71964  0.94366  0.42153  1.0000
  C   C3562     1.0  0.70789  0.94320  0.42671  1.0000
  H   H6091     1.0  0.69494  0.96395  0.40617  1.0000
  H   H6092     1.0  0.71569  0.96478  0.39703  1.0000
  H   H6093     1.0  0.72646  0.93765  0.42563  1.0000
  H   H6094     1.0  0.70571  0.93712  0.43494  1.0000
  H   H6095     1.0  0.76239  0.97214  0.47291  1.0000
  H   H6096     1.0  0.62352  0.98400  0.40376  1.0000
  H   H6097     1.0  0.79338  0.97382  0.45913  1.0000
  H   H6098     1.0  0.64037  0.96888  0.37355  1.0000
  S   S1054     1.0  0.97817  0.76109  0.47164  1.0000
  C   C3563     1.0  0.60496  0.96882  0.25219  1.0000
  S   S1055     1.0  0.64746  0.97460  0.39139  1.0000
  H   H6099     1.0  0.99190  0.79885  0.45012  1.0000
  C   C3564     1.0  0.59171  0.93720  0.34225  1.0000
  C   C3565     1.0  0.60279  0.93075  0.33769  1.0000
  C   C3566     1.0  0.60467  0.92646  0.32759  1.0000
  C   C3567     1.0  0.59546  0.92836  0.32202  1.0000
  C   C3568     1.0  0.58427  0.93473  0.32660  1.0000
  C   C3569     1.0  0.58243  0.93923  0.33667  1.0000
  H   H6100     1.0  0.60993  0.92896  0.34205  1.0000
  H   H6101     1.0  0.61331  0.92154  0.32412  1.0000
  H   H6102     1.0  0.57710  0.93619  0.32238  1.0000
  H   H6103     1.0  0.57378  0.94400  0.34031  1.0000
  C   C3570     1.0  0.61112  0.97913  0.38399  1.0000
  C   C3571     1.0  0.85949  0.98550  0.46524  1.0000
  H   H6104     1.0  0.92143  0.96624  0.47585  1.0000
  C   C3572     1.0  0.63329  0.97631  0.38895  1.0000
  C   C3573     1.0  0.62298  0.98122  0.39625  1.0000
  C   C3574     1.0  0.95705  0.90262  0.48626  1.0000
  H   H6105     1.0  0.50887  0.94597  0.24727  1.0000
  S   S1056     1.0  0.99436  0.83089  0.49047  1.0000
  H   H6106     1.0  0.79861  0.96643  0.41561  1.0000
  H   H6107     1.0  0.52720  0.91151  0.28395  1.0000
  C   C3575     1.0  0.51685  0.93542  0.28278  1.0000
  C   C3576     1.0  0.51388  0.93172  0.29498  1.0000
  C   C3577     1.0  0.52161  0.93134  0.30179  1.0000
  C   C3578     1.0  0.53254  0.93412  0.29633  1.0000
  C   C3579     1.0  0.53569  0.93736  0.28406  1.0000
  C   C3580     1.0  0.52780  0.93811  0.27729  1.0000
  H   H6108     1.0  0.51892  0.90129  0.29347  1.0000
  H   H6109     1.0  0.51914  0.92878  0.31127  1.0000
  H   H6110     1.0  0.54395  0.93984  0.27982  1.0000
  H   H6111     1.0  0.53010  0.94092  0.26783  1.0000
  H   H6112     1.0  0.78038  0.96874  0.46379  1.0000
  H   H6113     1.0  0.53247  0.89602  0.28404  1.0000
  C   C3581     1.0  0.61133  0.95254  0.30360  1.0000
  N   N254      1.0  0.94559  0.95518  0.47591  1.0000
  H   H6114     1.0  0.94158  0.80374  0.48227  1.0000
  H   H6115     1.0  0.61131  0.91303  0.25987  1.0000
  H   H6116     1.0  0.55408  0.93784  0.25751  1.0000
  C   C3582     1.0  0.54609  0.97218  0.36389  1.0000
  C   C3583     1.0  0.53798  0.96494  0.36827  1.0000
  C   C3584     1.0  0.52589  0.96985  0.36949  1.0000
  C   C3585     1.0  0.61195  0.98262  0.39377  1.0000
  C   C3586     1.0  0.95877  0.93798  0.46639  1.0000
  H   H6117     1.0  0.55541  0.96831  0.36279  1.0000
  H   H6118     1.0  0.54110  0.95551  0.37068  1.0000
  H   H6119     1.0  0.90983  0.99095  0.48641  1.0000
  C   C3587     1.0  0.97598  0.80847  0.43169  1.0000
  H   H6120     1.0  0.53136  0.95362  0.34148  1.0000
  H   H6121     1.0  0.51330  0.93821  0.33282  1.0000
  C   C3588     1.0  0.80020  0.94721  0.39324  1.0000
  C   C3589     1.0  0.98213  0.79579  0.40395  1.0000
  C   C3590     1.0  0.60965  0.95700  0.31483  1.0000
  N   N255      1.0  0.86162  0.98028  0.42451  1.0000
  C   C3591     1.0  0.64209  0.98248  0.46007  1.0000
  H   H6122     1.0  0.58100  0.97554  0.29263  1.0000
  C   C3592     1.0  0.55789  0.94574  0.25417  1.0000
  H   H6123     1.0  0.80913  0.90914  0.46251  1.0000
  H   H6124     1.0  0.51615  0.95682  0.34302  1.0000
  H   H6125     1.0  0.57308  0.87105  0.25591  1.0000
  C   C3593     1.0  0.85403  0.92848  0.48509  1.0000
  C   C3594     1.0  0.82324  0.95514  0.37288  1.0000
  H   H6126     1.0  0.72351  0.90355  0.40819  1.0000
  H   H6127     1.0  0.69707  0.89780  0.43232  1.0000
  H   H6128     1.0  0.80228  0.93044  0.46619  1.0000
  H   H6129     1.0  0.84146  0.98008  0.45170  1.0000
  C   C3595     1.0  0.71541  0.91052  0.47540  1.0000
  C   C3596     1.0  0.72116  0.90691  0.46483  1.0000
  C   C3597     1.0  0.73191  0.90974  0.45862  1.0000
  C   C3598     1.0  0.73718  0.91573  0.46325  1.0000
  C   C3599     1.0  0.73158  0.91904  0.47400  1.0000
  H   H6130     1.0  0.54602  0.98073  0.30939  1.0000
  H   H6131     1.0  0.71718  0.90210  0.46137  1.0000
  H   H6132     1.0  0.74557  0.91782  0.45854  1.0000
  Fe  Fe526     1.0  0.89151  0.94229  0.48853  1.0000
  C   C3600     1.0  0.65094  0.97449  0.48068  1.0000
  C   C3601     1.0  0.65696  0.96991  0.47066  1.0000
  C   C3602     1.0  0.65254  0.97388  0.46039  1.0000
  C   C3603     1.0  0.54090  0.98946  0.30583  1.0000
  C   C3604     1.0  0.59679  0.97677  0.25854  1.0000
  H   H6133     1.0  0.57950  0.87240  0.27298  1.0000
  H   H6134     1.0  0.66505  0.96327  0.47083  1.0000
  H   H6135     1.0  0.65721  0.97025  0.45275  1.0000
  H   H6136     1.0  0.87043  0.96245  0.42252  1.0000
  H   H6137     1.0  0.57210  0.96602  0.30273  1.0000
  Fe  Fe527     1.0  0.59533  0.98272  0.33905  1.0000
  C   C3605     1.0  0.58064  0.96619  0.29631  1.0000
  N   N256      1.0  0.85765  0.91525  0.48805  1.0000
  H   H6138     1.0  0.74041  0.97112  0.41229  1.0000
  C   C3606     1.0  0.50462  0.90681  0.25716  1.0000
  H   H6139     1.0  0.83276  0.95371  0.37253  1.0000
  H   H6140     1.0  0.85439  0.96769  0.43907  1.0000
  H   H6141     1.0  0.81921  0.98543  0.42964  1.0000
  N   N257      1.0  0.55216  0.96772  0.24356  1.0000
  C   C3607     1.0  0.99424  0.81449  0.45343  1.0000
  C   C3608     1.0  0.51008  0.92443  0.34769  1.0000
  H   H6142     1.0  0.53288  0.89615  0.24944  1.0000
  H   H6143     1.0  0.55639  0.98602  0.33300  1.0000
  H   H6144     1.0  0.62386  0.96728  0.28531  1.0000
  H   H6145     1.0  0.95793  0.80629  0.43381  1.0000
  H   H6146     1.0  0.52639  0.96438  0.32295  1.0000
  C   C3609     1.0  0.79948  0.96446  0.40696  1.0000
  C   C3610     1.0  0.57291  0.87958  0.25714  1.0000
  H   H6147     1.0  0.95982  0.81248  0.44454  1.0000
  C   C3611     1.0  0.54211  0.98440  0.36100  1.0000
  N   N258      1.0  0.71054  0.95504  0.46038  1.0000
  C   C3612     1.0  0.71132  0.94369  0.45717  1.0000
  C   C3613     1.0  0.72162  0.95925  0.45373  1.0000
  C   C3614     1.0  0.70005  0.96431  0.45708  1.0000
  C   C3615     1.0  0.70924  0.95283  0.47346  1.0000
  C   C3616     1.0  0.70040  0.93833  0.46237  1.0000
  C   C3617     1.0  0.73273  0.95283  0.45864  1.0000
  C   C3618     1.0  0.69901  0.96650  0.44424  1.0000
  H   H6148     1.0  0.62328  0.90220  0.25347  1.0000
  H   H6149     1.0  0.71331  0.94472  0.44747  1.0000
  H   H6150     1.0  0.71886  0.93684  0.45996  1.0000
  H   H6151     1.0  0.72045  0.96881  0.45312  1.0000
  H   H6152     1.0  0.72386  0.95836  0.44444  1.0000
  H   H6153     1.0  0.69167  0.96222  0.46289  1.0000
  H   H6154     1.0  0.70015  0.97292  0.45853  1.0000
  H   H6155     1.0  0.70100  0.94985  0.47825  1.0000
  H   H6156     1.0  0.71623  0.94534  0.47661  1.0000
  H   H6157     1.0  0.69899  0.93526  0.47205  1.0000
  H   H6158     1.0  0.69230  0.94437  0.45994  1.0000
  H   H6159     1.0  0.70195  0.93043  0.45880  1.0000
  H   H6160     1.0  0.73449  0.94316  0.45983  1.0000
  H   H6161     1.0  0.74045  0.95576  0.45231  1.0000
  H   H6162     1.0  0.73227  0.95500  0.46707  1.0000
  H   H6163     1.0  0.79988  0.91426  0.45191  1.0000
  H   H6164     1.0  0.69170  0.97424  0.44250  1.0000
  H   H6165     1.0  0.95130  0.76646  0.47345  1.0000
  Fe  Fe528     1.0  0.99126  0.84299  0.47344  1.0000
  H   H6166     1.0  0.99239  0.75452  0.48789  1.0000
  H   H6167     1.0  0.53471  0.95009  0.32109  1.0000
  Fe  Fe529     1.0  0.97411  0.75558  0.45743  1.0000
  H   H6168     1.0  0.69267  0.91985  0.44069  1.0000
  H   H6169     1.0  0.73783  0.97805  0.39282  1.0000
  C   C3619     1.0  0.73340  0.97928  0.42714  1.0000
  C   C3620     1.0  0.56902  0.90072  0.25074  1.0000
  Fe  Fe530     1.0  0.64951  0.98296  0.43072  1.0000
  H   H6170     1.0  0.85063  0.97171  0.42002  1.0000
  H   H6171     1.0  0.52722  0.92344  0.26182  1.0000
  H   H6172     1.0  0.81132  0.91484  0.47890  1.0000
  C   C3621     1.0  0.76129  0.98424  0.42648  1.0000
  C   C3622     1.0  0.82151  0.99174  0.42163  1.0000
  H   H6173     1.0  0.59148  0.92237  0.24791  1.0000
  H   H6174     1.0  0.75584  0.98340  0.39338  1.0000
  C   C3623     1.0  0.78267  0.97837  0.48051  1.0000
  H   H6175     1.0  0.79641  0.90391  0.47945  1.0000
  C   C3624     1.0  0.92776  0.96923  0.46777  1.0000
  C   C3625     1.0  0.86298  0.98988  0.47424  1.0000
  C   C3626     1.0  0.51469  0.91297  0.25526  1.0000
  C   C3627     1.0  0.85806  0.98263  0.40393  1.0000
  H   H6176     1.0  0.97439  0.83093  0.47192  1.0000
  H   H6177     1.0  0.54378  0.99048  0.29614  1.0000
  C   C3628     1.0  0.56702  0.98716  0.31537  1.0000
  H   H6178     1.0  0.96327  0.94550  0.47796  1.0000
  C   C3629     1.0  0.63595  0.98690  0.47017  1.0000
  C   C3630     1.0  0.70871  0.96357  0.47818  1.0000
  H   H6179     1.0  0.52669  0.96846  0.24533  1.0000
  H   H6180     1.0  0.96819  0.93382  0.46342  1.0000
  H   H6181     1.0  0.80895  0.97906  0.48086  1.0000
  H   H6182     1.0  0.99165  0.79623  0.47756  1.0000
  H   H6183     1.0  0.79238  0.97500  0.47896  1.0000
  H   H6184     1.0  0.54534  0.90852  0.24496  1.0000
  C   C3631     1.0  0.60408  0.97220  0.29103  1.0000
  C   C3632     1.0  0.53367  0.93662  0.36149  1.0000
  H   H6185     1.0  0.62088  0.97123  0.36931  1.0000
  H   H6186     1.0  0.62066  0.95197  0.29901  1.0000
  H   H6187     1.0  0.61743  0.95270  0.31877  1.0000
  H   H6188     1.0  0.76858  0.94906  0.47911  1.0000
  H   H6189     1.0  0.60195  0.95453  0.32160  1.0000
  C   C3633     1.0  0.61721  0.95265  0.27715  1.0000
  C   C3634     1.0  0.78108  0.93219  0.48023  1.0000
  H   H6190     1.0  0.73565  0.92373  0.47746  1.0000
  H   H6191     1.0  0.50993  0.91251  0.27687  1.0000
  H   H6192     1.0  0.55082  0.93384  0.32643  1.0000
  H   H6193     1.0  0.52889  0.94947  0.24186  1.0000
  C   C3635     1.0  0.61394  0.90403  0.25822  1.0000
  H   H6194     1.0  0.78034  0.98425  0.48675  1.0000
  H   H6195     1.0  0.97924  0.81500  0.43399  1.0000
  C   C3636     1.0  0.80893  0.95301  0.40581  1.0000
  S   S1057     1.0  0.82278  0.97506  0.40980  1.0000
  H   H6196     1.0  0.53953  0.95733  0.28842  1.0000
  C   C3637     1.0  0.88203  0.96858  0.42877  1.0000
  H   H6197     1.0  0.61837  0.96145  0.27185  1.0000
  C   C3638     1.0  0.93943  0.95992  0.46577  1.0000
  H   H6198     1.0  0.88429  0.97673  0.42894  1.0000
  H   H6199     1.0  0.86692  0.97859  0.46192  1.0000
  H   H6200     1.0  0.75054  0.98252  0.47926  1.0000
  C   C3639     1.0  0.49908  0.97288  0.29436  1.0000
  H   H6201     1.0  0.55282  0.97870  0.32438  1.0000
  H   H6202     1.0  0.58964  0.95008  0.30597  1.0000
  H   H6203     1.0  0.95473  0.94038  0.45869  1.0000
  N   N259      1.0  0.59944  0.94314  0.39155  1.0000
  C   C3640     1.0  0.60915  0.94896  0.38355  1.0000
  C   C3641     1.0  0.59084  0.95208  0.39816  1.0000
  C   C3642     1.0  0.59357  0.93984  0.38388  1.0000
  C   C3643     1.0  0.60494  0.93238  0.39959  1.0000
  C   C3644     1.0  0.61822  0.94197  0.37474  1.0000
  C   C3645     1.0  0.59555  0.95585  0.40674  1.0000
  C   C3646     1.0  0.58080  0.93837  0.38895  1.0000
  C   C3647     1.0  0.59652  0.92570  0.40943  1.0000
  H   H6204     1.0  0.60537  0.95757  0.37824  1.0000
  H   H6205     1.0  0.61433  0.95095  0.38868  1.0000
  H   H6206     1.0  0.58282  0.94899  0.40344  1.0000
  H   H6207     1.0  0.58752  0.96017  0.39187  1.0000
  H   H6208     1.0  0.59323  0.94665  0.37560  1.0000
  H   H6209     1.0  0.59882  0.93155  0.38106  1.0000
  H   H6210     1.0  0.61074  0.92577  0.39447  1.0000
  H   H6211     1.0  0.61108  0.93439  0.40366  1.0000
  H   H6212     1.0  0.61412  0.94026  0.36848  1.0000
  H   H6213     1.0  0.62471  0.94731  0.36938  1.0000
  H   H6214     1.0  0.62326  0.93361  0.37921  1.0000
  H   H6215     1.0  0.60291  0.96028  0.40223  1.0000
  H   H6216     1.0  0.58842  0.96238  0.41101  1.0000
  H   H6217     1.0  0.59823  0.94835  0.41382  1.0000
  H   H6218     1.0  0.57963  0.93218  0.39756  1.0000
  H   H6219     1.0  0.57822  0.93482  0.38279  1.0000
  H   H6220     1.0  0.57457  0.94698  0.38957  1.0000
  H   H6221     1.0  0.59437  0.91899  0.40627  1.0000
  H   H6222     1.0  0.58830  0.93145  0.41321  1.0000
  H   H6223     1.0  0.60084  0.92117  0.41692  1.0000
  C   C3648     1.0  0.92381  0.88907  0.48409  1.0000
  H   H6224     1.0  0.85065  0.98440  0.39957  1.0000
  H   H6225     1.0  0.93511  0.76324  0.46722  1.0000
  S   S1058     1.0  0.58163  0.89165  0.28064  1.0000
  H   H6226     1.0  0.73689  0.91491  0.40625  1.0000
  C   C3649     1.0  0.60514  0.95345  0.28574  1.0000
  C   C3650     1.0  0.53218  0.91468  0.25997  1.0000
  C   C3651     1.0  0.79321  0.91217  0.48278  1.0000
  C   C3652     1.0  0.59069  0.95930  0.30269  1.0000
  H   H6227     1.0  0.96335  0.81589  0.47418  1.0000
  N   N260      1.0  0.98151  0.80735  0.41915  1.0000
  C   C3653     1.0  0.57655  0.88034  0.26682  1.0000
  S   S1059     1.0  0.93129  0.92088  0.46870  1.0000
  C   C3654     1.0  0.52316  0.93572  0.35735  1.0000
  H   H6228     1.0  0.82140  0.96258  0.36539  1.0000
  H   H6229     1.0  0.57461  0.96220  0.26947  1.0000
  H   H6230     1.0  0.68731  0.99271  0.42461  1.0000
  H   H6231     1.0  0.98067  0.80395  0.39714  1.0000
  C   C3655     1.0  0.97743  0.79790  0.41657  1.0000
  H   H6232     1.0  0.96364  0.88583  0.46609  1.0000
  C   C3656     1.0  0.70343  0.92052  0.40464  1.0000
  C   C3657     1.0  0.96306  0.89359  0.48020  1.0000
  H   H6233     1.0  0.50041  0.95116  0.31528  1.0000
  H   H6234     1.0  0.92921  0.97772  0.46811  1.0000
  H   H6235     1.0  0.59676  0.90299  0.25748  1.0000
  C   C3658     1.0  0.54038  0.88772  0.26469  1.0000
  H   H6236     1.0  0.96002  0.75205  0.49066  1.0000
  C   C3659     1.0  0.53120  0.98418  0.33501  1.0000
  Fe  Fe531     1.0  0.65301  0.97804  0.40644  1.0000
  H   H6237     1.0  0.51530  0.98635  0.26045  1.0000
  H   H6238     1.0  0.61330  0.89791  0.26697  1.0000
  H   H6239     1.0  0.84618  0.99299  0.44295  1.0000
  C   C3660     1.0  0.72868  0.91657  0.41307  1.0000
  H   H6240     1.0  0.87586  0.91640  0.48438  1.0000
  H   H6241     1.0  0.54582  0.89300  0.26589  1.0000
  N   N261      1.0  0.71040  0.90793  0.42376  1.0000
  H   H6242     1.0  0.79073  0.96360  0.40680  1.0000
  H   H6243     1.0  0.50555  0.92933  0.29914  1.0000
  H   H6244     1.0  0.86838  0.99257  0.42925  1.0000
  H   H6245     1.0  0.72305  0.92494  0.40937  1.0000
  S   S1060     1.0  0.97301  0.77338  0.44531  1.0000
  C   C3661     1.0  0.60196  0.95873  0.25160  1.0000
  C   C3662     1.0  0.73843  0.98014  0.41386  1.0000
  C   C3663     1.0  0.51745  0.90491  0.27533  1.0000
  H   H6246     1.0  0.75226  0.98967  0.37940  1.0000
  C   C3664     1.0  0.69915  0.91217  0.44430  1.0000
  N   N262      1.0  0.94114  0.77372  0.48854  1.0000
  N   N263      1.0  0.81153  0.94917  0.39436  1.0000
  C   C3665     1.0  0.58581  0.97444  0.26465  1.0000
  C   C3666     1.0  0.54686  0.93245  0.33601  1.0000
  H   H6247     1.0  0.51892  0.95834  0.30001  1.0000
  H   H6248     1.0  0.94526  0.96405  0.45775  1.0000
  H   H6249     1.0  0.96823  0.82364  0.39774  1.0000
  H   H6250     1.0  0.72864  0.89844  0.42124  1.0000
  C   C3667     1.0  0.72283  0.90603  0.41647  1.0000
  C   C3668     1.0  0.52459  0.90331  0.28455  1.0000
  H   H6251     1.0  0.57947  0.98055  0.26956  1.0000
  H   H6252     1.0  0.87635  0.89440  0.48717  1.0000
  H   H6253     1.0  0.59872  0.95794  0.28012  1.0000
  H   H6254     1.0  0.61760  0.94742  0.27081  1.0000
  C   C3669     1.0  0.84322  0.99218  0.48774  1.0000
  H   H6255     1.0  0.54714  0.94006  0.33909  1.0000
  H   H6256     1.0  0.52105  0.98697  0.27756  1.0000
  H   H6257     1.0  0.93317  0.79022  0.47809  1.0000
  C   C3670     1.0  0.98898  0.78069  0.49072  1.0000
  C   C3671     1.0  0.79655  0.92639  0.46362  1.0000
  H   H6258     1.0  0.98598  0.81896  0.40231  1.0000
  H   H6259     1.0  0.81676  0.93076  0.40200  1.0000
  H   H6260     1.0  0.71326  0.89113  0.40951  1.0000
  H   H6261     1.0  0.53126  0.98031  0.32780  1.0000
  H   H6262     1.0  0.54599  0.95306  0.24269  1.0000
  N   N264      1.0  0.78751  0.92215  0.47413  1.0000
  H   H6263     1.0  0.93733  0.95269  0.46333  1.0000
  H   H6264     1.0  0.79225  0.93349  0.45711  1.0000
  C   C3672     1.0  0.95900  0.89272  0.47087  1.0000
  H   H6265     1.0  0.71479  0.91755  0.43395  1.0000
  H   H6266     1.0  0.70310  0.92659  0.41965  1.0000
  H   H6267     1.0  0.62460  0.94805  0.28156  1.0000
  H   H6268     1.0  0.55285  0.92466  0.34023  1.0000
  C   C3673     1.0  0.77928  0.91787  0.46992  1.0000
  H   H6269     1.0  0.50472  0.97804  0.26859  1.0000
  N   N265      1.0  0.60306  0.95956  0.29562  1.0000
  N   N266      1.0  0.52382  0.90673  0.26253  1.0000
  C   C3674     1.0  0.70210  0.91839  0.41809  1.0000
  H   H6270     1.0  0.71702  0.90225  0.43977  1.0000
  H   H6271     1.0  0.61816  0.97748  0.29499  1.0000
  C   C3675     1.0  0.82058  0.93769  0.39522  1.0000
  C   C3676     1.0  0.99464  0.80308  0.41819  1.0000
  C   C3677     1.0  0.57643  0.89128  0.26857  1.0000
  C   C3678     1.0  0.97918  0.81904  0.41069  1.0000
  H   H6272     1.0  0.96266  0.95484  0.46408  1.0000
  H   H6273     1.0  0.52046  0.95960  0.28487  1.0000
  C   C3679     1.0  0.70483  0.89286  0.41597  1.0000
  C   C3680     1.0  0.80856  0.98577  0.48527  1.0000
  C   C3681     1.0  0.97695  0.80626  0.46240  1.0000
  H   H6274     1.0  0.83066  0.93759  0.40766  1.0000
  C   C3682     1.0  0.96249  0.81240  0.43502  1.0000
  H   H6275     1.0  0.85254  0.91138  0.46234  1.0000
  H   H6276     1.0  0.80301  0.94697  0.37457  1.0000
  H   H6277     1.0  0.50253  0.92414  0.34440  1.0000
  C   C3683     1.0  0.51187  0.98152  0.30010  1.0000
  C   C3684     1.0  0.71097  0.90988  0.43533  1.0000
  H   H6278     1.0  0.70694  0.90858  0.48002  1.0000
  H   H6279     1.0  0.80194  0.97210  0.40014  1.0000
  H   H6280     1.0  0.60869  0.96663  0.31308  1.0000
  C   C3685     1.0  0.93307  0.76964  0.47290  1.0000
  C   C3686     1.0  0.76883  0.91401  0.47940  1.0000
  C   C3687     1.0  0.96707  0.82317  0.40725  1.0000
  H   H6281     1.0  0.71550  0.98534  0.39250  1.0000
  H   H6282     1.0  0.63567  0.98648  0.48816  1.0000
  H   H6283     1.0  0.69676  0.95898  0.44259  1.0000
  H   H6284     1.0  0.70716  0.92838  0.40005  1.0000
  H   H6285     1.0  0.70869  0.91306  0.40056  1.0000
  H   H6286     1.0  0.51191  0.97516  0.30873  1.0000
  H   H6287     1.0  0.84580  0.93173  0.48181  1.0000
  H   H6288     1.0  0.86702  0.98210  0.48039  1.0000
  C   C3688     1.0  0.71900  0.98562  0.40929  1.0000
  H   H6289     1.0  0.69792  0.89919  0.41164  1.0000
  C   C3689     1.0  0.70600  0.89685  0.42648  1.0000
  H   H6290     1.0  0.71179  0.88936  0.43136  1.0000
  C   C3690     1.0  0.74924  0.99003  0.38885  1.0000
  C   C3691     1.0  0.51301  0.93663  0.34235  1.0000
  H   H6291     1.0  0.60564  0.92543  0.24458  1.0000
  H   H6292     1.0  0.59883  0.97743  0.29776  1.0000
  S   S1061     1.0  0.89912  0.92360  0.48662  1.0000
  Fe  Fe532     1.0  0.98215  0.86473  0.48391  1.0000
  H   H6293     1.0  0.98084  0.78074  0.48823  1.0000
  H   H6294     1.0  0.52364  0.88928  0.26160  1.0000
  H   H6295     1.0  0.94776  0.97299  0.47274  1.0000
  H   H6296     1.0  0.62887  0.98266  0.35006  1.0000
  H   H6297     1.0  0.77568  0.92905  0.48901  1.0000
  H   H6298     1.0  0.52031  0.97141  0.26749  1.0000
  C   C3692     1.0  0.51280  0.98402  0.27925  1.0000
  H   H6299     1.0  0.69279  0.91797  0.42236  1.0000
  H   H6300     1.0  0.70195  0.88442  0.41930  1.0000
  H   H6301     1.0  0.51870  0.91430  0.24572  1.0000
  H   H6302     1.0  0.82320  0.93430  0.38708  1.0000
  C   C3693     1.0  0.86936  0.91205  0.49147  1.0000
  C   C3694     1.0  0.94706  0.91072  0.48305  1.0000
  C   C3695     1.0  0.52191  0.98206  0.36653  1.0000
  C   C3696     1.0  0.85945  0.91029  0.47739  1.0000
  C   C3697     1.0  0.62985  0.98774  0.34086  1.0000
  C   C3698     1.0  0.63243  0.97272  0.37922  1.0000
  N   N267      1.0  0.52415  0.93827  0.34427  1.0000
  C   C3699     1.0  0.97825  0.82395  0.46716  1.0000
  C   C3700     1.0  0.61657  0.97460  0.28778  1.0000
  H   H6303     1.0  0.61348  0.97058  0.24750  1.0000
  H   H6304     1.0  0.84172  0.91798  0.47344  1.0000
  H   H6305     1.0  0.56609  0.90864  0.24460  1.0000
  H   H6306     1.0  0.72006  0.97591  0.41193  1.0000
  H   H6307     1.0  0.96774  0.79952  0.41832  1.0000
  C   C3701     1.0  0.97199  0.81545  0.46839  1.0000
  H   H6308     1.0  0.52020  0.98458  0.29754  1.0000
  H   H6309     1.0  0.49939  0.90570  0.26634  1.0000
  H   H6310     1.0  0.80820  0.96604  0.38231  1.0000
  H   H6311     1.0  0.51339  0.89717  0.27786  1.0000
  C   C3702     1.0  0.80091  0.94124  0.38337  1.0000
  H   H6312     1.0  0.79208  0.93969  0.38430  1.0000
  C   C3703     1.0  0.85622  0.97653  0.43736  1.0000
  S   S1062     1.0  0.96918  0.79534  0.46476  1.0000
  H   H6313     1.0  0.92349  0.97102  0.46029  1.0000
  C   C3704     1.0  0.60577  0.90191  0.25173  1.0000
  C   C3705     1.0  0.78106  0.98244  0.44811  1.0000
  H   H6314     1.0  0.53138  0.98948  0.30844  1.0000
  C   C3706     1.0  0.84473  0.98454  0.44250  1.0000
  H   H6315     1.0  0.50522  0.94315  0.34590  1.0000
  H   H6316     1.0  0.51049  0.92197  0.25694  1.0000
  H   H6317     1.0  0.69531  0.90432  0.44784  1.0000
  H   H6318     1.0  0.58047  0.96210  0.28933  1.0000
  H   H6319     1.0  0.60404  0.98650  0.39944  1.0000
  H   H6320     1.0  0.82138  0.96275  0.38736  1.0000
  C   C3707     1.0  0.62140  0.97406  0.37678  1.0000
  H   H6321     1.0  0.80696  0.93243  0.38400  1.0000
  C   C3708     1.0  0.53964  0.91681  0.24732  1.0000
  H   H6322     1.0  0.79362  0.95566  0.39180  1.0000
  H   H6323     1.0  0.86447  0.97477  0.40122  1.0000
  H   H6324     1.0  0.93235  0.88548  0.47859  1.0000
  C   C3709     1.0  0.52992  0.89510  0.25914  1.0000
  H   H6325     1.0  0.60018  0.97619  0.28317  1.0000
  H   H6326     1.0  0.92032  0.89789  0.47894  1.0000
  H   H6327     1.0  0.69456  0.92272  0.40270  1.0000
  C   C3710     1.0  0.98807  0.80584  0.45486  1.0000
  H   H6328     1.0  0.80614  0.94600  0.41337  1.0000
  H   H6329     1.0  0.98020  0.82612  0.41426  1.0000
  H   H6330     1.0  0.87725  0.97344  0.41220  1.0000
  S   S1063     1.0  0.49784  0.98175  0.35263  1.0000
  H   H6331     1.0  0.97999  0.78934  0.42263  1.0000
  C   C3711     1.0  0.51333  0.97947  0.26847  1.0000
  H   H6332     1.0  0.94636  0.90068  0.45988  1.0000
  H   H6333     1.0  0.54649  0.88210  0.25868  1.0000
  H   H6334     1.0  0.82159  0.94742  0.37109  1.0000
  H   H6335     1.0  0.85312  0.92531  0.46397  1.0000
  H   H6336     1.0  0.76574  0.93967  0.47195  1.0000
  H   H6337     1.0  0.56598  0.94339  0.24754  1.0000
  H   H6338     1.0  0.51746  0.91719  0.34502  1.0000
  H   H6339     1.0  0.95929  0.82154  0.43041  1.0000
  C   C3712     1.0  0.54868  0.95610  0.24911  1.0000
  C   C3713     1.0  0.87265  0.97101  0.42155  1.0000
  H   H6340     1.0  0.57261  0.90998  0.26164  1.0000
  C   C3714     1.0  0.77293  0.94247  0.47358  1.0000
  H   H6341     1.0  0.53489  0.96904  0.29582  1.0000
  H   H6342     1.0  0.49851  0.91241  0.25147  1.0000
  H   H6343     1.0  0.85776  0.99270  0.45756  1.0000
  H   H6344     1.0  0.56008  0.94737  0.26174  1.0000
  H   H6345     1.0  0.94870  0.78609  0.47365  1.0000
  H   H6346     1.0  0.86845  0.91037  0.47175  1.0000
  H   H6347     1.0  0.83764  0.98607  0.43786  1.0000
  C   C3715     1.0  0.56160  0.98254  0.24704  1.0000
  H   H6348     1.0  0.83573  0.94547  0.39284  1.0000
  H   H6349     1.0  0.99158  0.79135  0.40234  1.0000
  S   S1064     1.0  0.63695  0.98837  0.44696  1.0000
  C   C3716     1.0  0.75653  0.98181  0.43858  1.0000
  H   H6350     1.0  0.71394  0.96968  0.47188  1.0000
  C   C3717     1.0  0.76603  0.98992  0.47099  1.0000
  S   S1065     1.0  0.66867  0.98108  0.42922  1.0000
  C   C3718     1.0  0.80356  0.91430  0.48632  1.0000
  C   C3719     1.0  0.80468  0.91698  0.45685  1.0000
  C   C3720     1.0  0.81577  0.95875  0.38447  1.0000
  H   H6351     1.0  0.78406  0.91012  0.46598  1.0000
  H   H6352     1.0  0.85170  0.98158  0.46908  1.0000
  H   H6353     1.0  0.79612  0.94172  0.40158  1.0000
  H   H6354     1.0  0.87214  0.99271  0.41395  1.0000
  C   C3721     1.0  0.64041  0.98297  0.48044  1.0000
  H   H6355     1.0  0.78236  0.97531  0.44348  1.0000
  H   H6356     1.0  0.86082  0.93197  0.47773  1.0000
  H   H6357     1.0  0.74711  0.98233  0.41205  1.0000
  H   H6358     1.0  0.93727  0.96890  0.48572  1.0000
  S   S1066     1.0  0.96067  0.74455  0.46395  1.0000
  H   H6359     1.0  0.63804  0.99103  0.33811  1.0000
  H   H6360     1.0  0.70284  0.98735  0.40401  1.0000
  C   C3722     1.0  0.72058  0.91666  0.47996  1.0000
  C   C3723     1.0  0.95790  0.94872  0.47123  1.0000
  C   C3724     1.0  0.55502  0.98703  0.32404  1.0000
  S   S1067     1.0  0.60482  0.99003  0.32090  1.0000
  C   C3725     1.0  0.73692  0.98726  0.39349  1.0000
  H   H6361     1.0  0.95905  0.77301  0.48902  1.0000
  H   H6362     1.0  0.77194  0.98768  0.44840  1.0000
  N   N268      1.0  0.77914  0.98492  0.46906  1.0000
  S   S1068     1.0  0.97589  0.88408  0.48428  1.0000
  H   H6363     1.0  0.86234  0.97570  0.44295  1.0000
  C   C3726     1.0  0.94274  0.76624  0.47992  1.0000
  H   H6364     1.0  0.91745  0.88363  0.48540  1.0000
  H   H6365     1.0  0.71346  0.98903  0.41716  1.0000
  C   C3727     1.0  0.94598  0.96552  0.48027  1.0000
  H   H6366     1.0  0.68126  0.93422  0.48908  1.0000
  H   H6367     1.0  0.75121  0.98883  0.44289  1.0000
  H   H6368     1.0  0.57310  0.97851  0.31748  1.0000
  H   H6369     1.0  0.71698  0.98527  0.47869  1.0000
  H   H6370     1.0  0.63090  0.98145  0.33533  1.0000
  H   H6371     1.0  0.84500  0.98686  0.41901  1.0000
  Fe  Fe533     1.0  0.66870  0.99165  0.41097  1.0000
  H   H6372     1.0  0.77790  0.94697  0.46522  1.0000
  H   H6373     1.0  0.76307  0.91168  0.47517  1.0000
  H   H6374     1.0  0.94253  0.91762  0.48778  1.0000
  H   H6375     1.0  0.93646  0.94080  0.48169  1.0000
  C   C3728     1.0  0.86489  0.99198  0.42194  1.0000
  C   C3729     1.0  0.71146  0.98980  0.39997  1.0000
  H   H6376     1.0  0.94336  0.75682  0.48419  1.0000
  C   C3730     1.0  0.85331  0.98029  0.41736  1.0000
  H   H6377     1.0  0.92430  0.76918  0.47873  1.0000
  H   H6378     1.0  0.53664  0.97950  0.25147  1.0000
  H   H6379     1.0  0.52226  0.98495  0.34080  1.0000
  C   C3731     1.0  0.50202  0.99245  0.30238  1.0000
  H   H6380     1.0  0.92978  0.95234  0.48888  1.0000
  H   H6381     1.0  0.79517  0.99148  0.46224  1.0000
  H   H6382     1.0  0.51258  0.98591  0.36765  1.0000
  C   C3732     1.0  0.53000  0.98932  0.36244  1.0000
  C   C3733     1.0  0.94130  0.78613  0.48154  1.0000
  H   H6383     1.0  0.50200  0.96220  0.28102  1.0000
  H   H6384     1.0  0.83806  0.99145  0.48187  1.0000
  C   C3734     1.0  0.54104  0.97724  0.24276  1.0000
  H   H6385     1.0  0.56653  0.98327  0.25310  1.0000
  C   C3735     1.0  0.93859  0.94721  0.48533  1.0000
  H   H6386     1.0  0.69949  0.96856  0.48052  1.0000
  H   H6387     1.0  0.96428  0.96254  0.48184  1.0000
  C   C3736     1.0  0.94245  0.79482  0.48810  1.0000
  H   H6388     1.0  0.95362  0.97168  0.49088  1.0000
  H   H6389     1.0  0.94305  0.87230  0.49007  1.0000
  H   H6390     1.0  0.95126  0.79257  0.49015  1.0000
  Fe  Fe534     1.0  0.49842  0.96877  0.36976  1.0000
  C   C3737     1.0  0.49786  0.96244  0.29030  1.0000
  H   H6391     1.0  0.76747  0.97062  0.49048  1.0000
  H   H6392     1.0  0.85126  0.97315  0.48976  1.0000
  H   H6393     1.0  0.50559  0.99207  0.27917  1.0000
  H   H6394     1.0  0.80104  0.92233  0.48992  1.0000
  H   H6395     1.0  0.78664  0.91006  0.49109  1.0000
  H   H6396     1.0  0.50630  0.94762  0.64168  1.0000
  H   H6397     1.0  0.67554  0.95854  0.50660  1.0000
  H   H6398     1.0  0.58207  0.91680  0.70842  1.0000
  H   H6399     1.0  0.57740  0.98998  0.66764  1.0000
  C   C3738     1.0  0.61221  0.93016  0.68994  1.0000
  C   C3739     1.0  0.55350  0.97883  0.73489  1.0000
  H   H6400     1.0  0.58669  0.94817  0.58936  1.0000
  S   S1069     1.0  0.65629  0.95257  0.54907  1.0000
  H   H6401     1.0  0.88391  0.89777  0.49604  1.0000
  C   C3740     1.0  0.69102  0.98264  0.51029  1.0000
  H   H6402     1.0  0.60475  0.94796  0.59715  1.0000
  S   S1070     1.0  0.55843  0.93804  0.66592  1.0000
  H   H6403     1.0  0.58734  0.97072  0.56596  1.0000
  H   H6404     1.0  0.67653  0.96064  0.53250  1.0000
  H   H6405     1.0  0.69941  0.96635  0.56965  1.0000
  C   C3741     1.0  0.96625  0.80475  0.50090  1.0000
  H   H6406     1.0  0.69462  0.93568  0.50619  1.0000
  H   H6407     1.0  0.57480  0.95571  0.57568  1.0000
  C   C3742     1.0  0.82366  0.95948  0.57254  1.0000
  S   S1071     1.0  0.71091  0.93109  0.54339  1.0000
  H   H6408     1.0  0.80639  0.90677  0.49334  1.0000
  C   C3743     1.0  0.96677  0.81594  0.50153  1.0000
  C   C3744     1.0  0.52971  0.89004  0.71633  1.0000
  C   C3745     1.0  0.65543  0.93375  0.52556  1.0000
  Fe  Fe535     1.0  0.56479  0.90944  0.68940  1.0000
  H   H6409     1.0  0.62865  0.95885  0.73990  1.0000
  S   S1072     1.0  0.56880  0.89296  0.70304  1.0000
  H   H6410     1.0  0.92007  0.88793  0.51854  1.0000
  C   C3746     1.0  0.56447  0.92246  0.62402  1.0000
  S   S1073     1.0  0.56473  0.91401  0.64722  1.0000
  C   C3747     1.0  0.87897  0.89150  0.52668  1.0000
  H   H6411     1.0  0.58408  0.94659  0.56549  1.0000
  S   S1074     1.0  0.83684  0.93292  0.53388  1.0000
  S   S1075     1.0  0.56239  0.98133  0.70342  1.0000
  S   S1076     1.0  0.55006  0.91336  0.68025  1.0000
  C   C3748     1.0  0.56504  0.94530  0.62402  1.0000
  C   C3749     1.0  0.62095  0.97732  0.73999  1.0000
  H   H6412     1.0  0.57584  0.96089  0.56030  1.0000
  H   H6413     1.0  0.90530  0.88160  0.50530  1.0000
  Fe  Fe536     1.0  0.83071  0.91706  0.53440  1.0000
  C   C3750     1.0  0.52655  0.93814  0.64858  1.0000
  S   S1077     1.0  0.84359  0.90022  0.53122  1.0000
  Fe  Fe537     1.0  0.55782  0.98519  0.62282  1.0000
  S   S1078     1.0  0.82476  0.94007  0.56488  1.0000
  S   S1079     1.0  0.81691  0.91845  0.55108  1.0000
  S   S1080     1.0  0.71406  0.94350  0.50928  1.0000
  C   C3751     1.0  0.82288  0.95521  0.56329  1.0000
  H   H6414     1.0  0.87797  0.95764  0.51902  1.0000
  C   C3752     1.0  0.85948  0.95019  0.52850  1.0000
  H   H6415     1.0  0.93019  0.75980  0.51308  1.0000
  H   H6416     1.0  0.85207  0.94544  0.55311  1.0000
  H   H6417     1.0  0.84199  0.96640  0.53643  1.0000
  H   H6418     1.0  0.82539  0.95341  0.58059  1.0000
  Fe  Fe538     1.0  0.97726  0.76261  0.54685  1.0000
  H   H6419     1.0  0.86786  0.97041  0.51361  1.0000
  C   C3753     1.0  0.56383  0.93134  0.61383  1.0000
  C   C3754     1.0  0.86711  0.89091  0.52962  1.0000
  C   C3755     1.0  0.85835  0.90117  0.52787  1.0000
  H   H6420     1.0  0.62279  0.96914  0.55953  1.0000
  H   H6421     1.0  0.86471  0.88251  0.53332  1.0000
  C   C3756     1.0  0.77036  0.91898  0.51906  1.0000
  C   C3757     1.0  0.78248  0.91822  0.51673  1.0000
  C   C3758     1.0  0.78726  0.92165  0.52418  1.0000
  H   H6422     1.0  0.61019  0.93163  0.58875  1.0000
  H   H6423     1.0  0.60761  0.94239  0.62381  1.0000
  C   C3759     1.0  0.69773  0.96456  0.56189  1.0000
  H   H6424     1.0  0.52449  0.98927  0.67420  1.0000
  H   H6425     1.0  0.79660  0.92103  0.52232  1.0000
  C   C3760     1.0  0.67961  0.95274  0.53852  1.0000
  C   C3761     1.0  0.78606  0.96470  0.52528  1.0000
  S   S1081     1.0  0.73151  0.96772  0.49395  1.0000
  H   H6426     1.0  0.99080  0.78072  0.53201  1.0000
  C   C3762     1.0  0.87101  0.96524  0.52171  1.0000
  C   C3763     1.0  0.56389  0.94281  0.61388  1.0000
  C   C3764     1.0  0.87338  0.91261  0.52003  1.0000
  H   H6427     1.0  0.86437  0.95469  0.50895  1.0000
  H   H6428     1.0  0.98323  0.82996  0.54969  1.0000
  H   H6429     1.0  0.95841  0.86360  0.50401  1.0000
  H   H6430     1.0  0.93723  0.89791  0.50853  1.0000
  C   C3765     1.0  0.69174  0.94779  0.53712  1.0000
  H   H6431     1.0  0.67604  0.98421  0.55398  1.0000
  S   S1082     1.0  0.82783  0.95615  0.50702  1.0000
  H   H6432     1.0  0.53193  0.93567  0.65531  1.0000
  C   C3766     1.0  0.52511  0.89349  0.70495  1.0000
  H   H6433     1.0  0.56680  0.93822  0.64194  1.0000
  C   C3767     1.0  0.94248  0.87464  0.49846  1.0000
  Fe  Fe539     1.0  0.57250  0.93196  0.67613  1.0000
  H   H6434     1.0  0.55347  0.96266  0.73071  1.0000
  H   H6435     1.0  0.77206  0.95361  0.54665  1.0000
  C   C3768     1.0  0.67157  0.94738  0.54769  1.0000
  H   H6436     1.0  0.75383  0.92291  0.53122  1.0000
  H   H6437     1.0  0.68043  0.95118  0.49445  1.0000
  C   C3769     1.0  0.69584  0.93754  0.54496  1.0000
  C   C3770     1.0  0.68785  0.93248  0.55438  1.0000
  C   C3771     1.0  0.67575  0.93733  0.55569  1.0000
  C   C3772     1.0  0.56528  0.92499  0.63427  1.0000
  C   C3773     1.0  0.73744  0.97308  0.50242  1.0000
  H   H6438     1.0  0.69101  0.92465  0.56056  1.0000
  H   H6439     1.0  0.66960  0.93318  0.56284  1.0000
  Fe  Fe540     1.0  0.98205  0.74412  0.53276  1.0000
  H   H6440     1.0  0.56405  0.91368  0.62404  1.0000
  H   H6441     1.0  0.78064  0.96391  0.49554  1.0000
  H   H6442     1.0  0.75011  0.95703  0.50696  1.0000
  C   C3774     1.0  0.81095  0.95091  0.49970  1.0000
  H   H6443     1.0  0.49696  0.96666  0.63396  1.0000
  H   H6444     1.0  0.60887  0.94315  0.56339  1.0000
  Fe  Fe541     1.0  0.90885  0.94196  0.50208  1.0000
  C   C3775     1.0  0.52283  0.95015  0.71978  1.0000
  H   H6445     1.0  0.59649  0.96139  0.55642  1.0000
  C   C3776     1.0  0.49777  0.92674  0.69618  1.0000
  C   C3777     1.0  0.51809  0.92732  0.68647  1.0000
  C   C3778     1.0  0.50845  0.92213  0.68911  1.0000
  S   S1083     1.0  0.71268  0.92206  0.49257  1.0000
  Fe  Fe542     1.0  0.82211  0.93519  0.54947  1.0000
  H   H6446     1.0  0.52624  0.92381  0.68091  1.0000
  H   H6447     1.0  0.50926  0.91454  0.68570  1.0000
  H   H6448     1.0  0.90554  0.86661  0.51257  1.0000
  C   C3779     1.0  0.83615  0.91282  0.49686  1.0000
  S   S1084     1.0  0.65702  0.96945  0.49321  1.0000
  C   C3780     1.0  0.57213  0.89582  0.71494  1.0000
  C   C3781     1.0  0.56498  0.90511  0.72009  1.0000
  C   C3782     1.0  0.51001  0.97295  0.70576  1.0000
  H   H6449     1.0  0.67867  0.92974  0.53418  1.0000
  N   N269      1.0  0.54635  0.99049  0.73768  1.0000
  H   H6450     1.0  0.55736  0.91045  0.71682  1.0000
  Fe  Fe543     1.0  0.72144  0.93273  0.52479  1.0000
  Fe  Fe544     1.0  0.56309  0.91938  0.66395  1.0000
  H   H6451     1.0  0.95891  0.81292  0.53121  1.0000
  C   C3783     1.0  0.86153  0.91200  0.52302  1.0000
  H   H6452     1.0  0.50551  0.97780  0.72222  1.0000
  Fe  Fe545     1.0  0.65019  0.96801  0.53526  1.0000
  C   C3784     1.0  0.51706  0.93709  0.69095  1.0000
  H   H6453     1.0  0.66537  0.94582  0.52563  1.0000
  H   H6454     1.0  0.59885  0.96366  0.59578  1.0000
  H   H6455     1.0  0.85495  0.91986  0.52105  1.0000
  C   C3785     1.0  0.88210  0.90235  0.52181  1.0000
  C   C3786     1.0  0.74599  0.96574  0.50853  1.0000
  H   H6456     1.0  0.69010  0.96033  0.56507  1.0000
  H   H6457     1.0  0.60401  0.92227  0.72972  1.0000
  H   H6458     1.0  0.75560  0.96393  0.52164  1.0000
  C   C3787     1.0  0.58100  0.95565  0.56701  1.0000
  C   C3788     1.0  0.50631  0.94186  0.69773  1.0000
  S   S1085     1.0  0.73777  0.93970  0.51877  1.0000
  H   H6459     1.0  0.60866  0.93077  0.63655  1.0000
  H   H6460     1.0  0.58034  0.94649  0.64927  1.0000
  S   S1086     1.0  0.52904  0.94342  0.68844  1.0000
  H   H6461     1.0  0.49945  0.95172  0.67297  1.0000
  C   C3789     1.0  0.60491  0.94337  0.57282  1.0000
  S   S1087     1.0  0.97571  0.74384  0.55195  1.0000
  H   H6462     1.0  0.76362  0.97622  0.56076  1.0000
  C   C3790     1.0  0.59113  0.95566  0.58651  1.0000
  C   C3791     1.0  0.74926  0.96973  0.51667  1.0000
  C   C3792     1.0  0.49710  0.97473  0.57573  1.0000
  H   H6463     1.0  0.69969  0.92405  0.52423  1.0000
  H   H6464     1.0  0.57459  0.96054  0.65358  1.0000
  H   H6465     1.0  0.58388  0.96375  0.58645  1.0000
  Fe  Fe546     1.0  0.54666  0.93166  0.68292  1.0000
  C   C3793     1.0  0.56589  0.93634  0.63415  1.0000
  S   S1088     1.0  0.55675  0.98812  0.59039  1.0000
  H   H6466     1.0  0.65658  0.92833  0.53434  1.0000
  C   C3794     1.0  0.60334  0.94812  0.64061  1.0000
  H   H6467     1.0  0.61270  0.94741  0.64048  1.0000
  H   H6468     1.0  0.50352  0.97107  0.64281  1.0000
  H   H6469     1.0  0.60161  0.98443  0.62637  1.0000
  C   C3795     1.0  0.56856  0.97139  0.69413  1.0000
  Fe  Fe547     1.0  0.62790  0.98484  0.52929  1.0000
  S   S1089     1.0  0.56227  0.95391  0.60127  1.0000
  H   H6470     1.0  0.58456  0.99121  0.54982  1.0000
  H   H6471     1.0  0.96814  0.80251  0.49246  1.0000
  H   H6472     1.0  0.54285  0.90696  0.70800  1.0000
  S   S1090     1.0  0.58560  0.94275  0.67336  1.0000
  H   H6473     1.0  0.50614  0.97635  0.74067  1.0000
  H   H6474     1.0  0.66234  0.94711  0.51200  1.0000
  C   C3796     1.0  0.51106  0.98046  0.60259  1.0000
  C   C3797     1.0  0.59131  0.96134  0.56557  1.0000
  C   C3798     1.0  0.60775  0.96323  0.57200  1.0000
  H   H6475     1.0  0.66662  0.93989  0.49695  1.0000
  H   H6476     1.0  0.68710  0.92064  0.50497  1.0000
  N   N270      1.0  0.92991  0.87949  0.50404  1.0000
  C   C3799     1.0  0.58042  0.96996  0.68834  1.0000
  C   C3800     1.0  0.66529  0.94049  0.51954  1.0000
  H   H6477     1.0  0.88322  0.96726  0.53098  1.0000
  H   H6478     1.0  0.78624  0.98342  0.54104  1.0000
  C   C3801     1.0  0.81991  0.97943  0.56102  1.0000
  N   N271      1.0  0.86106  0.96099  0.53117  1.0000
  C   C3802     1.0  0.96093  0.79932  0.52212  1.0000
  H   H6479     1.0  0.70364  0.98043  0.49451  1.0000
  S   S1091     1.0  0.60809  0.98902  0.53571  1.0000
  H   H6480     1.0  0.92933  0.96258  0.51716  1.0000
  C   C3803     1.0  0.92505  0.96873  0.51045  1.0000
  C   C3804     1.0  0.77654  0.95750  0.55098  1.0000
  H   H6481     1.0  0.54506  0.94721  0.64756  1.0000
  C   C3805     1.0  0.71200  0.97337  0.53222  1.0000
  H   H6482     1.0  0.94698  0.88435  0.51404  1.0000
  C   C3806     1.0  0.77103  0.95408  0.56421  1.0000
  H   H6483     1.0  0.85204  0.97941  0.50132  1.0000
  C   C3807     1.0  0.53966  0.95627  0.64716  1.0000
  C   C3808     1.0  0.74392  0.98105  0.51866  1.0000
  H   H6484     1.0  0.50000  0.95537  0.71965  1.0000
  H   H6485     1.0  0.95341  0.93728  0.49419  1.0000
  H   H6486     1.0  0.73461  0.97493  0.55550  1.0000
  H   H6487     1.0  0.78580  0.95245  0.54962  1.0000
  H   H6488     1.0  0.61348  0.97233  0.63993  1.0000
  H   H6489     1.0  0.78715  0.95513  0.52906  1.0000
  H   H6490     1.0  0.63629  0.96871  0.72823  1.0000
  H   H6491     1.0  0.93085  0.89690  0.49349  1.0000
  C   C3809     1.0  0.60434  0.96594  0.62505  1.0000
  H   H6492     1.0  0.61291  0.95935  0.65178  1.0000
  H   H6493     1.0  0.94885  0.77306  0.50277  1.0000
  C   C3810     1.0  0.61704  0.96319  0.56031  1.0000
  H   H6494     1.0  0.77405  0.95792  0.56975  1.0000
  H   H6495     1.0  0.77354  0.94436  0.56713  1.0000
  H   H6496     1.0  0.76129  0.95656  0.56586  1.0000
  S   S1092     1.0  0.57822  0.91376  0.67284  1.0000
  H   H6497     1.0  0.56836  0.95695  0.64388  1.0000
  H   H6498     1.0  0.85213  0.98819  0.52712  1.0000
  C   C3811     1.0  0.76457  0.97781  0.55114  1.0000
  H   H6499     1.0  0.98733  0.80466  0.52703  1.0000
  H   H6500     1.0  0.92199  0.77894  0.49314  1.0000
  H   H6501     1.0  0.94575  0.86257  0.51542  1.0000
  C   C3812     1.0  0.77566  0.97218  0.53267  1.0000
  H   H6502     1.0  0.94832  0.85543  0.50355  1.0000
  C   C3813     1.0  0.85450  0.95339  0.55359  1.0000
  Fe  Fe548     1.0  0.82338  0.94258  0.52323  1.0000
  H   H6503     1.0  0.87219  0.94991  0.54298  1.0000
  H   H6504     1.0  0.58580  0.97499  0.68952  1.0000
  H   H6505     1.0  0.62286  0.95436  0.55995  1.0000
  H   H6506     1.0  0.86999  0.89421  0.50267  1.0000
  H   H6507     1.0  0.69037  0.95654  0.49879  1.0000
  C   C3814     1.0  0.68277  0.95230  0.50213  1.0000
  C   C3815     1.0  0.71744  0.97257  0.54253  1.0000
  H   H6508     1.0  0.79472  0.96898  0.54141  1.0000
  H   H6509     1.0  0.49840  0.98103  0.58005  1.0000
  C   C3816     1.0  0.56682  0.98906  0.64488  1.0000
  C   C3817     1.0  0.76783  0.92627  0.53650  1.0000
  C   C3818     1.0  0.59679  0.95509  0.59658  1.0000
  H   H6510     1.0  0.96905  0.82234  0.49357  1.0000
  C   C3819     1.0  0.69369  0.91808  0.52603  1.0000
  H   H6511     1.0  0.98118  0.84334  0.53904  1.0000
  H   H6512     1.0  0.98284  0.82663  0.53097  1.0000
  H   H6513     1.0  0.83946  0.98529  0.53851  1.0000
  S   S1093     1.0  0.81823  0.92658  0.52253  1.0000
  C   C3820     1.0  0.50556  0.96646  0.63559  1.0000
  C   C3821     1.0  0.53352  0.90989  0.71253  1.0000
  H   H6514     1.0  0.76216  0.92919  0.54426  1.0000
  Fe  Fe549     1.0  0.73121  0.94896  0.50244  1.0000
  C   C3822     1.0  0.91691  0.96556  0.50648  1.0000
  H   H6515     1.0  0.79802  0.94647  0.49373  1.0000
  H   H6516     1.0  0.82039  0.95982  0.54558  1.0000
  H   H6517     1.0  0.78430  0.96617  0.51643  1.0000
  H   H6518     1.0  0.53844  0.95608  0.71978  1.0000
  S   S1094     1.0  0.63737  0.96692  0.52574  1.0000
  H   H6519     1.0  0.87178  0.98037  0.52815  1.0000
  H   H6520     1.0  0.51981  0.93275  0.65231  1.0000
  C   C3823     1.0  0.76308  0.92287  0.52905  1.0000
  S   S1095     1.0  0.95865  0.76983  0.54464  1.0000
  H   H6521     1.0  0.51433  0.89595  0.73553  1.0000
  H   H6522     1.0  0.74187  0.96243  0.54910  1.0000
  H   H6523     1.0  0.52019  0.95032  0.66472  1.0000
  Fe  Fe550     1.0  0.72347  0.92798  0.50113  1.0000
  H   H6524     1.0  0.73550  0.95590  0.53756  1.0000
  H   H6525     1.0  0.68603  0.97801  0.50744  1.0000
  N   N272      1.0  0.59902  0.95572  0.57439  1.0000
  C   C3824     1.0  0.53471  0.95359  0.71374  1.0000
  C   C3825     1.0  0.61429  0.93639  0.58000  1.0000
  H   H6526     1.0  0.69473  0.91197  0.53457  1.0000
  C   C3826     1.0  0.94898  0.86342  0.50583  1.0000
  H   H6527     1.0  0.94917  0.75165  0.50441  1.0000
  H   H6528     1.0  0.52864  0.91292  0.70541  1.0000
  H   H6529     1.0  0.87575  0.92098  0.51614  1.0000
  H   H6530     1.0  0.50205  0.96594  0.57959  1.0000
  H   H6531     1.0  0.60585  0.97367  0.65452  1.0000
  H   H6532     1.0  0.56512  0.95414  0.62410  1.0000
  C   C3827     1.0  0.70831  0.95627  0.55571  1.0000
  H   H6533     1.0  0.60491  0.91161  0.68980  1.0000
  H   H6534     1.0  0.83033  0.91118  0.50574  1.0000
  H   H6535     1.0  0.74074  0.96103  0.56424  1.0000
  H   H6536     1.0  0.51623  0.89933  0.70571  1.0000
  C   C3828     1.0  0.51438  0.95402  0.65830  1.0000
  S   S1096     1.0  0.74005  0.93450  0.49284  1.0000
  H   H6537     1.0  0.93042  0.75491  0.50024  1.0000
  H   H6538     1.0  0.53383  0.95753  0.63154  1.0000
  H   H6539     1.0  0.54727  0.89276  0.72438  1.0000
  H   H6540     1.0  0.61814  0.93637  0.68705  1.0000
  H   H6541     1.0  0.85335  0.98021  0.54190  1.0000
  H   H6542     1.0  0.53131  0.89759  0.69736  1.0000
  C   C3829     1.0  0.53445  0.93355  0.63766  1.0000
  H   H6543     1.0  0.69791  0.95197  0.53007  1.0000
  H   H6544     1.0  0.59828  0.93791  0.57529  1.0000
  S   S1097     1.0  0.56035  0.92723  0.69352  1.0000
  H   H6545     1.0  0.61284  0.96066  0.57892  1.0000
  C   C3830     1.0  0.60345  0.93962  0.63320  1.0000
  H   H6546     1.0  0.59033  0.95341  0.60505  1.0000
  H   H6547     1.0  0.70307  0.97159  0.53532  1.0000
  H   H6548     1.0  0.72705  0.93567  0.55741  1.0000
  H   H6549     1.0  0.73913  0.93428  0.54517  1.0000
  H   H6550     1.0  0.60910  0.93005  0.68222  1.0000
  H   H6551     1.0  0.56297  0.92937  0.60600  1.0000
  C   C3831     1.0  0.60174  0.93432  0.69962  1.0000
  C   C3832     1.0  0.77992  0.92571  0.53407  1.0000
  C   C3833     1.0  0.73377  0.94023  0.55115  1.0000
  H   H6552     1.0  0.62075  0.92985  0.57518  1.0000
  C   C3834     1.0  0.60790  0.96811  0.64801  1.0000
  N   N273      1.0  0.71951  0.96065  0.55065  1.0000
  Fe  Fe551     1.0  0.74553  0.92461  0.50978  1.0000
  H   H6553     1.0  0.85698  0.94297  0.51514  1.0000
  S   S1098     1.0  0.76442  0.91511  0.50942  1.0000
  Fe  Fe552     1.0  0.95799  0.75089  0.54759  1.0000
  S   S1099     1.0  0.72971  0.91666  0.51722  1.0000
  H   H6554     1.0  0.60303  0.97251  0.57220  1.0000
  C   C3835     1.0  0.82073  0.96306  0.55285  1.0000
  C   C3836     1.0  0.72822  0.95201  0.54378  1.0000
  H   H6555     1.0  0.51362  0.98035  0.69951  1.0000
  H   H6556     1.0  0.73979  0.94136  0.55590  1.0000
  H   H6557     1.0  0.72392  0.94975  0.53803  1.0000
  H   H6558     1.0  0.95863  0.79298  0.53009  1.0000
  S   S1100     1.0  0.98524  0.76218  0.52791  1.0000
  C   C3837     1.0  0.72399  0.96169  0.56057  1.0000
  H   H6559     1.0  0.72443  0.95349  0.56756  1.0000
  H   H6560     1.0  0.71771  0.96744  0.52636  1.0000
  H   H6561     1.0  0.92988  0.87463  0.52273  1.0000
  H   H6562     1.0  0.61308  0.96656  0.55252  1.0000
  H   H6563     1.0  0.59938  0.94450  0.64990  1.0000
  H   H6564     1.0  0.56140  0.95115  0.68461  1.0000
  H   H6565     1.0  0.59450  0.93852  0.63398  1.0000
  C   C3838     1.0  0.84968  0.97014  0.53108  1.0000
  C   C3839     1.0  0.68067  0.92483  0.52711  1.0000
  H   H6566     1.0  0.94043  0.93212  0.49991  1.0000
  H   H6567     1.0  0.86668  0.96435  0.54523  1.0000
  N   N274      1.0  0.67741  0.93302  0.51603  1.0000
  H   H6568     1.0  0.56424  0.98039  0.66322  1.0000
  S   S1101     1.0  0.89092  0.93812  0.50784  1.0000
  S   S1102     1.0  0.89698  0.90287  0.51750  1.0000
  Fe  Fe553     1.0  0.90014  0.91990  0.50545  1.0000
  C   C3840     1.0  0.96104  0.81064  0.52274  1.0000
  C   C3841     1.0  0.92302  0.87027  0.50634  1.0000
  H   H6569     1.0  0.50107  0.91688  0.72817  1.0000
  H   H6570     1.0  0.62932  0.98160  0.71237  1.0000
  H   H6571     1.0  0.70978  0.94778  0.56218  1.0000
  H   H6572     1.0  0.95480  0.95625  0.49513  1.0000
  H   H6573     1.0  0.54564  0.96228  0.64220  1.0000
  C   C3842     1.0  0.60392  0.91545  0.71473  1.0000
  C   C3843     1.0  0.57875  0.95449  0.68037  1.0000
  H   H6574     1.0  0.70538  0.95429  0.54877  1.0000
  H   H6575     1.0  0.92429  0.86705  0.49825  1.0000
  C   C3844     1.0  0.58205  0.88895  0.71920  1.0000
  C   C3845     1.0  0.90968  0.87404  0.51131  1.0000
  Fe  Fe554     1.0  0.55930  0.97185  0.60459  1.0000
  C   C3846     1.0  0.82222  0.97158  0.57139  1.0000
  Fe  Fe555     1.0  0.80492  0.92956  0.53911  1.0000
  C   C3847     1.0  0.57682  0.95601  0.64622  1.0000
  C   C3848     1.0  0.85727  0.95166  0.51620  1.0000
  H   H6576     1.0  0.51437  0.97198  0.60022  1.0000
  H   H6577     1.0  0.51214  0.96366  0.65779  1.0000
  C   C3849     1.0  0.67791  0.92556  0.50777  1.0000
  H   H6578     1.0  0.54146  0.93839  0.63305  1.0000
  H   H6579     1.0  0.52465  0.88371  0.72270  1.0000
  H   H6580     1.0  0.99512  0.80492  0.51222  1.0000
  H   H6581     1.0  0.60393  0.96192  0.61804  1.0000
  H   H6582     1.0  0.59153  0.90724  0.69198  1.0000
  C   C3850     1.0  0.93780  0.88964  0.51532  1.0000
  C   C3851     1.0  0.56677  0.95626  0.68575  1.0000
  H   H6583     1.0  0.79075  0.96386  0.56272  1.0000
  C   C3852     1.0  0.78646  0.97419  0.54592  1.0000
  C   C3853     1.0  0.73290  0.98462  0.50379  1.0000
  Fe  Fe556     1.0  0.97688  0.84127  0.49824  1.0000
  H   H6584     1.0  0.50252  0.90451  0.72206  1.0000
  H   H6585     1.0  0.50536  0.94952  0.70104  1.0000
  H   H6586     1.0  0.56088  0.98017  0.72713  1.0000
  H   H6587     1.0  0.68843  0.94322  0.51785  1.0000
  H   H6588     1.0  0.71768  0.96850  0.56517  1.0000
  C   C3854     1.0  0.51637  0.95906  0.73687  1.0000
  C   C3855     1.0  0.84882  0.98155  0.53478  1.0000
  S   S1103     1.0  0.96277  0.78244  0.51022  1.0000
  C   C3856     1.0  0.96396  0.81896  0.51245  1.0000
  H   H6589     1.0  0.52069  0.97464  0.71665  1.0000
  H   H6590     1.0  0.55249  0.96594  0.69696  1.0000
  S   S1104     1.0  0.91421  0.95138  0.51251  1.0000
  H   H6591     1.0  0.98641  0.74917  0.50951  1.0000
  C   C3857     1.0  0.96336  0.79641  0.51120  1.0000
  N   N275      1.0  0.59565  0.92515  0.70823  1.0000
  S   S1105     1.0  0.80917  0.94644  0.53875  1.0000
  C   C3858     1.0  0.86421  0.95726  0.54303  1.0000
  C   C3859     1.0  0.95596  0.75617  0.49836  1.0000
  S   S1106     1.0  0.54443  0.97896  0.61825  1.0000
  C   C3860     1.0  0.50303  0.94949  0.66417  1.0000
  H   H6592     1.0  0.61091  0.91038  0.70878  1.0000
  H   H6593     1.0  0.88377  0.97616  0.51657  1.0000
  C   C3861     1.0  0.56170  0.96464  0.69272  1.0000
  C   C3862     1.0  0.51253  0.95359  0.63846  1.0000
  H   H6594     1.0  0.85190  0.94699  0.53486  1.0000
  H   H6595     1.0  0.59959  0.90161  0.70319  1.0000
  H   H6596     1.0  0.57131  0.93701  0.70834  1.0000
  C   C3863     1.0  0.58965  0.92005  0.70214  1.0000
  H   H6597     1.0  0.98622  0.78516  0.49815  1.0000
  H   H6598     1.0  0.69504  0.97292  0.55576  1.0000
  C   C3864     1.0  0.57605  0.94049  0.71269  1.0000
  C   C3865     1.0  0.78812  0.97320  0.55827  1.0000
  H   H6599     1.0  0.72585  0.97545  0.53856  1.0000
  C   C3866     1.0  0.58550  0.96156  0.68140  1.0000
  N   N276      1.0  0.59727  0.96076  0.63676  1.0000
  H   H6600     1.0  0.58582  0.92693  0.69520  1.0000
  H   H6601     1.0  0.70819  0.98666  0.50323  1.0000
  H   H6602     1.0  0.66399  0.98803  0.53942  1.0000
  H   H6603     1.0  0.59476  0.96027  0.67720  1.0000
  H   H6604     1.0  0.59091  0.97642  0.64392  1.0000
  C   C3867     1.0  0.53622  0.88418  0.73950  1.0000
  H   H6605     1.0  0.50116  0.97671  0.56622  1.0000
  H   H6606     1.0  0.59301  0.88666  0.73125  1.0000
  H   H6607     1.0  0.54360  0.97491  0.72422  1.0000
  H   H6608     1.0  0.90498  0.97121  0.49479  1.0000
  C   C3868     1.0  0.58629  0.93109  0.71725  1.0000
  H   H6609     1.0  0.52453  0.88540  0.70280  1.0000
  H   H6610     1.0  0.53751  0.91945  0.72355  1.0000
  H   H6611     1.0  0.59543  0.94103  0.69479  1.0000
  H   H6612     1.0  0.69665  0.91271  0.51928  1.0000
  H   H6613     1.0  0.60452  0.93953  0.70412  1.0000
  H   H6614     1.0  0.94088  0.94551  0.50307  1.0000
  N   N277      1.0  0.51338  0.95917  0.72561  1.0000
  C   C3869     1.0  0.84894  0.90993  0.49823  1.0000
  C   C3870     1.0  0.81917  0.97517  0.55175  1.0000
  H   H6615     1.0  0.53394  0.96079  0.70584  1.0000
  H   H6616     1.0  0.67534  0.91803  0.53065  1.0000
  H   H6617     1.0  0.61780  0.92150  0.69289  1.0000
  C   C3871     1.0  0.58511  0.96168  0.63535  1.0000
  Fe  Fe557     1.0  0.96659  0.76832  0.52593  1.0000
  C   C3872     1.0  0.73594  0.96526  0.55706  1.0000
  H   H6618     1.0  0.59137  0.96324  0.65467  1.0000
  H   H6619     1.0  0.49614  0.95371  0.65902  1.0000
  H   H6620     1.0  0.67308  0.91844  0.51228  1.0000
  S   S1107     1.0  0.96425  0.75005  0.52860  1.0000
  S   S1108     1.0  0.78551  0.93004  0.54364  1.0000
  C   C3873     1.0  0.59704  0.90959  0.69648  1.0000
  H   H6621     1.0  0.58548  0.95788  0.62789  1.0000
  C   C3874     1.0  0.52972  0.95853  0.64074  1.0000
  H   H6622     1.0  0.88569  0.88354  0.52811  1.0000
  C   C3875     1.0  0.50169  0.95604  0.72794  1.0000
  S   S1109     1.0  0.96422  0.83301  0.51342  1.0000
  H   H6623     1.0  0.53629  0.95803  0.65613  1.0000
  H   H6624     1.0  0.80672  0.94873  0.50888  1.0000
  N   N278      1.0  0.52942  0.89986  0.72186  1.0000
  C   C3876     1.0  0.68624  0.94065  0.51078  1.0000
  H   H6625     1.0  0.53892  0.92422  0.64051  1.0000
  C   C3877     1.0  0.95127  0.76954  0.49468  1.0000
  H   H6626     1.0  0.64689  0.94021  0.52705  1.0000
  C   C3878     1.0  0.92954  0.77408  0.49734  1.0000
  H   H6627     1.0  0.52541  0.96804  0.63989  1.0000
  H   H6628     1.0  0.76758  0.97010  0.53200  1.0000
  H   H6629     1.0  0.53892  0.88486  0.71401  1.0000
  C   C3879     1.0  0.54703  0.97094  0.73232  1.0000
  N   N279      1.0  0.77587  0.97042  0.54543  1.0000
  C   C3880     1.0  0.82126  0.95510  0.49637  1.0000
  H   H6630     1.0  0.65469  0.92828  0.52000  1.0000
  H   H6631     1.0  0.58053  0.97102  0.63304  1.0000
  H   H6632     1.0  0.51424  0.96522  0.70174  1.0000
  H   H6633     1.0  0.50464  0.93980  0.66563  1.0000
  H   H6634     1.0  0.84653  0.96059  0.55466  1.0000
  H   H6635     1.0  0.50037  0.97488  0.70640  1.0000
  H   H6636     1.0  0.85779  0.95107  0.56178  1.0000
  C   C3881     1.0  0.53242  0.92102  0.71682  1.0000
  S   S1110     1.0  0.98468  0.85413  0.50173  1.0000
  H   H6637     1.0  0.52929  0.93369  0.63140  1.0000
  H   H6638     1.0  0.75691  0.97527  0.55006  1.0000
  H   H6639     1.0  0.61961  0.94182  0.58112  1.0000
  C   C3882     1.0  0.59623  0.96734  0.64597  1.0000
  C   C3883     1.0  0.49890  0.98487  0.60583  1.0000
  C   C3884     1.0  0.49675  0.93663  0.70045  1.0000
  S   S1111     1.0  0.66162  0.97633  0.51907  1.0000
  H   H6640     1.0  0.79728  0.97873  0.50132  1.0000
  C   C3885     1.0  0.92899  0.88259  0.51551  1.0000
  H   H6641     1.0  0.61384  0.96387  0.62516  1.0000
  H   H6642     1.0  0.71181  0.97942  0.54744  1.0000
  S   S1112     1.0  0.63996  0.98508  0.54011  1.0000
  H   H6643     1.0  0.93568  0.89212  0.52395  1.0000
  H   H6644     1.0  0.79444  0.96736  0.52384  1.0000
  N   N280      1.0  0.52078  0.95108  0.64651  1.0000
  C   C3886     1.0  0.87764  0.97271  0.52470  1.0000
  H   H6645     1.0  0.50709  0.93676  0.73404  1.0000
  H   H6646     1.0  0.51985  0.94771  0.71311  1.0000
  S   S1113     1.0  0.98636  0.76923  0.55660  1.0000
  C   C3887     1.0  0.51897  0.98698  0.60238  1.0000
  H   H6647     1.0  0.99382  0.83470  0.52302  1.0000
  S   S1114     1.0  0.91816  0.92320  0.50154  1.0000
  H   H6648     1.0  0.60615  0.98201  0.61180  1.0000
  H   H6649     1.0  0.77539  0.98145  0.52794  1.0000
  H   H6650     1.0  0.66999  0.92597  0.49364  1.0000
  H   H6651     1.0  0.79534  0.97744  0.55746  1.0000
  H   H6652     1.0  0.82285  0.97484  0.57856  1.0000
  H   H6653     1.0  0.93450  0.98190  0.50850  1.0000
  H   H6654     1.0  0.78819  0.91499  0.50919  1.0000
  H   H6655     1.0  0.84864  0.95758  0.51516  1.0000
  H   H6656     1.0  0.84783  0.97301  0.52215  1.0000
  H   H6657     1.0  0.51749  0.95157  0.62977  1.0000
  H   H6658     1.0  0.93558  0.79548  0.49626  1.0000
  H   H6659     1.0  0.84535  0.93181  0.50290  1.0000
  Fe  Fe558     1.0  0.64813  0.97655  0.50967  1.0000
  S   S1115     1.0  0.57294  0.97643  0.61038  1.0000
  H   H6660     1.0  0.51053  0.97158  0.62763  1.0000
  H   H6661     1.0  0.86732  0.94279  0.52945  1.0000
  H   H6662     1.0  0.90783  0.87619  0.52004  1.0000
  H   H6663     1.0  0.58758  0.88170  0.71526  1.0000
  C   C3888     1.0  0.73602  0.98850  0.51201  1.0000
  C   C3889     1.0  0.92795  0.97968  0.50559  1.0000
  H   H6664     1.0  0.81734  0.98116  0.54373  1.0000
  C   C3890     1.0  0.70040  0.98723  0.49987  1.0000
  H   H6665     1.0  0.92886  0.77935  0.50376  1.0000
  C   C3891     1.0  0.51743  0.90370  0.72940  1.0000
  H   H6666     1.0  0.68489  0.98957  0.51470  1.0000
  H   H6667     1.0  0.53594  0.92758  0.70926  1.0000
  H   H6668     1.0  0.57909  0.94827  0.70672  1.0000
  H   H6669     1.0  0.51031  0.91597  0.71432  1.0000
  H   H6670     1.0  0.71111  0.98246  0.52679  1.0000
  C   C3892     1.0  0.58995  0.99282  0.55467  1.0000
  H   H6671     1.0  0.78973  0.98851  0.59984  1.0000
  C   C3893     1.0  0.60051  0.97938  0.62060  1.0000
  S   S1116     1.0  0.55699  0.98265  0.64205  1.0000
  H   H6672     1.0  0.84886  0.91204  0.50657  1.0000
  C   C3894     1.0  0.99341  0.74325  0.50485  1.0000
  C   C3895     1.0  0.76282  0.99128  0.54679  1.0000
  C   C3896     1.0  0.60189  0.99258  0.54963  1.0000
  H   H6673     1.0  0.53513  0.98648  0.68274  1.0000
  C   C3897     1.0  0.57798  0.90111  0.73334  1.0000
  H   H6674     1.0  0.72679  0.99052  0.49871  1.0000
  H   H6675     1.0  0.85166  0.90017  0.50008  1.0000
  H   H6676     1.0  0.99521  0.83762  0.54264  1.0000
  H   H6677     1.0  0.52309  0.92505  0.72020  1.0000
  C   C3898     1.0  0.91134  0.97359  0.49783  1.0000
  H   H6678     1.0  0.52834  0.98356  0.59979  1.0000
  H   H6679     1.0  0.96307  0.75461  0.50307  1.0000
  C   C3899     1.0  0.94374  0.94031  0.49615  1.0000
  C   C3900     1.0  0.67375  0.93192  0.49626  1.0000
  S   S1117     1.0  0.74644  0.98577  0.52989  1.0000
  H   H6680     1.0  0.78022  0.97776  0.56381  1.0000
  H   H6681     1.0  0.98617  0.81820  0.51596  1.0000
  C   C3901     1.0  0.84664  0.97974  0.49526  1.0000
  C   C3902     1.0  0.50738  0.91054  0.72302  1.0000
  C   C3903     1.0  0.51268  0.97134  0.71789  1.0000
  H   H6682     1.0  0.54117  0.94594  0.71062  1.0000
  H   H6683     1.0  0.92637  0.86233  0.51277  1.0000
  H   H6684     1.0  0.69540  0.97634  0.51717  1.0000
  H   H6685     1.0  0.99323  0.77139  0.49377  1.0000
  H   H6686     1.0  0.91643  0.89528  0.50013  1.0000
  C   C3904     1.0  0.59603  0.97828  0.73868  1.0000
  H   H6687     1.0  0.86859  0.91534  0.49930  1.0000
  C   C3905     1.0  0.92690  0.76223  0.50487  1.0000
  C   C3906     1.0  0.57600  0.99203  0.65882  1.0000
  H   H6688     1.0  0.52479  0.94178  0.72630  1.0000
  H   H6689     1.0  0.91722  0.76302  0.50734  1.0000
  H   H6690     1.0  0.94781  0.88138  0.49571  1.0000
  H   H6691     1.0  0.84880  0.94429  0.49201  1.0000
  C   C3907     1.0  0.56859  0.98656  0.65629  1.0000
  C   C3908     1.0  0.92515  0.89056  0.49581  1.0000
  H   H6692     1.0  0.58227  0.92448  0.72440  1.0000
  C   C3909     1.0  0.99220  0.80997  0.51922  1.0000
  H   H6693     1.0  0.62256  0.96612  0.72761  1.0000
  C   C3910     1.0  0.62501  0.99101  0.71162  1.0000
  H   H6694     1.0  0.79087  0.99039  0.58450  1.0000
  N   N281      1.0  0.61361  0.98808  0.73358  1.0000
  H   H6695     1.0  0.86038  0.93388  0.49774  1.0000
  H   H6696     1.0  0.54003  0.96831  0.73985  1.0000
  H   H6697     1.0  0.83283  0.92220  0.49307  1.0000
  C   C3911     1.0  0.98770  0.83504  0.54138  1.0000
  H   H6698     1.0  0.96016  0.90334  0.49348  1.0000
  H   H6699     1.0  0.59133  0.98217  0.61946  1.0000
  C   C3912     1.0  0.67590  0.99208  0.54708  1.0000
  H   H6700     1.0  0.64419  0.99009  0.56321  1.0000
  H   H6701     1.0  0.59908  0.90884  0.72091  1.0000
  C   C3913     1.0  0.62747  0.96734  0.73338  1.0000
  C   C3914     1.0  0.92244  0.98777  0.49698  1.0000
  C   C3915     1.0  0.80199  0.98561  0.49681  1.0000
  C   C3916     1.0  0.56774  0.90756  0.72945  1.0000
  H   H6702     1.0  0.53828  0.90187  0.73423  1.0000
  H   H6703     1.0  0.83846  0.97696  0.50070  1.0000
  C   C3917     1.0  0.85210  0.93473  0.49515  1.0000
  C   C3918     1.0  0.87508  0.89880  0.49443  1.0000
  C   C3919     1.0  0.53817  0.89514  0.72970  1.0000
  H   H6704     1.0  0.61511  0.92607  0.71652  1.0000
  C   C3920     1.0  0.58512  0.89174  0.72824  1.0000
  H   H6705     1.0  0.56952  0.94364  0.72026  1.0000
  H   H6706     1.0  0.59011  0.93559  0.72158  1.0000
  C   C3921     1.0  0.50027  0.94437  0.73675  1.0000
  C   C3922     1.0  0.91401  0.98478  0.49317  1.0000
  H   H6707     1.0  0.99170  0.80511  0.56209  1.0000
  C   C3923     1.0  0.60448  0.98523  0.72927  1.0000
  H   H6708     1.0  0.83505  0.90716  0.49169  1.0000
  H   H6709     1.0  0.53353  0.99213  0.72752  1.0000
  H   H6710     1.0  0.56212  0.91471  0.73333  1.0000
  C   C3924     1.0  0.61022  0.91926  0.72193  1.0000
  H   H6711     1.0  0.60848  0.98010  0.72232  1.0000
  C   C3925     1.0  0.99119  0.82840  0.53140  1.0000
  H   H6712     1.0  0.52473  0.96193  0.73497  1.0000
  H   H6713     1.0  0.51779  0.90901  0.73537  1.0000
  H   H6714     1.0  0.53663  0.87656  0.73597  1.0000
  H   H6715     1.0  0.61674  0.91150  0.72540  1.0000
  H   H6716     1.0  0.59012  0.97628  0.73438  1.0000
  H   H6717     1.0  0.98725  0.80835  0.54430  1.0000
  Fe  Fe559     1.0  0.52684  0.78636  0.91677  1.0000
  S   S1118     1.0  0.51955  0.77563  0.93397  1.0000
  S   S1119     1.0  0.51867  0.80565  0.91489  1.0000
  H   H6718     1.0  0.54518  0.87444  0.95554  1.0000
  H   H6719     1.0  0.49992  0.92347  0.89657  1.0000
  H   H6720     1.0  0.49641  0.81240  0.95266  1.0000
  H   H6721     1.0  0.51569  0.75371  0.94541  1.0000
  H   H6722     1.0  0.52396  0.91854  0.80268  1.0000
  H   H6723     1.0  0.50283  0.89977  0.83857  1.0000
  C   C3926     1.0  0.51914  0.90636  0.98353  1.0000
  S   S1120     1.0  0.52234  0.77645  0.90623  1.0000
  S   S1121     1.0  0.54541  0.77573  0.91622  1.0000
  S   S1122     1.0  0.53561  0.95066  0.85880  1.0000
  H   H6724     1.0  0.55234  0.82114  0.95031  1.0000
  S   S1123     1.0  0.52791  0.92822  0.85540  1.0000
  H   H6725     1.0  0.59894  0.94919  0.80208  1.0000
  Fe  Fe560     1.0  0.52996  0.93420  0.87042  1.0000
  S   S1124     1.0  0.54056  0.91981  0.88214  1.0000
  Fe  Fe561     1.0  0.53171  0.94531  0.84428  1.0000
  H   H6726     1.0  0.50500  0.96396  0.78854  1.0000
  H   H6727     1.0  0.53140  0.90289  0.87304  1.0000
  Fe  Fe562     1.0  0.53038  0.85170  0.93552  1.0000
  H   H6728     1.0  0.51981  0.91587  0.82377  1.0000
  S   S1125     1.0  0.54419  0.83812  0.92680  1.0000
  Fe  Fe563     1.0  0.52272  0.85773  0.95956  1.0000
  H   H6729     1.0  0.53374  0.89247  0.97878  1.0000
  S   S1126     1.0  0.53082  0.85227  0.97528  1.0000
  Fe  Fe564     1.0  0.53749  0.76390  0.93256  1.0000
  H   H6730     1.0  0.51097  0.90320  0.95436  1.0000
  H   H6731     1.0  0.52196  0.80046  0.94195  1.0000
  S   S1127     1.0  0.52020  0.84357  0.95273  1.0000
  S   S1128     1.0  0.53422  0.86498  0.94266  1.0000
  C   C3927     1.0  0.51411  0.92222  0.76005  1.0000
  C   C3928     1.0  0.55588  0.75697  0.96349  1.0000
  C   C3929     1.0  0.52839  0.88615  0.96139  1.0000
  Fe  Fe565     1.0  0.55081  0.91591  0.77846  1.0000
  S   S1129     1.0  0.56644  0.92365  0.76900  1.0000
  S   S1130     1.0  0.54817  0.90863  0.79791  1.0000
  H   H6732     1.0  0.51542  0.77714  0.96862  1.0000
  C   C3930     1.0  0.56357  0.95963  0.76475  1.0000
  H   H6733     1.0  0.57235  0.84521  0.95287  1.0000
  S   S1131     1.0  0.55217  0.75950  0.89064  1.0000
  S   S1132     1.0  0.57409  0.77989  0.96366  1.0000
  H   H6734     1.0  0.50077  0.95415  0.80787  1.0000
  C   C3931     1.0  0.59041  0.80465  0.96377  1.0000
  C   C3932     1.0  0.51200  0.83232  0.98649  1.0000
  H   H6735     1.0  0.49766  0.79295  0.93706  1.0000
  H   H6736     1.0  0.51805  0.81968  0.95573  1.0000
  H   H6737     1.0  0.55877  0.74863  0.87109  1.0000
  H   H6738     1.0  0.55319  0.97299  0.77432  1.0000
  H   H6739     1.0  0.51600  0.94788  0.80669  1.0000
  C   C3933     1.0  0.58310  0.96511  0.76818  1.0000
  C   C3934     1.0  0.50011  0.93187  0.77494  1.0000
  H   H6740     1.0  0.53744  0.97650  0.79455  1.0000
  Fe  Fe566     1.0  0.58746  0.98638  0.77589  1.0000
  H   H6741     1.0  0.56670  0.95794  0.79644  1.0000
  S   S1133     1.0  0.55222  0.90660  0.76440  1.0000
  S   S1134     1.0  0.54389  0.75432  0.94902  1.0000
  H   H6742     1.0  0.52296  0.87979  0.96690  1.0000
  H   H6743     1.0  0.51539  0.91249  0.88676  1.0000
  H   H6744     1.0  0.56250  0.81821  0.93687  1.0000
  C   C3935     1.0  0.54326  0.93720  0.81775  1.0000
  C   C3936     1.0  0.54176  0.92595  0.82388  1.0000
  C   C3937     1.0  0.54349  0.91714  0.81776  1.0000
  C   C3938     1.0  0.54644  0.91962  0.80546  1.0000
  C   C3939     1.0  0.54794  0.93086  0.79931  1.0000
  H   H6745     1.0  0.53595  0.97791  0.81983  1.0000
  H   H6746     1.0  0.53957  0.92391  0.83334  1.0000
  H   H6747     1.0  0.54253  0.90840  0.82258  1.0000
  C   C3940     1.0  0.50881  0.91260  0.76419  1.0000
  C   C3941     1.0  0.52442  0.81106  0.95698  1.0000
  H   H6748     1.0  0.52438  0.98610  0.80120  1.0000
  H   H6749     1.0  0.51570  0.91381  0.79563  1.0000
  C   C3942     1.0  0.52767  0.97881  0.79643  1.0000
  H   H6750     1.0  0.55779  0.97339  0.74215  1.0000
  C   C3943     1.0  0.58739  0.81611  0.95457  1.0000
  H   H6751     1.0  0.62788  0.97976  0.74253  1.0000
  C   C3944     1.0  0.54140  0.98135  0.83407  1.0000
  C   C3945     1.0  0.51513  0.91707  0.80352  1.0000
  Fe  Fe567     1.0  0.54033  0.76495  0.90695  1.0000
  C   C3946     1.0  0.53333  0.91349  0.89628  1.0000
  C   C3947     1.0  0.52341  0.92006  0.90264  1.0000
  H   H6752     1.0  0.51174  0.97596  0.78376  1.0000
  C   C3948     1.0  0.52181  0.90285  0.91867  1.0000
  C   C3949     1.0  0.53169  0.89625  0.91231  1.0000
  C   C3950     1.0  0.53753  0.90162  0.90122  1.0000
  H   H6753     1.0  0.52018  0.92925  0.89895  1.0000
  N   N282      1.0  0.51189  0.90824  0.81470  1.0000
  H   H6754     1.0  0.53484  0.88703  0.91593  1.0000
  H   H6755     1.0  0.54522  0.89650  0.89635  1.0000
  S   S1135     1.0  0.55409  0.79865  0.98423  1.0000
  C   C3951     1.0  0.55582  0.77156  0.94527  1.0000
  C   C3952     1.0  0.56274  0.77708  0.94849  1.0000
  C   C3953     1.0  0.56602  0.77265  0.95932  1.0000
  S   S1136     1.0  0.58235  0.90538  0.74385  1.0000
  N   N283      1.0  0.51827  0.80104  0.96030  1.0000
  H   H6756     1.0  0.55315  0.77511  0.93700  1.0000
  H   H6757     1.0  0.56538  0.78488  0.94269  1.0000
  H   H6758     1.0  0.52410  0.98627  0.82921  1.0000
  H   H6759     1.0  0.49845  0.79165  0.96720  1.0000
  C   C3954     1.0  0.52610  0.81436  0.91818  1.0000
  C   C3955     1.0  0.52001  0.82563  0.91985  1.0000
  C   C3956     1.0  0.52551  0.83277  0.92274  1.0000
  C   C3957     1.0  0.53729  0.82888  0.92356  1.0000
  C   C3958     1.0  0.54345  0.81760  0.92184  1.0000
  C   C3959     1.0  0.53781  0.81026  0.91931  1.0000
  H   H6760     1.0  0.51094  0.82882  0.91905  1.0000
  H   H6761     1.0  0.52065  0.84139  0.92410  1.0000
  H   H6762     1.0  0.55257  0.81453  0.92245  1.0000
  H   H6763     1.0  0.54257  0.80157  0.91801  1.0000
  H   H6764     1.0  0.54055  0.98813  0.87235  1.0000
  H   H6765     1.0  0.52867  0.78892  0.97238  1.0000
  Fe  Fe568     1.0  0.50927  0.93810  0.85955  1.0000
  C   C3960     1.0  0.49749  0.75594  0.94533  1.0000
  H   H6766     1.0  0.57621  0.94674  0.75573  1.0000
  H   H6767     1.0  0.55035  0.93284  0.78982  1.0000
  H   H6768     1.0  0.58761  0.79723  0.96258  1.0000
  S   S1137     1.0  0.55499  0.93207  0.74554  1.0000
  H   H6769     1.0  0.50778  0.90922  0.84416  1.0000
  H   H6770     1.0  0.59671  0.92566  0.78372  1.0000
  H   H6771     1.0  0.53054  0.88298  0.80537  1.0000
  H   H6772     1.0  0.54929  0.97410  0.83242  1.0000
  C   C3961     1.0  0.51253  0.96694  0.78933  1.0000
  H   H6773     1.0  0.50843  0.84195  0.98541  1.0000
  H   H6774     1.0  0.59357  0.95163  0.75875  1.0000
  H   H6775     1.0  0.53007  0.95990  0.80254  1.0000
  S   S1138     1.0  0.53741  0.93140  0.77180  1.0000
  S   S1139     1.0  0.51080  0.94285  0.87554  1.0000
  Fe  Fe569     1.0  0.56660  0.91592  0.75417  1.0000
  C   C3962     1.0  0.52163  0.89725  0.81452  1.0000
  H   H6776     1.0  0.49832  0.92859  0.80069  1.0000
  H   H6777     1.0  0.51226  0.90512  0.76008  1.0000
  H   H6778     1.0  0.52733  0.88692  0.95238  1.0000
  C   C3963     1.0  0.52460  0.89182  0.80367  1.0000
  H   H6779     1.0  0.56775  0.98577  0.84411  1.0000
  H   H6780     1.0  0.55639  0.80673  0.94732  1.0000
  Fe  Fe570     1.0  0.51629  0.95898  0.86294  1.0000
  H   H6781     1.0  0.52993  0.89892  0.81521  1.0000
  C   C3964     1.0  0.52109  0.75391  0.88890  1.0000
  H   H6782     1.0  0.53025  0.97405  0.87029  1.0000
  H   H6783     1.0  0.56884  0.98349  0.74438  1.0000
  S   S1140     1.0  0.50784  0.97801  0.86367  1.0000
  S   S1141     1.0  0.51287  0.95486  0.84755  1.0000
  Fe  Fe571     1.0  0.56605  0.78122  0.98239  1.0000
  H   H6784     1.0  0.53090  0.81098  0.94839  1.0000
  H   H6785     1.0  0.52951  0.89709  0.79580  1.0000
  H   H6786     1.0  0.50505  0.93339  0.80948  1.0000
  H   H6787     1.0  0.51667  0.89071  0.80171  1.0000
  C   C3965     1.0  0.51777  0.91480  0.91387  1.0000
  H   H6788     1.0  0.50384  0.98555  0.79910  1.0000
  H   H6789     1.0  0.51087  0.79326  0.95071  1.0000
  H   H6790     1.0  0.51832  0.89765  0.83808  1.0000
  H   H6791     1.0  0.50269  0.81117  0.93776  1.0000
  H   H6792     1.0  0.59031  0.98340  0.74527  1.0000
  N   N284      1.0  0.51168  0.96689  0.80198  1.0000
  C   C3966     1.0  0.58476  0.95624  0.76218  1.0000
  C   C3967     1.0  0.50809  0.80310  0.97058  1.0000
  N   N285      1.0  0.57453  0.82070  0.95423  1.0000
  C   C3968     1.0  0.53112  0.81142  0.96588  1.0000
  C   C3969     1.0  0.57362  0.83114  0.94402  1.0000
  C   C3970     1.0  0.57023  0.81097  0.95238  1.0000
  C   C3971     1.0  0.56806  0.82394  0.96585  1.0000
  H   H6793     1.0  0.50135  0.89530  0.98106  1.0000
  C   C3972     1.0  0.57747  0.84185  0.94489  1.0000
  H   H6794     1.0  0.50905  0.86873  0.98322  1.0000
  C   C3973     1.0  0.55493  0.82995  0.96716  1.0000
  H   H6795     1.0  0.52534  0.98208  0.78774  1.0000
  H   H6796     1.0  0.51830  0.83104  0.97810  1.0000
  H   H6797     1.0  0.56452  0.83454  0.94262  1.0000
  H   H6798     1.0  0.57890  0.82847  0.93567  1.0000
  S   S1142     1.0  0.53399  0.75225  0.92321  1.0000
  H   H6799     1.0  0.51130  0.80213  0.97855  1.0000
  H   H6800     1.0  0.56840  0.81597  0.97308  1.0000
  H   H6801     1.0  0.57248  0.82937  0.96845  1.0000
  H   H6802     1.0  0.55235  0.83480  0.97434  1.0000
  H   H6803     1.0  0.57015  0.97736  0.77770  1.0000
  H   H6804     1.0  0.60221  0.99097  0.75042  1.0000
  H   H6805     1.0  0.50379  0.88707  0.96993  1.0000
  H   H6806     1.0  0.54139  0.87390  0.97113  1.0000
  C   C3974     1.0  0.53212  0.99135  0.86991  1.0000
  H   H6807     1.0  0.57736  0.80546  0.94683  1.0000
  H   H6808     1.0  0.55332  0.74913  0.96921  1.0000
  H   H6809     1.0  0.52952  0.97094  0.83426  1.0000
  H   H6810     1.0  0.54945  0.82340  0.96955  1.0000
  H   H6811     1.0  0.55280  0.83668  0.95935  1.0000
  H   H6812     1.0  0.50964  0.90980  0.98367  1.0000
  H   H6813     1.0  0.58327  0.75586  0.91777  1.0000
  C   C3975     1.0  0.55681  0.99169  0.83128  1.0000
  C   C3976     1.0  0.53117  0.90647  0.95778  1.0000
  H   H6814     1.0  0.60082  0.96975  0.74314  1.0000
  C   C3977     1.0  0.56337  0.99229  0.74548  1.0000
  C   C3978     1.0  0.52445  0.89562  0.97780  1.0000
  H   H6815     1.0  0.50029  0.94471  0.74575  1.0000
  C   C3979     1.0  0.50224  0.97724  0.80542  1.0000
  C   C3980     1.0  0.50471  0.81190  0.94585  1.0000
  H   H6816     1.0  0.54410  0.98298  0.75632  1.0000
  H   H6817     1.0  0.55584  0.97856  0.84823  1.0000
  H   H6818     1.0  0.53971  0.90454  0.96037  1.0000
  H   H6819     1.0  0.52673  0.91545  0.95935  1.0000
  C   C3981     1.0  0.52304  0.96785  0.80383  1.0000
  C   C3982     1.0  0.52711  0.78977  0.96355  1.0000
  H   H6820     1.0  0.50249  0.97844  0.81408  1.0000
  C   C3983     1.0  0.51141  0.90274  0.96350  1.0000
  H   H6821     1.0  0.52947  0.97458  0.75667  1.0000
  H   H6822     1.0  0.53814  0.97964  0.84381  1.0000
  C   C3984     1.0  0.53880  0.98895  0.74998  1.0000
  H   H6823     1.0  0.52015  0.88837  0.98333  1.0000
  H   H6824     1.0  0.52572  0.91002  0.94099  1.0000
  H   H6825     1.0  0.53058  0.77071  0.96789  1.0000
  Fe  Fe572     1.0  0.51657  0.76474  0.92349  1.0000
  H   H6826     1.0  0.51237  0.74427  0.91172  1.0000
  C   C3985     1.0  0.57496  0.95345  0.76052  1.0000
  H   H6827     1.0  0.51018  0.96553  0.75301  1.0000
  H   H6828     1.0  0.51065  0.93507  0.79400  1.0000
  C   C3986     1.0  0.50744  0.95353  0.82261  1.0000
  H   H6829     1.0  0.52050  0.98872  0.75842  1.0000
  H   H6830     1.0  0.52291  0.95912  0.77449  1.0000
  H   H6831     1.0  0.54342  0.88150  0.74433  1.0000
  H   H6832     1.0  0.58703  0.83995  0.94451  1.0000
  C   C3987     1.0  0.55242  0.76149  0.95278  1.0000
  C   C3988     1.0  0.52514  0.85803  0.98800  1.0000
  C   C3989     1.0  0.56261  0.76258  0.96681  1.0000
  C   C3990     1.0  0.52379  0.95915  0.78333  1.0000
  C   C3991     1.0  0.57167  0.97088  0.77270  1.0000
  H   H6833     1.0  0.50452  0.92092  0.82606  1.0000
  H   H6834     1.0  0.60011  0.80194  0.96277  1.0000
  H   H6835     1.0  0.50827  0.91199  0.96462  1.0000
  C   C3992     1.0  0.52632  0.98338  0.86870  1.0000
  C   C3993     1.0  0.51539  0.98752  0.86560  1.0000
  C   C3994     1.0  0.50675  0.75503  0.95046  1.0000
  H   H6836     1.0  0.51162  0.75597  0.96583  1.0000
  C   C3995     1.0  0.50988  0.93176  0.76554  1.0000
  H   H6837     1.0  0.52219  0.96804  0.81315  1.0000
  C   C3996     1.0  0.50715  0.96687  0.74483  1.0000
  C   C3997     1.0  0.56197  0.96827  0.77089  1.0000
  H   H6838     1.0  0.56536  0.75900  0.97505  1.0000
  C   C3998     1.0  0.55833  0.98711  0.84409  1.0000
  Fe  Fe573     1.0  0.50456  0.85658  0.94723  1.0000
  C   C3999     1.0  0.49614  0.88973  0.91099  1.0000
  H   H6839     1.0  0.49828  0.78742  0.90199  1.0000
  C   C4000     1.0  0.50049  0.90516  0.81537  1.0000
  H   H6840     1.0  0.59091  0.82268  0.95651  1.0000
  C   C4001     1.0  0.54119  0.87980  0.96232  1.0000
  H   H6841     1.0  0.53910  0.80418  0.96612  1.0000
  H   H6842     1.0  0.59842  0.94640  0.78839  1.0000
  H   H6843     1.0  0.52554  0.81118  0.97483  1.0000
  S   S1143     1.0  0.52657  0.92201  0.74863  1.0000
  H   H6844     1.0  0.56800  0.96287  0.80840  1.0000
  H   H6845     1.0  0.59271  0.81446  0.94582  1.0000
  C   C4002     1.0  0.52466  0.89795  0.87866  1.0000
  S   S1144     1.0  0.51387  0.89637  0.93232  1.0000
  H   H6846     1.0  0.51011  0.91994  0.91874  1.0000
  H   H6847     1.0  0.54702  0.88584  0.96067  1.0000
  H   H6848     1.0  0.50033  0.89615  0.82085  1.0000
  H   H6849     1.0  0.57574  0.84910  0.93722  1.0000
  H   H6850     1.0  0.51607  0.95208  0.82475  1.0000
  H   H6851     1.0  0.58414  0.91889  0.78793  1.0000
  C   C4003     1.0  0.50890  0.95539  0.80931  1.0000
  H   H6852     1.0  0.52534  0.94989  0.78823  1.0000
  C   C4004     1.0  0.52777  0.98404  0.75232  1.0000
  S   S1145     1.0  0.54143  0.94836  0.82520  1.0000
  S   S1146     1.0  0.57470  0.98692  0.79322  1.0000
  H   H6853     1.0  0.52833  0.89240  0.88630  1.0000
  H   H6854     1.0  0.52365  0.89235  0.87339  1.0000
  H   H6855     1.0  0.58532  0.91844  0.82623  1.0000
  H   H6856     1.0  0.61031  0.93860  0.79489  1.0000
  S   S1147     1.0  0.55117  0.95724  0.76207  1.0000
  H   H6857     1.0  0.54830  0.94804  0.80061  1.0000
  Fe  Fe574     1.0  0.55312  0.93866  0.76152  1.0000
  Fe  Fe575     1.0  0.54061  0.92311  0.75656  1.0000
  H   H6858     1.0  0.52567  0.77705  0.95458  1.0000
  C   C4005     1.0  0.53216  0.97920  0.82895  1.0000
  H   H6859     1.0  0.50420  0.94537  0.82705  1.0000
  S   S1148     1.0  0.59511  0.96931  0.76989  1.0000
  H   H6860     1.0  0.51408  0.93912  0.76248  1.0000
  C   C4006     1.0  0.54661  0.93954  0.80545  1.0000
  C   C4007     1.0  0.50671  0.92919  0.80204  1.0000
  H   H6861     1.0  0.55859  0.99191  0.75477  1.0000
  H   H6862     1.0  0.58090  0.95903  0.79745  1.0000
  H   H6863     1.0  0.52098  0.75614  0.89716  1.0000
  H   H6864     1.0  0.52800  0.75786  0.88209  1.0000
  H   H6865     1.0  0.58575  0.93049  0.77528  1.0000
  N   N286      1.0  0.58169  0.93417  0.80393  1.0000
  C   C4008     1.0  0.57768  0.92296  0.81055  1.0000
  C   C4009     1.0  0.57995  0.93662  0.79158  1.0000
  C   C4010     1.0  0.57414  0.94397  0.81000  1.0000
  C   C4011     1.0  0.59441  0.93231  0.80422  1.0000
  C   C4012     1.0  0.57675  0.91979  0.82397  1.0000
  C   C4013     1.0  0.58713  0.92726  0.78440  1.0000
  C   C4014     1.0  0.57251  0.95661  0.80251  1.0000
  C   C4015     1.0  0.60068  0.94230  0.79703  1.0000
  H   H6866     1.0  0.56886  0.92334  0.80924  1.0000
  H   H6867     1.0  0.58369  0.91524  0.80715  1.0000
  H   H6868     1.0  0.58206  0.94505  0.78628  1.0000
  H   H6869     1.0  0.57050  0.93774  0.79172  1.0000
  H   H6870     1.0  0.56507  0.94260  0.81371  1.0000
  H   H6871     1.0  0.57744  0.94393  0.81768  1.0000
  H   H6872     1.0  0.59529  0.93103  0.81338  1.0000
  H   H6873     1.0  0.59983  0.92394  0.80170  1.0000
  H   H6874     1.0  0.57004  0.92641  0.82848  1.0000
  H   H6875     1.0  0.57385  0.91136  0.82768  1.0000
  C   C4016     1.0  0.53385  0.90759  0.94436  1.0000
  H   H6876     1.0  0.53956  0.89943  0.94170  1.0000
  H   H6877     1.0  0.53165  0.96264  0.78201  1.0000
  C   C4017     1.0  0.55972  0.81462  0.94643  1.0000
  H   H6878     1.0  0.56781  0.80483  0.96087  1.0000
  H   H6879     1.0  0.53869  0.91469  0.93989  1.0000
  C   C4018     1.0  0.51157  0.91294  0.82508  1.0000
  C   C4019     1.0  0.51001  0.90427  0.83710  1.0000
  S   S1149     1.0  0.50592  0.87011  0.95587  1.0000
  H   H6880     1.0  0.50872  0.90083  0.90561  1.0000
  C   C4020     1.0  0.58025  0.74780  0.91860  1.0000
  H   H6881     1.0  0.51947  0.89015  0.82227  1.0000
  C   C4021     1.0  0.51431  0.80109  0.94959  1.0000
  Fe  Fe576     1.0  0.51729  0.87658  0.93835  1.0000
  H   H6882     1.0  0.56889  0.74898  0.93561  1.0000
  S   S1150     1.0  0.51455  0.86406  0.92938  1.0000
  C   C4022     1.0  0.52431  0.77815  0.96365  1.0000
  N   N287      1.0  0.52386  0.89774  0.96514  1.0000
  H   H6883     1.0  0.49674  0.93938  0.77899  1.0000
  H   H6884     1.0  0.49983  0.90491  0.80648  1.0000
  C   C4023     1.0  0.55412  0.74482  0.89000  1.0000
  H   H6885     1.0  0.53583  0.78993  0.95732  1.0000
  H   H6886     1.0  0.53405  0.81980  0.96312  1.0000
  H   H6887     1.0  0.49676  0.88989  0.91990  1.0000
  H   H6888     1.0  0.51809  0.94996  0.74228  1.0000
  C   C4024     1.0  0.50450  0.75599  0.96213  1.0000
  H   H6889     1.0  0.49789  0.98278  0.83391  1.0000
  H   H6890     1.0  0.49889  0.75340  0.90211  1.0000
  H   H6891     1.0  0.50754  0.82029  0.94365  1.0000
  C   C4025     1.0  0.49934  0.91248  0.77397  1.0000
  H   H6892     1.0  0.58666  0.80589  0.97291  1.0000
  H   H6893     1.0  0.50295  0.81238  0.96913  1.0000
  H   H6894     1.0  0.51269  0.75812  0.88606  1.0000
  H   H6895     1.0  0.61572  0.97345  0.74862  1.0000
  H   H6896     1.0  0.57286  0.75065  0.91403  1.0000
  H   H6897     1.0  0.52393  0.91349  0.97918  1.0000
  C   C4026     1.0  0.51314  0.90686  0.88233  1.0000
  H   H6898     1.0  0.50495  0.82785  0.98757  1.0000
  H   H6899     1.0  0.49846  0.96453  0.74760  1.0000
  H   H6900     1.0  0.55204  0.99085  0.81165  1.0000
  H   H6901     1.0  0.51364  0.88780  0.90060  1.0000
  H   H6902     1.0  0.50100  0.96081  0.82631  1.0000
  C   C4027     1.0  0.49929  0.79508  0.97435  1.0000
  H   H6903     1.0  0.51876  0.77636  0.98892  1.0000
  H   H6904     1.0  0.56345  0.98566  0.82591  1.0000
  H   H6905     1.0  0.52437  0.98512  0.74450  1.0000
  H   H6906     1.0  0.50147  0.78760  0.98166  1.0000
  C   C4028     1.0  0.50211  0.89594  0.97161  1.0000
  H   H6907     1.0  0.50585  0.90100  0.86576  1.0000
  H   H6908     1.0  0.50765  0.88519  0.88449  1.0000
  H   H6909     1.0  0.51084  0.91289  0.87415  1.0000
  S   S1151     1.0  0.50016  0.75785  0.93002  1.0000
  C   C4029     1.0  0.50585  0.89522  0.90170  1.0000
  N   N288      1.0  0.50288  0.90174  0.89003  1.0000
  S   S1152     1.0  0.49638  0.92920  0.85742  1.0000
  H   H6910     1.0  0.49721  0.88046  0.91056  1.0000
  H   H6911     1.0  0.49641  0.89110  0.86911  1.0000
  C   C4030     1.0  0.49814  0.89813  0.87214  1.0000
  C   C4031     1.0  0.50038  0.89322  0.88465  1.0000
  C   C4032     1.0  0.51431  0.86606  0.98973  1.0000
  H   H6912     1.0  0.52787  0.88606  0.74605  1.0000
