data_image0
_chemical_formula_structural       FeSFeS2FeHFeS3FeCSFeS2FeH2S2FeCSHCH2CH7C3HC7H4C2HC4HFeHC6H2CSCHSCFeSH2CH2CNHSH3SHNCHSCHCH3C2HCHC2H5CNCH3SH3C3H2S2NH3CH2C2H5SHCFeH3CH2CH5CHCH3CH4CHC2H4C2H8NHCHCHC2H3C2H4C2H7CHNH7C2H3CHC3H3CHC2HCFeSHFeS2FeSFeS4HC2H2FeSHFeS2FeS2FeSFeHS2H2SHC3HSHCH2CH3FeH2CH2NH7C6H5C2H3C3HC2HCH2C6H4CHC2HCH2CHSH2CHNH2C2HNCHFeHC2H4C2H5SHC2H2SH3C3H2C4H2CH6CHCH2CH3CH2C2SHCH2CH2CHCNH2CH5CSH3CNCSC2H5CHSH2CNC8H22CHCS2HNHC2SH3C2HNH5C3HCSH2CH2CHC2HNH2CFeH2SHC2HC2H2CHSCH2CH4CH2CH2C2HC2H2CHSCHCSHCH3S2HC2SC2H3SH4CHCFeCFeH3C2H4CH2CH3C2H2CHCHCH2C2HNHCH2CH2CH2C2H2CHCHC2HCH4CFeCH5C2HSH2FeS2FeS2Fe2S2FeSHFeSHFeSFeS3FeS2H3C2H2SCHCHCH2CH2C3HCH3CH3C3HCH3CH4CH3SH3CSCHCH5CHC2HCNHCH2SHCHCSCHCH4CNHSH2C6H4C2H2CHCH2C2HFeH2CSC2H3C7H6CH4CHCHCH4C2HCHCH5CH8SH3CH3NH5CH2CSH3SHCH2CH6SHNCH3CHCHCHCH2CHCH2SHNH2CH3CH6CHSHC2NH2C3SH3CH2C2H2FeHCHCHCNC2HCH2CFeCH3CH2NCHSH2CSCHCH6C2FeHC2HCHSH3CH2CH5CSNH3C3H4FeHCH4CSH2FeS2H2FeSFeHSCHCSH2CH3CH6SCHSH2C2HC2HSCH2S2HCHC3FeCH2C4HFeHCH5CH4C3NCH2C7H4CH2C3HCH3FeC4H6NH2NCHSH3FeCH2CSCH2CHFeHSCHSH4CH2S2C2HCHCHC2H2SHC3H3FeHSFeH8Fe2S2FeHSHSCHCNCSH2FeSFeSH4CHCSCNH3C6NH3C2H2CH2CHCH2C6H4C2H2C2H5C5H4SCH9C3H3C2H10C2HCHCH4NHCNH5SHS2H2CHC2H7SFeHSH2CFeH3CHSCH2FeC2H3SHCH2CH3CH4CHC2HNH2C3HSCH2CH3CH2CHCFeH4SC2HC3HCH2CHCH4CSCFeHSH6CHCSC2H3CH4CHSHCH5CHCH2CHCH4CH2CHFeH2CH3CH3SH3CH5CHCNCH2NHCHC3HCHSCH5SHNH3FeSHFeSHFeSFeS3FeS2FeS2CFeS3CHC3HSHSH8FeHSC2SNH3NSHCSH2CH4FeHCH2C2SHCSC2H2CH5CH2CH2CH3C4H4CHC7H5CH3CH6C2H4C4HCH3CH2SH2C4FeC2H2CHC6H4C6H5CH2CH2NH3C2H3CHC2SH2CH2CSHSH5SFeHSNCH2FeH2CH3CHNCHSHCH5C3HCH3C3NHSHCHCHSHSHFeH3CHCH4C2HCHC3H3CHC2H4CH4CH2C4SH2CHC2H2C2HCH6CH2SC2SC2FeCH4NH2CSNCH4CH2CNCSH2CH7SHCH3FeH5NC2HC5H10CHCHCFeH3CH13SH3CHC2SH3CHSHFeS2FeS2FeHFeHS2HFeS2FeS2FeHFeSHSH2SHCH4SHFeH3SHCHCH5C3H6FeSCHCH2NSFeHSH2FeSCHFeH2CHCHCH3FeHSHCHSH3CHSH2CHCSH2C3HNH2S2H3C3SC3H2CSC2HCHC7H3CH3CHCFeH6C2H2C2NHC3NHC6H4SHC4HC2HCHC6H4C6H4C2H6C2HCHC3HSC2H6C4HCHCH3CH2CH2SH3NHCH3C3HCH3CSH8NHSH6C2SH2FeC2NSFeHCH2SHCSH4CH6CH2CH2CH2CHCH6CH3FeSHC2NCHC2H2CH2C2HC2HCH4FeH3CH4FeCH7C4H2NHCH3CH4CHCSCHCH5FeS2FeS2FeSFeS3C2HCFeS2FeS2FeSFeS3FeS2FeSHSCSCH3CH2C2H4CH7CH3FeH5CHC2H3CH3C6H4C6H10CHC2H2SC5H2C6H4C4HCH3C7H4CH2FeCH6SHC2HC2HSNHCH4NCH3CH3CH5CH2SH2CH2C3NCHCH7CH4CSCH2C2HCHSCHCH5C2HC2H9SH2C3H8CNH2SH2C3H5FeCSC2H6NH2SHCH2CH8CHC2HC4H2CHCH8C2HNC2NC8H14C2HCH3C2H3NHCH2NH6CH2C3H2SH4SFeHC2SC3FeS2FeS2FeSFeS4FeS2FeS2FeSFeS4CSCFeS2FeSFeS4FeS2FeCSCHFeS3H2SFeS2FeHFeSH2CHFeSHFeS2FeSFeS3HFeS3HFeH2SHCH2NC6H2SHC6H4C6H5NHCH2NH3C6H4C3FeNCH2CHC6H4C6H4C6H5CH3C3H2C6H2CHC6H4C6H4CHC2HC6H4CHC2HCH6CH3CH2NC8H20CSCSCHCH5CHC4HCH7FeH3CHCSC5S2H2FeCH4S2HSCH3CFeC3H3CH4SHC3H7CHNCH3CHCFeH2C2H2NFeHCHNHNC2SC3SH2CH2SH5CH3CNC2HC3FeCH4CH18CHCH3CSCH3SFeCFeH3SCH3SH2C2H10CHCHNH3CHSH5CH2C2HCH7CH4CH3CH4NC5HCH3CH7CNH7CH2C8H3CHCH8CHSCH3SCHCHCHSCSCHC2HC2H9SH2CH2C2H3SH2CH5CH5C2H2CSCNH2FeCHC2HCH2FeHC2H2SH5C3SCH2NCH3C2SCH5SHFeC3H6C2HS2H3NCH5FeHFeS2H2CHCSH2FeHC2H2CSHCHCSCFeCH2C3H4SH2SCSH2S2HSH2CFe3CH2C2HCH5CHCH4CH3CFeH4C2SHCH9FeHCH3CHCH3NH3CHC2HC4HCH2CH2CHCHFeH2CH2C3HCHFeH2SNC2FeHCH2CFeH2CH6SH2SHCH2CH2CHSHCHSC2FeSH2CH3C2H2CH4S2H3CH7CFeHCHFeHCNCH3CH7CH2CFeH3CH6CHCH3CNHCNHCHSH2C5H3NCH2CH2C2HCHCH6CH5C2HCH3C2HC2H2SH5CSFeS2FeS2FeSFeS3FeS2FeS2FeSFeS4FeS2FeS2FeSFeS3C2H2CSCFeC6H5C4H3C6H2C6H4CHCH2C6H4C6H4C6H4C6H6CHSHC3HSHC2H2SHCHCH4CHSH2NC8H20NCH2C3NCSH4SH2CH5FeCFeH3CFeSCH2SH2SH4CH3NHCH2CH9NH3CSHC2HC3H2NHSC3HC2H6CHCHSFeHCHSH4SC2H3CH5C2H3C2HCH2CHFeH2CH2CH2SH3C2H2CSH6NC8H20NC2H4CHCHCHCH2NC8H11C2H16CSHCHC2SH3CH10C2H2CH2CFeC3H4C2NH5CH2CH2CHCHC2H2CHC2FeH15CH2CHCHSH3CH8CH2CSC3FeSHFeS2FeSFeS4CFeS2FeS2FeSFeS3FeS2H3CSH2CSFeS2FeS2FeSFeS3HSHCSHCHFeSH2SH3SHC2SH2CH2C2H2CH2CH2C7H4C2HC6H8C2HSHCH2SH3S2C7H4C6H4C6H3CH3CH2CH3C6H7C2HNH3FeCH2C3HCNC8H5CH8FeCH5CH2C3H4CHC4H3NSH2FeCH3CNC6H25C4HC2H5NH2CH4CH6C2H7NH3SCH4CH2CH7CH2C2HCNHCHNC7H8CH5CHCH3CH4CNH2CH6CH2CNCH3CHC2HC3HNC8H21CHSCH2CH2SH2FeH3CH2CHCH2CFeHC2HCH4NCH3CHC2HCHCHC4H2FeHNC2HCH2CH2CH3CSH4CH2CHCH4CH2SCH5CH4FeS2FeS2FeSFeS3FeS2FeS2FeSFeS3FeS2FeS2FeSFeS3FeS2FeS2FeSFeS4H2CHCH2NHSCSHCSFe2S2FeS2FeSFeS5FeSH2CHFeS2FeSHFeHFeSHSFeSHFeSCSC5SH6CHC2FeC2H2CHCH4CHCH5C7H4C6H4CHC6H6CH3CNHCH3CH2CH3CH2C6H4C3H2CH3SC6H4C6H4C3H2CH4C2H3CH4CHCHC2H4C6H4CNH2C2HC6H2SHCSHC4H3C6H4C3HN2CH2C3HCH4SH4FeCH2FeSC2H2CH5C2H4FeH4CH2CHCSHCH2CHC5H2C3H4C2H3CNH2C2H2CHNH9SHCH2CHSCH9CH3NC4HC3HSH17CNC4HC3H5CH3CH3CH2CH3NHC3H5CH4CH4SH3CH2FeC2H4SH2SH3SHCSFeH2CHFeC2H7C2FeNC8H18CHCH2CH3C2SNHCH4CHC3H2CH2CFeC2FeCH3C3NC8H21C2H2C4H3CH7FeH3C2H3CH2SCH2CNHCH2CH7CNCHCH9CHCH2CH3C2H3C2SC3H2CH5C2HCHCHC2NCH2CH2C3HCFeC2HC2H6CHCH6C4H3CH3NCHCH5SH9CHC2H3C2H2SHCHCH4NCHCSHSC3FeH3CHSC2SCHC2HFeCNHCH4C4NH7CHCH4CHFeH6SH4CHFeC2HCH2CHC2H2SHC3SCSFeHCFeH4FeCHSHSCHCHC3HCH2CHCH4NH4C3HCH2SH2CSHCHSHSC2SH6CH6C2HC2H3NH6CH3CH2CSC2SCHSH2SHCH2FeC2HCH3N2HC3HC2FeNHCH4C2HCSCHCSC3H2CSH2NHCHC2HCH5CHCHCH2CHCH3CHCH4CH14CHFeH3CHSH3CHCH2CHSHFeC2SHCHCH2FeS2FeS2FeSFeHS2FeSHFeS2FeS2FeSHFeS2FeSFeS3HCHFeSHS2CHCFeSHSFeS2FeS2FeSFeS3FeS2FeS2FeSFeS3FeS2HFeSFeS2FeSHFeS2FeSFeS3FeS2FeS2FeSFeS3CH2SFeS2FeS2FeSHFeSFeS3C6H4SHCHCH3CHSCHCH2CSH3C7H4C3HCH2C9H3C6H4C6H6CSH5C7H4C6H4CH6C6H10CH2FeCHCH4NHFeC6H4C8H2C2H4C3SH6CH2C7H4C6H4C6H3CHC2H3CH5CH2CFe2H3CH5CH7CH4C2SCH2SCHNSHCH2SCH11SHNHCNCH2CNC2H5CH4CHCH5NHCH3CHCHFeH3C2HCH2CFeHC4H11SH3NHC2HNH7CH3FeH3FeH2CHSCNH2CHCFeH3CSH5CH2CH2CH2CHNHC2H3CH3NCHCH4SHCH2CHCHNCHCHSHC3SH2CHCH2CH2NH13CHC3H4SHCH2C2H2SCHCH4CHC2H5CHCHCHCNHCH2C2HC2H4FeSC3H2C2FeC2H2CHNC5H11NC8H20CHSH4CH3CHC4SHCNCHCNH2CH6FeCFeCHCH2FeHSH3C3H4C3FeH9CH2C3H5C2H4CH2CHC3H2C3H2CH4C2HCHCH8NCH5CH3CH2C2H2C2H2CH3CH5C2H3CH2CNCH7CH2C3HC3H3C2SH7NCH2CHC2H4C2HC2H4CHCH3C2HFeHCNH2CNCH3CH6NCH7CH3FeHCSCS2C2H2C2H3CH4CSH2NC2H5CH5CH3C2H6CH2C2HCH2CH2C2HC2SCHC2SH2C4H2FeS2FeS2FeSFeCS2H3FeSCFeS2FeCFeS3FeS2FeSFeCSH2NSH2SCH4C2HCHC6H7CFeH2CHFeC5H3CH2C7H4C6H5C3H5CHFeS2H2CFeC2H3CHC2H2CHCHNH2CHC2H2FeH11C2H4NCH2CHCH3C2H4CH2SNCH2CHCHC2SH3CH2SH3CFeHFeHCHCH2SNH2SHCH3SCH3CH2SCH3SCHFeH3C2H2SH3SH6CHCHCHCHSHC2H2C2H3C5H2CHCH6NHCNCHNHCH2C2FeH3CHC4HFe2S2FeS2FeSFeS3H2CSHS2H2CH2SH2FeCHSFe2S2FeH2CHCS2C3HC2HCH3CH2FeHNCH5S2H5S2H3SFeH2CHCH2CH3SHS2CHC11H3C2H2C6H5SH3CH3CFeNHSFeCH4FeHSC4HCHNC8H21SH2FeSHC2H2C3SH2CH3NHCFeHC3NFeC3HC3H2FeCHCSC4H6CH3FeHFeSFeH5C2HCH3CHCFeSCH2C2H4CSCH2CHC2HCH2CH4C2SH5FeS2FeS2FeSFeS3HC2SH2NCHCFe2H3CSH2CH3SHCSHCH2FeH3CH4Fe2H2CS2HSFe2SHFeSHSFeS2FeS2FeSFeS3CH3SFeSCSHCH2SHSHSHSHCH2SCFeH2CS3CSCFeH2FeS2HSCHSHSH2CH2CH4SHFeC2HFeHFeC6H4FeCHCHCH2SHC6H2CFeSH2CS2CHC7H4CH2C8H4FeHFeHSC3SH5CH4C2H3CHC6H4CHCSHCFeS2HCHFeNFeHFeH4SH2CH3CH3SC2H3C6H4CH6CHC7H4C6H3SFeH4CH2C3H2CFe2HSFeH6CH3NC6H13SC2H2CFeSCH5CH4SH2FeCH6NC6HCH3CSH7C2H2FeH3CH2C4HC2SCHC2H2CSH5C2H3NC7FeH2CH12CH2NCNC3H2CH6C3H9CH3NCFeC4H8CH3CHCHNHCHC3HCH5FeCHFeHCH3SCH4NC8H20NC8H13CHCH4NC7NH12CHCH2CHNHC4SFeSH2SHCHCHCSNCH2C2H2CSC2SH3NCH2CH3SCH3C2H2C2HCSH2FeCH3SH4C2HFe2HCH3CSCHCH5SHSH4SC4HC2HCH3C2H3FeC2HCHSH3SH6SFeHCHCHC3H7C3H2C2H2C2H4SCHSCH4CH3FeSH2C2H4C3NHCH2CH3CHCH3CHSHC3HSH4CHC2SH3CNC2H4CH2Fe2HC2NCHC2H7CH2C2HC2HC2H8CH2C2SH4NH2NH3CH2CH2C3H4SHSHSC2HCH4CH3C4S2H3CH10CH3CH10C5H4C2SHCH2CH2C2H3CHCH5CHCSH4SCSH7FeHSHC2H2CSHCSH2C3HNH3FeSHFeSHFeSFeS2HCFeHSFeS4FeHS2HFeHCFeSCHCH3NH3CH2SHC8H3SH3CH2SCNCHCH2CHCH2C6H4SH2C5HCH3C2H2SH6C6H5CHCHCHC2H12C2FeCSH2SH3CHCHFeH9CHCH3NC2HNCHCHCHSH5CFeS2HNCHSH3CH2CH4SCNFeS2FeS2FeSFeS3CHSFeS2FeS2FeSFeS3CHFeHSHSHCHSH2CH3CHNH2CH2C3H7C6H4C6H4CH2C6H4CHC3H5C6H5CH3C6H6CHCNCH2CH3CHCH5CHC2H2CHCH6C2H2C3H2C3H4C4HCH5Fe2HC4SH3CH2CH2C2H2CH2SCNC3HC3H10CH6CHFeCH3CH3CHC2H2CH4CH6CH5CH7CH3NC4H3CH3N2H5CH3C3H3NC3HC2H4CH4SH5SC4HCHC2HNHCHSHCHC2H3NHC3SH4CH9CHCH2CSFeHCH2CH8CH3CH2CH2FeHC2HCSHSHCH2FeHSH2CSHCSHFeHSCFeH2CHNHFeCHCH3SCH5CHCH2C3HC2HC2HCHCHSH4SC2SHCHSH2C2HCHC7H2CH2CH2C2HC3HSC2NCHCH2FeH4CHFeHSH2CHC2H2SC2H2CHFe2HSCH4CH2CHC2H2CH3SNCHFeHSCH3FeH5CFeCNH2C2HC2HSHCSH2CH2CHC4H3SH2NCSC3HFeHC2H2SHC4H13CH5CNH7CHSH4C3H2CH2C2H9CH4SHCSCHFeHC2H4CH2C2H3CH2CS3H4NCSH2C2HC4HNH5SHCHCH2CH2C2H2CH5SH3CHCH2CHCH5NH2CH4C2SHCHC2S2CHC3H2FeHSC3H3NFeHCHS2CHC2H5C2H3SC2H2SHS2H3CH3C3H6FeS2FeS2FeSFeHS2FeHSFeCSH4S2HC5H3CHC9H7CHCNH5C2H2SHC2H3CHNCHCH2C2H2C2H5CH3C2HCH3CHCH3CH2SHCSHCH5C2H3CH2CHC8H7CHC2FeH6CHCH3C2H4CSCHCH2SH6CHNHCH4C2H2CH2C3H2C2H2NH2NH2C2H2CH2CH2NCNHFeH7NCH2CHCHFeC2H3CH4CHSCSH3CFeC2H2CSC3H4SH3C2NHC3H2CH2CH2SH6CHCH2CH3C3H4S2H2FeC2H3SHC2HCH6CHC3H3CHCH13FeSCFeS2Fe2HS2FeS2FeS2FeCFeS3HCSH2C4H2NSH2SCHCHCHC2H5CHC7H7C10H6NHC2SCHCH2CHCH3CH5CHC3H2NH3CSH5CH2CH2CH10CH5CH5C3HCHCH2CHC2H5CH4SHC2HCH3CH2CH5CHCHCHNCHCNCH2CH3CHCH2SC3H6C2HCSH4CH2C2H3C2HCHNHCH3C2HCH5S2HC2HSCHC3HC2HSHNH4CHCHCH4SH3SH3CNCH3NHC6H3CSFeHCS2HSFeSC3H2CFeCSFeC2HCH2CHFeHSCFeH2C3H2SC2HCH3C4HCHSH6CSH4FeCSHC2HNHCH3SCHC2H2C3H3SCFeCSHSHFeH2C3HS3HCH4NFeHSH8CH2C2H4C2HC2SHCHCSNH2SHC2H2SCHNCSHC2H3SH3CH3C2HC2FeHCHFeCH4CHFeHC2HC3H2CHCSHSH2SCSFeCFe2C2H2CHCHSH5CS2CFeHSCNH2C3HCHC2H3NH3SCHCSHFeCH3CH6CH5CH2C2H3CHFeCHCHCH3CHCH3CHSH2SCH2SHCH3CH2C2H6SH2CHC2HCHC2HCH2CFeS2FeS2FeSFeS3FeS2FeS2FeHFeS4FeS2FeHFeSHCNC6H4CNHCH4SH3SCHCHC4H2CSC6H5CH2C2HCHCH4C3H3CHC4H6NH3CH4CHCHCH4C4H3C3HCHCH4CFeCH2C2H5S2CH3C6H3FeCHCH4C5H3CHCH4CHC2SC5HS2HCH8CH4CH3CHC2H4CSHSH3CHCH7SCH6CH3CH2C2H4C2HC2NH2C2H2CH6CH2NH2CHCHNH3C2HCH2CHCHCH4CH4SHCH3FeHCHNHNHCHCHCH3CH2SHC4HCH4CHCH2CH3CH3C2H3CHNHCH2C2HCH2CHCNCH4CHCNSH3CH4C2H2SHCHC2HSC2H2CH2FeHSC2FeSHCSCH3FeSHFeS2NSFeSFeSCH2FeS2HFeCSH2FeSHFeS2FeSHCS3CHFeSH6CFeH2C7H5SH2CH2FeH2C7H3C6H6C2HCHC6H6SH3SHSHSC2HCHCFeH3FeH2CHFeHCH6C3H2C2H2CHC3H3NCH5CH4CHCH2CH3SFeCH2CH4CHCHC2S2HCHNC4SC2H2CH2CHCH8CHCSHCH4CH2CHNH2FeHCHCHNH2FeH2CHFeH4CH2SCFeCFeHC2H2CSHCH5SH3CNCSH3CHCH2C2FeHSH2CFeSH2C3HCH3SC3H4S2CFeS2FeS3FeSHC2FeH2FeS2HNFeHFeSFeS2FeS2FeSFeS3HCH2SC3HCHCNHSHCFeCSH2SC2S2H3SHCHC3H2FeS2FeS2FeSFeS3H3SCHCH3CH4SH3C3H2C2HC2HCHCH2SC6H4C6H5CH2CHNC2SH2FeH4CH3NHCH2CFeNHC4H6CSC6H4C6H4C2H3NHC6H4FeSC4HNH2C6H5SHCH2CFeCH2CHSH5CH3SC7H10CHCH4C2H4CHCHFeCH5CH7C2HC3H6C3H2C2HSH6NH2NC8H20NC5HCH8FeH3CHCH4CHCH3CSFeCH4SCHCH3CHCH5FeHC2H3SH2CH2SHC2H3CH2CNCHCH2C5H6C2HCHNHCHCH4SHCFeCH2CH2SFeHC2HCHFeHCHCSHCHCH2CH3SCH6FeHCHCHC3H2CH2SCSCHCH6C3H3C4H4FeCH2NCHC3H3CHCHFeH5C2H2CFeH2CSFeH6CHSC2H3CH4CHCH2CHSCNC2HC2H4CH2SH3CHC2HFeC2SHCHCH2CHCH4SHFeNH2CH2CFeHNCHC2HC2SHCH4FeCSCHCH7C2H4CHCFeHSC2HSH2CH2C2HSCHFeHCH2C2H2CSH2CH10C2SNH3CH2SHS2CSC2H3FeCH3SH2S2H2NHFeHC2HNSC4FeCHSH2CH3NC2HCH5CH6CNFeH2CHCH3CH2C2H7SH3SH5CH4C2NH2CH4C3HC2HFeCHCH3SH2FeHCHC2H3CFeCH5FeH3CH6CH2CFe2H3CHCHCH11FeCSHSHSCFeS2FeS2FeSFeS3CNH2CFeS3HFeSHSFeS2FeS2FeSFeS3HSCFeSHFeSFeSCHFeS2H4CFeSHSFeS2FeS2FeSFeS3FeS2FeS2FeSFeS3HCFeS2FeS2HCFeS3H2SCSH2SHFe2SCHFeS2FeS2FeSH2S2HSHC6H7C3HCH2CHCH2C4HCH2CHC6H4FeHC2H3CH3C3HC5H2C6H4C6H4C6H6CH2CHCH2CH4SH4CH3C7H4C4HCH2CHC6H4C6H3C7H5C2HN2CH3C6H4SHCHC2H3C7H4SC6H6C2HCH2CH3CHCH3C2HC3HCSHSH2CH3CFeCHC2SC3H2CHCH3SH2CH2C2H2CH5CSH3CH3CHNC6H9CH3NC2H9CH3CNCH2CHC3H4FeSH2SHCHCH3CH3C2HC2SHNHC2HFeC3HFeHC2NC6H6CH7CH3CH2SNC3H2CH2C2H7CHCH4C3HNC6H13SCHNH3SH5CHCHCHC4HCHFeH2NC8H26CHCH2SH2CH2FeH4CH2SH2CH5CHCH4C2H3C2H2C2H2CHCH3C2H3C2H2CH3NH4CH4CH5CSHCHCHCH3C2H5NHCFeH3CHCH3SCH3CH2CH3CNC2H4CNH2NH4FeH4CH2CH5CHCHFeHSC2H3FeCHSNSCHCH2CH3C2H2C2H3CH2CHCH3FeH5CH8NH11C2H3CFeHCH4CHC2N2C2FeCHCH6CH6CNCH4NCH3CH3FeH3FeCH3CHC2HC2SH2C2HSFeH4CH9C2HFeHCHCH3CFeS2HFeSHSHCSNCHCH2SCHFeSHFeSHFeSHS2CFeHSFeS3HFeHS2C6H8C2HFeH4CFeC3H3C6H4CH2C6H4C7H6CH3CH7SHNHCSCHSH2CHS2HCFeCHCH4NCH6CHSHCH2FeSH5C2HCH2CSH2CH3CHNHCH2FeCSH4FeSH8NH2C5HCFeCH3CH3SHSHFeHFeCHCHC2SCHCHC3SH2CHNC2H2CHFeHNCHC2HCHFeSH2CHCH3SCHCHCH8CHC2FeC2HCH2CH4FeS2FeS2FeSFeS3HFeHS2H2C2HC2SH2SHFeS2FeS2FeSFeS3CH3FeHSH3CHNFeS2FeS2FeSFeS3CH3C4H6C2H4C2HCHC2SH3C6H4C6H4C6H4C3H3CSNH3CH3CHNCHC2H3CHCHC6H4C6H2CHC3H2C6H4CHCH3CH8SHNHC2HNHCSC3HC2H2CH3CHCH4FeHSH3FeHC2H2C3H2C3H3CH5C2HNH5FeHNCH3NC2H2FeCH3CH15C2SH3SH3C2H2CHCH6CH4CH5CH3CHCH3CH3CHCHCHCH4CFeH2CNHCH4CH2NH2C2HC2SH4CH4C2H2CHSHSHFeHCHCH2CH3CHC2HCH4S2H2SH5CHCH2C3NC4HC5H5CH2SCH14CH2CH3C2H3CHSC2H2C4NC5HCH4CH3CH4C2H4C4HCH7CHFeH4CNH2CH3SH2CFeCHCHS2HC2HC2H2SHCH3FeS2FeS2FeSFeS3HFeHSH2SH2CSFeS2FeS2FeSFeS3CS2HFe2SCFeS2FeS2FeSFeS3CFeSNFeS2FeSFeS3FeS2FeS2FeSFeS3FeS2FeS2FeSFeS3HSHCHC4HNCHCH3C2HCH2CSHC2HC2HSH6C2H2FeSHCFeC7H6CHSH5C2H2C2H4C3H2CHCH2C6H4FeHCH2C3HC6H2CHC6H4CHC2H5SH4FeC6H4CH2CHC6H6SCSHC2H2C6H4C6H4C6H8C6H7C4SCHSH4C3SFeH3CNC8H14CHFeH2C4H9C2H6CHFeCH6SHC2HC4H3SCH2SCH2NH4CHSCHCFeNSCHC3H11SCNH2C2HSH7CH2SHSHN2C7H22CHCHCH4CH3CH3NC2H2CFeHCH3NH6C2H3CHCH2FeH5SH4SH2CH3CHCH2NHSCH3CH4CNCNH3CH3CH4C3H3CH2CH6CNH5CH2CH3CHC2HC2H3CHCH13CHCH3CH6CSHCH5CSH2SCH3NC3HCHCH3CH2CHCH2CFeCHNHCHCH3CH9CHCH3C2H2C3HCH6SH3FeH5NCH4C2HCH4CHCH3C2SH2CNC5HCHSHC2H2C3HC2H3SHCHCHCH6CHNH2C2H2CHCH2CHC2HNC3H2CH2SHCH2C2H3NHCFeSCH5CH3CH2FeH5CH2CHCHS2H2C2H2CH5C2H2CNCHCHC3HCH3C3H2CNC2SH5CHCHC2H2CHC3H3CH3C3HCSCH6CHC2SHFeH2CH6CHC4FeHCSHSH2FeH2C2HCH3C4FeHCHFeCS2FeS2FeS2FeSFeS3CS2FeS2FeS2FeSFeS3FeS2FeSHFeSFeS3HSFeS2FeS2FeSCHSHCSCFeHSHCH3SCHSFeS2HC2H2C3SCFeS2H2SHC2H2SHC2HC3H4C3HSCH2CHC2H2C2H2NCH10C6H4C6H4C4HCH5C6H4C6H4C2HCHNH2CHC3NH2SHC6H4C6H4C6H4C2H6C6H4CHCHFeCHC3H4NCHCFeH3C2NC8H20NC7SH9SCH13CH4CH3CH3C3H8FeCHCSC2HSH5CHFeH7CH4CNH2CHFeHCH2C5H3CH4C2FeH2CFeHC2H2CH2CH4CH2CH3SH4CSNHCSCH2SH2FeH5SH4CHCH2CH2CH2FeC2H2CHCH3CH3SH2CH3C2H3CH5CH4NH3SCHC2H4SHC2HFeCFeHSC2HCHS2H2CHCHCFeCH2NSFeCH2CHCH2CSC3H2CFeHCSH2CH2CHCH3S2HC2H2CH4CH2C2H3CHC3HCS2CH2CH3NH2CHSH3SCH3NH2CHCSCHCH2CS2HCFeHCH4FeHCH2SHCH3C2HCHCH2CHCH2CH6NH4FeHCHCH2CH2SCH4C3H3CH3NCSHCHCHCHFeH4CH7CHCH2CNHC2HCH3C2HCH2SH6CH2CH3NCH3CH5C2HC2HSHCHC3HC2HNHCH3CH6C3H9C2H3CH4C2H2FeH3CH2C3H6CH2CHCHSH2CH4CH2FeCH4CH2CFeSH2C3H4C2NCHSH3NSCHCH3CHFeCFeC2HC3SH4CH2SH5CH2CH2CNH2C2SHCH3C2H2CH3CH3C3HSHCH5SCH2CHCH2SH2CHCFeCHCHSCNH3C2HCH2CSHCH7SHFeC4SFe2S2FeS2FeSFeS3HSH2FeS2FeS2FeSFeS3FeSHFeS2FeS2FeSFeS3C2HC3H4C6H4C6H5C3H2CHCHCH2C4H3C2H9C6H4CHC4SCH2CHC6H3CH4SHC2HC3FeNH4CH3CH3CH4C2H2NC8H20CH2CH4CH2CH5C2H4CH6FeHCHC3H3C2NSNC8H22C2NH2C2HC4H2CH4CH2CH8NC3H2C2HCH3SH4FeH2C4H4CHCHN2CHCHC2H3CHCH5CFeCNC7NH6CHCH5CH8CHCHCNC2H3C2HCHCS2H2CH2FeH2CHC3H3SC2HS2C2SNS2HC2H6CHC2HCHNHC5HC3H8CH6C2HCHCH3CH3SCH2CH10CH6CH4CH8CHSH6C2H2S2H2
_chemical_formula_sum              "Fe768 S1536 H9216 C5376 N384"
_cell_length_a       131.763
_cell_length_b       129.874
_cell_length_c       129.958
_cell_angle_alpha    73.761
_cell_angle_beta     73.7688
_cell_angle_gamma    73.7038

_space_group_name_H-M_alt    "P 1"
_space_group_IT_number       1

loop_
  _space_group_symop_operation_xyz
  'x, y, z'

loop_
  _atom_site_type_symbol
  _atom_site_label
  _atom_site_symmetry_multiplicity
  _atom_site_fract_x
  _atom_site_fract_y
  _atom_site_fract_z
  _atom_site_occupancy
  Fe  Fe1       1.0  0.04978  0.47027  0.02509  1.0000
  S   S1        1.0  0.03584  0.46801  0.02008  1.0000
  Fe  Fe2       1.0  0.06500  0.45003  0.01807  1.0000
  S   S2        1.0  0.05226  0.44601  0.01225  1.0000
  S   S3        1.0  0.08235  0.44054  0.01512  1.0000
  Fe  Fe3       1.0  0.04807  0.46404  0.00503  1.0000
  H   H1        1.0  0.14966  0.42973  0.99532  1.0000
  Fe  Fe4       1.0  0.04116  0.45030  0.02786  1.0000
  S   S4        1.0  0.02842  0.44075  0.03778  1.0000
  S   S5        1.0  0.06175  0.46769  0.00946  1.0000
  S   S6        1.0  0.05423  0.45287  0.03427  1.0000
  Fe  Fe5       1.0  0.15353  0.45748  0.02611  1.0000
  C   C1        1.0  0.00469  0.47651  0.05360  1.0000
  S   S7        1.0  0.17003  0.44750  0.02884  1.0000
  Fe  Fe6       1.0  0.12999  0.45662  0.02835  1.0000
  S   S8        1.0  0.04696  0.48441  0.03292  1.0000
  S   S9        1.0  0.11672  0.44730  0.03691  1.0000
  Fe  Fe7       1.0  0.14156  0.47077  0.00826  1.0000
  H   H2        1.0  0.02565  0.47591  0.04614  1.0000
  H   H3        1.0  0.19618  0.41892  0.01114  1.0000
  S   S10       1.0  0.14530  0.45268  0.01567  1.0000
  S   S11       1.0  0.13857  0.45982  0.03952  1.0000
  Fe  Fe8       1.0  0.21738  0.46615  0.03541  1.0000
  C   C2        1.0  0.17508  0.44875  0.99935  1.0000
  S   S12       1.0  0.20001  0.46761  0.04484  1.0000
  H   H4        1.0  0.11811  0.44533  0.01475  1.0000
  C   C3        1.0  0.01200  0.48184  0.13510  1.0000
  H   H5        1.0  0.03805  0.42458  0.06338  1.0000
  H   H6        1.0  0.18985  0.45315  0.00863  1.0000
  C   C4        1.0  0.17081  0.48618  0.05853  1.0000
  H   H7        1.0  0.10454  0.44239  0.00644  1.0000
  H   H8        1.0  0.10113  0.46806  0.03761  1.0000
  H   H9        1.0  0.19622  0.48739  0.06360  1.0000
  H   H10       1.0  0.99729  0.47109  0.12889  1.0000
  H   H11       1.0  0.02249  0.45266  0.07206  1.0000
  H   H12       1.0  0.18463  0.43358  0.99474  1.0000
  H   H13       1.0  0.15287  0.45628  0.05865  1.0000
  C   C5        1.0  0.09570  0.48587  0.03089  1.0000
  C   C6        1.0  0.06412  0.40558  0.04858  1.0000
  C   C7        1.0  0.08167  0.41917  0.04412  1.0000
  H   H14       1.0  0.07074  0.39472  0.03685  1.0000
  C   C8        1.0  0.01914  0.48688  0.23068  1.0000
  C   C9        1.0  0.17876  0.45345  0.03236  1.0000
  C   C10       1.0  0.18753  0.44652  0.03674  1.0000
  C   C11       1.0  0.19437  0.45087  0.04012  1.0000
  C   C12       1.0  0.19251  0.46221  0.03913  1.0000
  C   C13       1.0  0.18403  0.46918  0.03433  1.0000
  C   C14       1.0  0.17713  0.46484  0.03097  1.0000
  H   H15       1.0  0.18888  0.43771  0.03780  1.0000
  H   H16       1.0  0.20091  0.44543  0.04381  1.0000
  H   H17       1.0  0.18283  0.47795  0.03330  1.0000
  H   H18       1.0  0.17051  0.47028  0.02744  1.0000
  C   C15       1.0  0.02044  0.44488  0.04992  1.0000
  C   C16       1.0  0.00944  0.44445  0.05316  1.0000
  H   H19       1.0  0.14154  0.46832  0.06841  1.0000
  C   C17       1.0  0.00774  0.45030  0.06988  1.0000
  C   C18       1.0  0.01878  0.45054  0.06671  1.0000
  C   C19       1.0  0.02506  0.44809  0.05665  1.0000
  C   C20       1.0  0.00114  0.48373  0.23291  1.0000
  H   H20       1.0  0.01319  0.47426  0.14164  1.0000
  Fe  Fe9       1.0  0.22812  0.47968  0.01444  1.0000
  H   H21       1.0  0.03354  0.44835  0.05428  1.0000
  C   C21       1.0  0.09153  0.44377  0.02071  1.0000
  C   C22       1.0  0.08856  0.44546  0.03140  1.0000
  C   C23       1.0  0.09638  0.44655  0.03626  1.0000
  C   C24       1.0  0.10704  0.44658  0.03026  1.0000
  C   C25       1.0  0.10988  0.44547  0.01936  1.0000
  C   C26       1.0  0.10219  0.44379  0.01469  1.0000
  H   H22       1.0  0.08038  0.44543  0.03611  1.0000
  H   H23       1.0  0.09417  0.44735  0.04472  1.0000
  C   C27       1.0  0.06932  0.42277  0.04807  1.0000
  S   S13       1.0  0.99065  0.46629  0.17918  1.0000
  C   C28       1.0  0.23573  0.43272  0.98706  1.0000
  H   H24       1.0  0.08029  0.40238  0.03675  1.0000
  S   S14       1.0  0.21977  0.46598  0.01779  1.0000
  C   C29       1.0  0.03160  0.48360  0.22721  1.0000
  Fe  Fe10      1.0  0.23591  0.45504  0.01954  1.0000
  S   S15       1.0  0.00014  0.45384  0.08240  1.0000
  H   H25       1.0  0.04917  0.41325  0.06575  1.0000
  H   H26       1.0  0.16176  0.45107  0.06834  1.0000
  C   C30       1.0  0.16815  0.46543  0.08021  1.0000
  H   H27       1.0  0.06326  0.43018  0.02905  1.0000
  H   H28       1.0  0.16286  0.43216  0.98908  1.0000
  C   C31       1.0  0.09727  0.47582  0.04041  1.0000
  N   N1        1.0  0.15598  0.47451  0.06595  1.0000
  H   H29       1.0  0.07746  0.39120  0.04779  1.0000
  S   S16       1.0  0.98687  0.45606  0.15504  1.0000
  H   H30       1.0  0.03490  0.47506  0.23128  1.0000
  H   H31       1.0  0.14366  0.47874  0.05638  1.0000
  H   H32       1.0  0.20328  0.48473  0.98677  1.0000
  S   S17       1.0  0.04377  0.47319  0.98886  1.0000
  H   H33       1.0  0.01077  0.46829  0.21268  1.0000
  N   N2        1.0  0.06231  0.41786  0.04421  1.0000
  C   C32       1.0  0.05686  0.41769  0.02666  1.0000
  H   H34       1.0  0.99456  0.44706  0.06544  1.0000
  S   S18       1.0  0.22487  0.48059  0.03193  1.0000
  C   C33       1.0  0.05062  0.42299  0.04861  1.0000
  H   H35       1.0  0.20617  0.45091  0.98654  1.0000
  C   C34       1.0  0.09483  0.47571  0.01778  1.0000
  H   H36       1.0  0.98707  0.48387  0.05636  1.0000
  H   H37       1.0  0.20925  0.45390  0.00133  1.0000
  H   H38       1.0  0.01921  0.47264  0.06704  1.0000
  C   C35       1.0  0.00818  0.47738  0.21094  1.0000
  C   C36       1.0  0.18460  0.43862  0.00042  1.0000
  H   H39       1.0  0.18237  0.43353  0.00882  1.0000
  C   C37       1.0  0.20415  0.43063  0.99751  1.0000
  H   H40       1.0  0.06719  0.43191  0.04560  1.0000
  C   C38       1.0  0.99757  0.48769  0.11837  1.0000
  C   C39       1.0  0.15875  0.48568  0.06288  1.0000
  H   H41       1.0  0.99189  0.48712  0.19122  1.0000
  H   H42       1.0  0.01691  0.48732  0.13557  1.0000
  H   H43       1.0  0.98972  0.44986  0.13464  1.0000
  H   H44       1.0  0.17020  0.47225  0.08226  1.0000
  H   H45       1.0  0.19324  0.47110  0.99981  1.0000
  C   C40       1.0  0.19580  0.47684  0.00294  1.0000
  N   N3        1.0  0.19561  0.44103  0.99854  1.0000
  C   C41       1.0  0.12460  0.48079  0.98944  1.0000
  H   H46       1.0  0.08469  0.41039  0.04771  1.0000
  H   H47       1.0  0.19321  0.43956  0.01606  1.0000
  H   H48       1.0  0.04857  0.42298  0.02783  1.0000
  S   S19       1.0  0.23294  0.45382  0.03773  1.0000
  H   H49       1.0  0.17420  0.45405  0.00504  1.0000
  H   H50       1.0  0.00629  0.48538  0.11461  1.0000
  H   H51       1.0  0.99637  0.47819  0.23222  1.0000
  C   C42       1.0  0.07370  0.39832  0.04196  1.0000
  C   C43       1.0  0.19583  0.44524  0.00816  1.0000
  C   C44       1.0  0.04702  0.42186  0.06117  1.0000
  H   H52       1.0  0.00993  0.46938  0.05009  1.0000
  H   H53       1.0  0.05638  0.40896  0.02992  1.0000
  S   S20       1.0  0.12557  0.47430  0.01987  1.0000
  S   S21       1.0  0.15088  0.47521  0.01763  1.0000
  N   N4        1.0  0.08942  0.48549  0.02296  1.0000
  H   H54       1.0  0.15297  0.46171  0.08070  1.0000
  H   H55       1.0  0.08436  0.42098  0.03505  1.0000
  H   H56       1.0  0.01077  0.48275  0.03316  1.0000
  C   C45       1.0  0.22896  0.45232  0.98553  1.0000
  H   H57       1.0  0.21242  0.43237  0.99469  1.0000
  H   H58       1.0  0.21032  0.41401  0.00601  1.0000
  C   C46       1.0  0.20408  0.42138  0.00799  1.0000
  C   C47       1.0  0.20679  0.44725  0.00827  1.0000
  H   H59       1.0  0.04498  0.41943  0.04637  1.0000
  H   H60       1.0  0.06787  0.42073  0.05719  1.0000
  H   H61       1.0  0.20624  0.42366  0.01458  1.0000
  H   H62       1.0  0.01523  0.47896  0.12734  1.0000
  H   H63       1.0  0.19001  0.47865  0.01056  1.0000
  S   S22       1.0  0.14555  0.47897  0.99056  1.0000
  H   H64       1.0  0.07271  0.41789  0.02780  1.0000
  C   C48       1.0  0.06427  0.42111  0.03184  1.0000
  Fe  Fe11      1.0  0.13517  0.47719  0.03004  1.0000
  H   H65       1.0  0.16743  0.44586  0.00153  1.0000
  H   H66       1.0  0.19241  0.45775  0.98893  1.0000
  H   H67       1.0  0.09485  0.46787  0.02388  1.0000
  C   C49       1.0  0.99344  0.47694  0.12230  1.0000
  H   H68       1.0  0.20595  0.44995  0.01592  1.0000
  H   H69       1.0  0.04873  0.43193  0.04484  1.0000
  C   C50       1.0  0.99194  0.45684  0.22649  1.0000
  H   H70       1.0  0.05033  0.42732  0.06397  1.0000
  H   H71       1.0  0.06520  0.40343  0.05718  1.0000
  H   H72       1.0  0.08568  0.42391  0.04708  1.0000
  H   H73       1.0  0.06013  0.41886  0.01764  1.0000
  H   H74       1.0  0.05677  0.40269  0.04899  1.0000
  C   C51       1.0  0.23262  0.45160  0.99492  1.0000
  H   H75       1.0  0.08955  0.47515  0.04649  1.0000
  C   C52       1.0  0.15677  0.46896  0.07764  1.0000
  H   H76       1.0  0.99524  0.48103  0.14171  1.0000
  H   H77       1.0  0.00065  0.45518  0.22500  1.0000
  H   H78       1.0  0.17176  0.46640  0.05749  1.0000
  C   C53       1.0  0.00304  0.44734  0.06303  1.0000
  H   H79       1.0  0.17467  0.46239  0.07359  1.0000
  H   H80       1.0  0.16702  0.45144  0.05411  1.0000
  H   H81       1.0  0.00584  0.44190  0.04801  1.0000
  H   H82       1.0  0.15084  0.48213  0.03577  1.0000
  C   C54       1.0  0.16089  0.45598  0.06004  1.0000
  H   H83       1.0  0.20333  0.42701  0.99104  1.0000
  C   C55       1.0  0.15410  0.43598  0.98967  1.0000
  C   C56       1.0  0.14438  0.47616  0.06512  1.0000
  H   H84       1.0  0.16831  0.45835  0.08737  1.0000
  H   H85       1.0  0.18042  0.48137  0.99147  1.0000
  H   H86       1.0  0.10391  0.48725  0.02641  1.0000
  H   H87       1.0  0.17574  0.45381  0.99088  1.0000
  C   C57       1.0  0.08981  0.47489  0.00870  1.0000
  C   C58       1.0  0.13587  0.48469  0.07112  1.0000
  H   H88       1.0  0.01144  0.46352  0.23076  1.0000
  H   H89       1.0  0.00966  0.48024  0.20186  1.0000
  H   H90       1.0  0.00406  0.47390  0.06263  1.0000
  H   H91       1.0  0.08149  0.46807  0.03802  1.0000
  H   H92       1.0  0.07131  0.47116  0.03009  1.0000
  H   H93       1.0  0.10357  0.47568  0.01417  1.0000
  H   H94       1.0  0.99280  0.47996  0.04318  1.0000
  H   H95       1.0  0.20366  0.47247  0.00518  1.0000
  N   N5        1.0  0.01297  0.48032  0.22775  1.0000
  H   H96       1.0  0.99558  0.47281  0.11532  1.0000
  C   C59       1.0  0.19784  0.44960  0.98814  1.0000
  H   H97       1.0  0.06827  0.47584  0.04235  1.0000
  C   C60       1.0  0.16301  0.46757  0.05792  1.0000
  H   H98       1.0  0.12324  0.47654  0.99796  1.0000
  C   C61       1.0  0.13179  0.45324  0.99093  1.0000
  C   C62       1.0  0.01482  0.48253  0.21541  1.0000
  H   H99       1.0  0.16201  0.47187  0.04944  1.0000
  H   H100      1.0  0.23150  0.45892  0.99785  1.0000
  H   H101      1.0  0.21338  0.43975  0.00827  1.0000
  C   C63       1.0  0.07482  0.47446  0.03501  1.0000
  C   C64       1.0  0.98690  0.45850  0.21775  1.0000
  H   H102      1.0  0.09342  0.46675  0.00653  1.0000
  H   H103      1.0  0.99171  0.45829  0.20953  1.0000
  H   H104      1.0  0.10284  0.47692  0.04486  1.0000
  H   H105      1.0  0.02344  0.47931  0.21174  1.0000
  C   C65       1.0  0.99318  0.47783  0.05196  1.0000
  C   C66       1.0  0.01672  0.46817  0.23207  1.0000
  H   H106      1.0  0.09160  0.48117  0.00107  1.0000
  H   H107      1.0  0.17401  0.48414  0.05033  1.0000
  H   H108      1.0  0.02498  0.46497  0.22745  1.0000
  H   H109      1.0  0.12775  0.48490  0.06999  1.0000
  H   H110      1.0  0.01943  0.48675  0.06617  1.0000
  H   H111      1.0  0.17604  0.48084  0.06415  1.0000
  H   H112      1.0  0.13545  0.48252  0.08008  1.0000
  C   C67       1.0  0.99987  0.48747  0.13696  1.0000
  H   H113      1.0  0.13597  0.45761  0.99407  1.0000
  N   N6        1.0  0.00963  0.48648  0.04878  1.0000
  H   H114      1.0  0.99078  0.46981  0.05551  1.0000
  H   H115      1.0  0.15185  0.47449  0.08327  1.0000
  H   H116      1.0  0.03447  0.48463  0.21820  1.0000
  H   H117      1.0  0.12299  0.45692  0.99317  1.0000
  H   H118      1.0  0.08094  0.47561  0.01140  1.0000
  H   H119      1.0  0.13285  0.44447  0.99525  1.0000
  H   H120      1.0  0.99934  0.47982  0.21410  1.0000
  C   C68       1.0  0.02120  0.48296  0.05012  1.0000
  C   C69       1.0  0.07769  0.48561  0.02852  1.0000
  H   H121      1.0  0.05276  0.45048  0.98631  1.0000
  H   H122      1.0  0.10874  0.48101  0.98765  1.0000
  H   H123      1.0  0.15213  0.44291  0.99375  1.0000
  C   C70       1.0  0.19748  0.48732  0.99413  1.0000
  H   H124      1.0  0.03158  0.47721  0.06186  1.0000
  C   C71       1.0  0.02275  0.47972  0.06204  1.0000
  C   C72       1.0  0.14607  0.04987  0.46495  1.0000
  C   C73       1.0  0.12326  0.99342  0.45746  1.0000
  H   H125      1.0  0.10183  0.08243  0.45236  1.0000
  H   H126      1.0  0.01251  0.27091  0.45329  1.0000
  H   H127      1.0  0.03459  0.11300  0.47516  1.0000
  C   C74       1.0  0.99950  0.26085  0.42236  1.0000
  H   H128      1.0  0.00688  0.45711  0.30506  1.0000
  C   C75       1.0  0.02952  0.00358  0.43970  1.0000
  C   C76       1.0  0.00299  0.35658  0.41687  1.0000
  H   H129      1.0  0.10713  0.07488  0.44186  1.0000
  C   C77       1.0  0.20882  0.01806  0.39876  1.0000
  Fe  Fe12      1.0  0.05822  0.04608  0.45074  1.0000
  S   S23       1.0  0.04056  0.04650  0.45317  1.0000
  H   H130      1.0  0.99872  0.34773  0.47230  1.0000
  Fe  Fe13      1.0  0.06475  0.03697  0.43033  1.0000
  S   S24       1.0  0.04773  0.03651  0.43064  1.0000
  S   S25       1.0  0.07978  0.03280  0.41754  1.0000
  Fe  Fe14      1.0  0.04306  0.05316  0.43494  1.0000
  S   S26       1.0  0.03309  0.06829  0.42566  1.0000
  Fe  Fe15      1.0  0.04648  0.02984  0.44883  1.0000
  S   S27       1.0  0.04006  0.01515  0.46004  1.0000
  S   S28       1.0  0.06026  0.05403  0.43299  1.0000
  S   S29       1.0  0.06394  0.02895  0.44803  1.0000
  S   S30       1.0  0.98687  0.21955  0.42563  1.0000
  H   H131      1.0  0.21599  0.02166  0.39428  1.0000
  C   C78       1.0  0.00736  0.16146  0.47567  1.0000
  C   C79       1.0  0.10447  0.00241  0.41147  1.0000
  H   H132      1.0  0.01941  0.45544  0.24661  1.0000
  H   H133      1.0  0.12176  0.06414  0.45608  1.0000
  Fe  Fe16      1.0  0.22323  0.03655  0.43820  1.0000
  S   S31       1.0  0.20592  0.03808  0.44790  1.0000
  H   H134      1.0  0.00855  0.46663  0.24962  1.0000
  Fe  Fe17      1.0  0.12979  0.04433  0.42911  1.0000
  S   S32       1.0  0.12682  0.03087  0.44391  1.0000
  S   S33       1.0  0.11662  0.05393  0.42001  1.0000
  Fe  Fe18      1.0  0.15310  0.04221  0.43088  1.0000
  S   S34       1.0  0.15192  0.02869  0.44600  1.0000
  S   S35       1.0  0.16866  0.04787  0.42219  1.0000
  Fe  Fe19      1.0  0.14362  0.02210  0.43721  1.0000
  S   S36       1.0  0.14910  0.00440  0.43630  1.0000
  Fe  Fe20      1.0  0.13534  0.03882  0.45120  1.0000
  H   H135      1.0  0.02214  0.16427  0.45688  1.0000
  S   S37       1.0  0.14593  0.03485  0.42160  1.0000
  S   S38       1.0  0.13713  0.05305  0.43689  1.0000
  H   H136      1.0  0.98992  0.48333  0.31013  1.0000
  H   H137      1.0  0.21201  0.01550  0.47078  1.0000
  S   S39       1.0  0.23163  0.01896  0.43849  1.0000
  H   H138      1.0  0.09096  0.07579  0.43887  1.0000
  C   C80       1.0  0.02692  0.34256  0.44235  1.0000
  C   C81       1.0  0.03227  0.99729  0.46129  1.0000
  C   C82       1.0  0.02705  0.99365  0.44634  1.0000
  H   H139      1.0  0.01824  0.46855  0.30496  1.0000
  S   S40       1.0  0.99212  0.46769  0.27154  1.0000
  H   H140      1.0  0.08526  0.07772  0.45895  1.0000
  C   C83       1.0  0.01921  0.31142  0.46888  1.0000
  H   H141      1.0  0.07145  0.05709  0.47779  1.0000
  H   H142      1.0  0.04051  0.03123  0.47528  1.0000
  C   C84       1.0  0.17608  0.01884  0.42223  1.0000
  H   H143      1.0  0.18659  0.03011  0.41405  1.0000
  H   H144      1.0  0.10166  0.07957  0.47072  1.0000
  H   H145      1.0  0.22787  0.07913  0.47991  1.0000
  Fe  Fe21      1.0  0.98968  0.32100  0.42614  1.0000
  H   H146      1.0  0.10290  0.01760  0.41605  1.0000
  H   H147      1.0  0.02834  0.00610  0.43137  1.0000
  C   C85       1.0  0.01826  0.24936  0.46618  1.0000
  H   H148      1.0  0.01107  0.34149  0.43444  1.0000
  H   H149      1.0  0.21098  0.00955  0.39750  1.0000
  N   N7        1.0  0.20774  0.00058  0.48180  1.0000
  H   H150      1.0  0.01355  0.16602  0.47520  1.0000
  H   H151      1.0  0.13916  0.01724  0.47834  1.0000
  H   H152      1.0  0.12359  0.01948  0.42293  1.0000
  H   H153      1.0  0.14845  0.04802  0.45689  1.0000
  H   H154      1.0  0.01464  0.35989  0.43190  1.0000
  H   H155      1.0  0.00167  0.48080  0.33355  1.0000
  H   H156      1.0  0.99295  0.34253  0.45534  1.0000
  C   C86       1.0  0.19557  0.04108  0.44070  1.0000
  C   C87       1.0  0.19747  0.04509  0.42933  1.0000
  C   C88       1.0  0.18906  0.04739  0.42379  1.0000
  C   C89       1.0  0.17878  0.04551  0.42955  1.0000
  C   C90       1.0  0.17689  0.04151  0.44093  1.0000
  C   C91       1.0  0.18525  0.03939  0.44651  1.0000
  H   H157      1.0  0.20539  0.04649  0.42481  1.0000
  H   H158      1.0  0.19055  0.05054  0.41499  1.0000
  H   H159      1.0  0.16896  0.04019  0.44546  1.0000
  H   H160      1.0  0.18370  0.03639  0.45532  1.0000
  H   H161      1.0  0.12374  0.99702  0.41922  1.0000
  C   C92       1.0  0.12463  0.01358  0.41777  1.0000
  C   C93       1.0  0.09704  0.07309  0.47498  1.0000
  H   H162      1.0  0.10746  0.99245  0.44454  1.0000
  H   H163      1.0  0.03213  0.34674  0.44444  1.0000
  H   H164      1.0  0.12962  0.00798  0.45358  1.0000
  C   C94       1.0  0.02233  0.07698  0.43291  1.0000
  C   C95       1.0  0.01781  0.08745  0.42726  1.0000
  C   C96       1.0  0.00905  0.09445  0.43276  1.0000
  H   H165      1.0  0.01726  0.24397  0.47457  1.0000
  C   C97       1.0  0.00914  0.08044  0.44954  1.0000
  C   C98       1.0  0.01803  0.07354  0.44410  1.0000
  H   H166      1.0  0.02105  0.09016  0.41859  1.0000
  C   C99       1.0  0.23188  0.03414  0.48361  1.0000
  H   H167      1.0  0.17946  0.99885  0.44918  1.0000
  H   H168      1.0  0.02140  0.06548  0.44851  1.0000
  C   C100      1.0  0.09015  0.03837  0.41845  1.0000
  C   C101      1.0  0.09870  0.04003  0.40937  1.0000
  C   C102      1.0  0.10704  0.04442  0.41001  1.0000
  C   C103      1.0  0.10703  0.04693  0.41981  1.0000
  C   C104      1.0  0.09858  0.04507  0.42895  1.0000
  C   C105      1.0  0.09007  0.04095  0.42824  1.0000
  H   H169      1.0  0.09878  0.03810  0.40177  1.0000
  H   H170      1.0  0.11344  0.04604  0.40285  1.0000
  H   H171      1.0  0.09843  0.04706  0.43650  1.0000
  H   H172      1.0  0.08350  0.03971  0.43530  1.0000
  C   C106      1.0  0.03501  0.00707  0.45457  1.0000
  H   H173      1.0  0.01254  0.33678  0.46287  1.0000
  C   C107      1.0  0.03365  0.01019  0.44374  1.0000
  C   C108      1.0  0.01896  0.36646  0.44314  1.0000
  H   H174      1.0  0.03564  0.01776  0.43851  1.0000
  C   C109      1.0  0.08863  0.06949  0.45690  1.0000
  H   H175      1.0  0.99430  0.47782  0.32587  1.0000
  H   H176      1.0  0.03437  0.24984  0.46701  1.0000
  C   C110      1.0  0.01118  0.31153  0.46369  1.0000
  H   H177      1.0  0.01253  0.16253  0.40569  1.0000
  S   S41       1.0  0.01505  0.30576  0.45208  1.0000
  H   H178      1.0  0.21870  0.03704  0.47570  1.0000
  H   H179      1.0  0.20661  0.99754  0.41947  1.0000
  C   C111      1.0  0.99955  0.34760  0.41599  1.0000
  H   H180      1.0  0.08758  0.06239  0.44375  1.0000
  N   N8        1.0  0.19697  0.01415  0.41850  1.0000
  H   H181      1.0  0.99580  0.46827  0.30246  1.0000
  H   H182      1.0  0.11401  0.05218  0.45394  1.0000
  C   C112      1.0  0.18689  0.05122  0.47830  1.0000
  C   C113      1.0  0.00268  0.35281  0.46463  1.0000
  H   H183      1.0  0.21167  0.06860  0.45918  1.0000
  N   N9        1.0  0.01506  0.34717  0.44667  1.0000
  C   C114      1.0  0.99777  0.32183  0.47639  1.0000
  H   H184      1.0  0.01155  0.35634  0.41524  1.0000
  Fe  Fe22      1.0  0.99632  0.29603  0.42861  1.0000
  H   H185      1.0  0.19473  0.00518  0.40241  1.0000
  C   C115      1.0  0.12063  0.00308  0.42451  1.0000
  C   C116      1.0  0.18688  0.02128  0.41478  1.0000
  H   H186      1.0  0.19447  0.02460  0.42977  1.0000
  H   H187      1.0  0.09834  0.07033  0.48350  1.0000
  H   H188      1.0  0.00545  0.34049  0.41366  1.0000
  H   H189      1.0  0.17594  0.01002  0.42421  1.0000
  C   C117      1.0  0.07011  0.99568  0.44457  1.0000
  C   C118      1.0  0.03115  0.33016  0.44663  1.0000
  H   H190      1.0  0.01533  0.37521  0.43990  1.0000
  H   H191      1.0  0.01697  0.48647  0.23968  1.0000
  H   H192      1.0  0.99270  0.34033  0.44252  1.0000
  H   H193      1.0  0.01032  0.33220  0.44741  1.0000
  H   H194      1.0  0.01992  0.34678  0.46136  1.0000
  S   S42       1.0  0.99299  0.38695  0.46949  1.0000
  H   H195      1.0  0.01248  0.47402  0.29318  1.0000
  C   C119      1.0  0.01274  0.35912  0.44095  1.0000
  C   C120      1.0  0.02676  0.25579  0.46546  1.0000
  H   H196      1.0  0.14818  0.02453  0.47978  1.0000
  H   H197      1.0  0.16681  0.00493  0.44496  1.0000
  S   S43       1.0  0.99311  0.09900  0.45096  1.0000
  H   H198      1.0  0.00447  0.24390  0.45768  1.0000
  H   H199      1.0  0.99639  0.08774  0.42307  1.0000
  H   H200      1.0  0.23528  0.00270  0.42668  1.0000
  C   C121      1.0  0.00861  0.34109  0.44345  1.0000
  C   C122      1.0  0.22386  0.00170  0.46526  1.0000
  C   C123      1.0  0.20633  0.01021  0.43475  1.0000
  H   H201      1.0  0.02881  0.34410  0.43319  1.0000
  H   H202      1.0  0.18870  0.01417  0.47316  1.0000
  C   C124      1.0  0.00980  0.17424  0.41562  1.0000
  C   C125      1.0  0.15284  0.05427  0.46837  1.0000
  C   C126      1.0  0.00461  0.09089  0.44390  1.0000
  C   C127      1.0  0.19813  0.00207  0.41925  1.0000
  H   H203      1.0  0.00575  0.07764  0.45816  1.0000
  H   H204      1.0  0.21430  0.01313  0.41357  1.0000
  C   C128      1.0  0.05985  0.02679  0.48176  1.0000
  H   H205      1.0  0.18117  0.07845  0.45487  1.0000
  H   H206      1.0  0.16044  0.05573  0.46297  1.0000
  H   H207      1.0  0.23103  0.99348  0.39381  1.0000
  H   H208      1.0  0.18679  0.02085  0.40643  1.0000
  H   H209      1.0  0.04407  0.06113  0.46410  1.0000
  H   H210      1.0  0.07444  0.00215  0.43922  1.0000
  C   C129      1.0  0.19498  0.00878  0.46814  1.0000
  H   H211      1.0  0.08145  0.99232  0.45476  1.0000
  C   C130      1.0  0.13977  0.99631  0.44394  1.0000
  H   H212      1.0  0.12347  0.07487  0.44420  1.0000
  H   H213      1.0  0.10923  0.05897  0.47079  1.0000
  C   C131      1.0  0.01676  0.46454  0.24444  1.0000
  H   H214      1.0  0.17415  0.02186  0.42990  1.0000
  H   H215      1.0  0.03309  0.99494  0.46973  1.0000
  H   H216      1.0  0.02977  0.32794  0.45571  1.0000
  C   C132      1.0  0.05855  0.05843  0.46999  1.0000
  H   H217      1.0  0.01780  0.47981  0.31620  1.0000
  H   H218      1.0  0.05788  0.02913  0.47355  1.0000
  C   C133      1.0  0.99712  0.18029  0.46883  1.0000
  C   C134      1.0  0.00916  0.48374  0.31608  1.0000
  S   S44       1.0  0.12825  0.04141  0.46826  1.0000
  H   H219      1.0  0.02393  0.25563  0.44365  1.0000
  C   C135      1.0  0.08622  0.07054  0.44564  1.0000
  H   H220      1.0  0.20024  0.07541  0.45275  1.0000
  H   H221      1.0  0.02756  0.36497  0.43869  1.0000
  C   C136      1.0  0.18446  0.07110  0.47142  1.0000
  H   H222      1.0  0.09268  0.00646  0.44996  1.0000
  H   H223      1.0  0.10123  0.04200  0.46773  1.0000
  C   C137      1.0  0.23434  0.00077  0.41951  1.0000
  H   H224      1.0  0.99700  0.12088  0.47892  1.0000
  C   C138      1.0  0.00226  0.26273  0.47297  1.0000
  N   N10       1.0  0.19278  0.06043  0.47295  1.0000
  H   H225      1.0  0.20070  0.99143  0.40800  1.0000
  H   H226      1.0  0.10616  0.02109  0.43140  1.0000
  C   C139      1.0  0.03338  0.10662  0.48286  1.0000
  H   H227      1.0  0.15693  0.99368  0.45856  1.0000
  H   H228      1.0  0.99942  0.46419  0.31572  1.0000
  H   H229      1.0  0.99457  0.48841  0.39135  1.0000
  H   H230      1.0  0.07749  0.07437  0.44594  1.0000
  H   H231      1.0  0.01656  0.17782  0.41062  1.0000
  C   C140      1.0  0.01297  0.34546  0.45898  1.0000
  S   S45       1.0  0.00142  0.28206  0.41974  1.0000
  H   H232      1.0  0.02767  0.32497  0.44367  1.0000
  H   H233      1.0  0.99646  0.35680  0.45975  1.0000
  H   H234      1.0  0.02882  0.26116  0.45724  1.0000
  C   C141      1.0  0.99617  0.34479  0.44636  1.0000
  N   N11       1.0  0.00686  0.48431  0.30518  1.0000
  C   C142      1.0  0.11804  0.07262  0.45233  1.0000
  S   S46       1.0  0.99622  0.15004  0.41532  1.0000
  C   C143      1.0  0.13636  0.04772  0.47204  1.0000
  C   C144      1.0  0.19403  0.03965  0.48124  1.0000
  H   H235      1.0  0.02752  0.30742  0.46597  1.0000
  H   H236      1.0  0.01845  0.36551  0.45199  1.0000
  H   H237      1.0  0.18939  0.01256  0.43586  1.0000
  H   H238      1.0  0.09120  0.04733  0.45930  1.0000
  H   H239      1.0  0.11110  0.01056  0.44205  1.0000
  C   C145      1.0  0.20587  0.06747  0.45506  1.0000
  H   H240      1.0  0.00484  0.35922  0.46724  1.0000
  S   S47       1.0  0.06710  0.05129  0.46012  1.0000
  H   H241      1.0  0.09250  0.02062  0.44813  1.0000
  H   H242      1.0  0.20587  0.99283  0.46983  1.0000
  C   C146      1.0  0.09386  0.01404  0.44365  1.0000
  N   N12       1.0  0.05844  0.08059  0.40384  1.0000
  C   C147      1.0  0.06054  0.08045  0.41473  1.0000
  C   C148      1.0  0.05932  0.06881  0.40358  1.0000
  C   C149      1.0  0.04710  0.08740  0.40336  1.0000
  C   C150      1.0  0.06672  0.08575  0.39481  1.0000
  C   C151      1.0  0.05951  0.09177  0.41707  1.0000
  C   C152      1.0  0.07075  0.06124  0.40301  1.0000
  C   C153      1.0  0.04103  0.08484  0.39614  1.0000
  C   C154      1.0  0.06666  0.08577  0.38296  1.0000
  H   H243      1.0  0.05479  0.07630  0.42161  1.0000
  H   H244      1.0  0.06881  0.07566  0.41561  1.0000
  H   H245      1.0  0.05660  0.06817  0.39650  1.0000
  H   H246      1.0  0.05378  0.06494  0.41089  1.0000
  H   H247      1.0  0.04167  0.08653  0.41170  1.0000
  H   H248      1.0  0.04711  0.09632  0.40061  1.0000
  H   H249      1.0  0.06557  0.09454  0.39493  1.0000
  H   H250      1.0  0.07509  0.08208  0.39618  1.0000
  H   H251      1.0  0.05142  0.09725  0.41665  1.0000
  H   H252      1.0  0.06052  0.09050  0.42558  1.0000
  H   H253      1.0  0.06596  0.09593  0.41154  1.0000
  H   H254      1.0  0.07398  0.06012  0.41034  1.0000
  H   H255      1.0  0.07026  0.05294  0.40269  1.0000
  H   H256      1.0  0.07662  0.06410  0.39548  1.0000
  H   H257      1.0  0.03859  0.07684  0.39990  1.0000
  H   H258      1.0  0.04573  0.08487  0.38764  1.0000
  H   H259      1.0  0.03340  0.09120  0.39569  1.0000
  H   H260      1.0  0.06078  0.09305  0.37957  1.0000
  H   H261      1.0  0.06495  0.07821  0.38215  1.0000
  H   H262      1.0  0.07489  0.08604  0.37773  1.0000
  H   H263      1.0  0.19068  0.00610  0.46346  1.0000
  H   H264      1.0  0.09581  0.05716  0.47470  1.0000
  C   C155      1.0  0.00042  0.31665  0.46753  1.0000
  H   H265      1.0  0.00072  0.26858  0.45126  1.0000
  C   C156      1.0  0.09996  0.04531  0.45923  1.0000
  S   S48       1.0  0.99009  0.47049  0.35844  1.0000
  S   S49       1.0  0.99042  0.13138  0.44474  1.0000
  H   H266      1.0  0.02242  0.46799  0.24669  1.0000
  N   N13       1.0  0.00745  0.25627  0.46410  1.0000
  H   H267      1.0  0.20905  0.00133  0.43472  1.0000
  C   C157      1.0  0.99536  0.36582  0.41984  1.0000
  C   C158      1.0  0.19483  0.99895  0.41016  1.0000
  S   S50       1.0  0.99113  0.40041  0.43748  1.0000
  H   H268      1.0  0.99965  0.17305  0.45111  1.0000
  H   H269      1.0  0.00528  0.26085  0.41458  1.0000
  H   H270      1.0  0.06133  0.99930  0.44504  1.0000
  C   C159      1.0  0.10643  0.07422  0.45075  1.0000
  C   C160      1.0  0.10545  0.01273  0.43640  1.0000
  H   H271      1.0  0.12068  0.01770  0.41074  1.0000
  N   N14       1.0  0.10859  0.00453  0.42915  1.0000
  H   H272      1.0  0.01172  0.25324  0.44181  1.0000
  H   H273      1.0  0.11624  0.99632  0.46346  1.0000
  H   H274      1.0  0.16947  0.07714  0.46545  1.0000
  H   H275      1.0  0.00407  0.36310  0.44299  1.0000
  H   H276      1.0  0.23152  0.06227  0.45115  1.0000
  C   C161      1.0  0.13078  0.00005  0.45181  1.0000
  C   C162      1.0  0.99597  0.27039  0.42662  1.0000
  C   C163      1.0  0.99022  0.26852  0.47355  1.0000
  H   H277      1.0  0.10377  0.03854  0.45480  1.0000
  C   C164      1.0  0.23194  0.99551  0.40098  1.0000
  S   S51       1.0  0.23146  0.04291  0.42075  1.0000
  H   H278      1.0  0.99187  0.23621  0.47423  1.0000
  H   H279      1.0  0.18684  0.99664  0.41329  1.0000
  C   C165      1.0  0.01539  0.25935  0.44312  1.0000
  H   H280      1.0  0.09947  0.99613  0.41419  1.0000
  H   H281      1.0  0.04005  0.32804  0.44342  1.0000
  C   C166      1.0  0.13328  0.05027  0.48239  1.0000
  H   H282      1.0  0.04154  0.10193  0.48412  1.0000
  C   C167      1.0  0.20675  0.01818  0.41098  1.0000
  C   C168      1.0  0.10217  0.00907  0.42030  1.0000
  H   H283      1.0  0.20630  0.02676  0.41146  1.0000
  N   N15       1.0  0.10036  0.06547  0.45767  1.0000
  H   H284      1.0  0.01900  0.16833  0.44363  1.0000
  H   H285      1.0  0.16943  0.02340  0.41790  1.0000
  C   C169      1.0  0.19623  0.01573  0.42980  1.0000
  Fe  Fe23      1.0  0.00207  0.30691  0.44342  1.0000
  H   H286      1.0  0.10236  0.00811  0.40384  1.0000
  H   H287      1.0  0.09336  0.00998  0.42395  1.0000
  S   S52       1.0  0.99391  0.29291  0.44692  1.0000
  H   H288      1.0  0.22972  0.00692  0.46064  1.0000
  C   C170      1.0  0.99186  0.18345  0.48001  1.0000
  C   C171      1.0  0.00875  0.26428  0.45314  1.0000
  H   H289      1.0  0.20202  0.02315  0.39489  1.0000
  C   C172      1.0  0.99021  0.12774  0.48013  1.0000
  C   C173      1.0  0.00053  0.24879  0.46408  1.0000
  H   H290      1.0  0.98801  0.19236  0.47853  1.0000
  H   H291      1.0  0.19517  0.05685  0.45699  1.0000
  C   C174      1.0  0.99894  0.16071  0.41933  1.0000
  H   H292      1.0  0.19456  0.99419  0.48090  1.0000
  S   S53       1.0  0.15885  0.06063  0.48381  1.0000
  C   C175      1.0  0.02570  0.48823  0.29452  1.0000
  H   H293      1.0  0.11309  0.99848  0.40896  1.0000
  H   H294      1.0  0.00683  0.46845  0.32821  1.0000
  C   C176      1.0  0.10090  0.06309  0.46958  1.0000
  H   H295      1.0  0.20629  0.05074  0.46337  1.0000
  H   H296      1.0  0.99417  0.31668  0.46366  1.0000
  H   H297      1.0  0.08357  0.06407  0.46307  1.0000
  H   H298      1.0  0.01606  0.17848  0.45139  1.0000
  C   C177      1.0  0.07276  0.99249  0.45606  1.0000
  H   H299      1.0  0.21068  0.06497  0.44729  1.0000
  H   H300      1.0  0.18192  0.05056  0.47296  1.0000
  C   C178      1.0  0.00753  0.16556  0.41284  1.0000
  H   H301      1.0  0.98951  0.32602  0.47914  1.0000
  H   H302      1.0  0.21310  0.01445  0.43052  1.0000
  C   C179      1.0  0.04741  0.06200  0.47042  1.0000
  C   C180      1.0  0.19988  0.05836  0.46211  1.0000
  H   H303      1.0  0.02233  0.03784  0.47422  1.0000
  C   C181      1.0  0.06289  0.05995  0.47797  1.0000
  C   C182      1.0  0.21596  0.00702  0.47450  1.0000
  H   H304      1.0  0.99312  0.35362  0.44304  1.0000
  H   H305      1.0  0.00515  0.23385  0.47648  1.0000
  C   C183      1.0  0.22680  0.03246  0.47631  1.0000
  H   H306      1.0  0.02187  0.24362  0.46050  1.0000
  S   S54       1.0  0.99170  0.20713  0.45024  1.0000
  C   C184      1.0  0.02850  0.99050  0.45715  1.0000
  H   H307      1.0  0.98772  0.27381  0.47963  1.0000
  C   C185      1.0  0.10540  0.05513  0.45336  1.0000
  S   S55       1.0  0.00643  0.18946  0.42778  1.0000
  H   H308      1.0  0.19312  0.99841  0.42715  1.0000
  C   C186      1.0  0.98948  0.39640  0.47797  1.0000
  H   H309      1.0  0.08756  0.01664  0.43874  1.0000
  H   H310      1.0  0.08824  0.07659  0.47561  1.0000
  H   H311      1.0  0.11824  0.07832  0.45721  1.0000
  S   S56       1.0  0.99208  0.45551  0.24790  1.0000
  S   S57       1.0  0.00581  0.30908  0.42505  1.0000
  H   H312      1.0  0.00293  0.25744  0.48123  1.0000
  C   C187      1.0  0.00470  0.16729  0.45680  1.0000
  C   C188      1.0  0.10592  0.99381  0.43622  1.0000
  S   S58       1.0  0.23535  0.04011  0.44515  1.0000
  C   C189      1.0  0.01612  0.16975  0.45213  1.0000
  C   C190      1.0  0.01057  0.47314  0.30227  1.0000
  H   H313      1.0  0.19877  0.03656  0.47377  1.0000
  H   H314      1.0  0.10574  0.05674  0.44442  1.0000
  H   H315      1.0  0.00561  0.10249  0.42835  1.0000
  S   S59       1.0  0.99972  0.37675  0.42146  1.0000
  H   H316      1.0  0.03184  0.06854  0.48000  1.0000
  H   H317      1.0  0.00661  0.26929  0.47195  1.0000
  H   H318      1.0  0.01554  0.26608  0.43562  1.0000
  H   H319      1.0  0.09714  0.99407  0.43754  1.0000
  C   C191      1.0  0.14597  0.01639  0.48213  1.0000
  H   H320      1.0  0.17750  0.06524  0.46067  1.0000
  C   C192      1.0  0.00326  0.17847  0.42467  1.0000
  Fe  Fe24      1.0  0.98733  0.48277  0.36873  1.0000
  C   C193      1.0  0.00262  0.46536  0.30676  1.0000
  Fe  Fe25      1.0  0.99260  0.20214  0.43472  1.0000
  H   H321      1.0  0.06846  0.99954  0.46011  1.0000
  H   H322      1.0  0.06762  0.02919  0.48057  1.0000
  H   H323      1.0  0.99151  0.15491  0.47227  1.0000
  C   C194      1.0  0.17797  0.07286  0.46255  1.0000
  C   C195      1.0  0.17062  0.00111  0.45213  1.0000
  H   H324      1.0  0.17560  0.99130  0.43548  1.0000
  H   H325      1.0  0.23535  0.07376  0.45239  1.0000
  H   H326      1.0  0.02411  0.26076  0.47182  1.0000
  H   H327      1.0  0.22848  0.02430  0.46352  1.0000
  C   C196      1.0  0.98933  0.16393  0.47184  1.0000
  H   H328      1.0  0.20061  0.01362  0.46202  1.0000
  H   H329      1.0  0.02878  0.48022  0.29204  1.0000
  C   C197      1.0  0.02378  0.03653  0.48257  1.0000
  H   H330      1.0  0.20433  0.01098  0.44341  1.0000
  H   H331      1.0  0.13348  0.01128  0.41434  1.0000
  H   H332      1.0  0.99899  0.24374  0.42523  1.0000
  C   C198      1.0  0.20092  0.99851  0.47531  1.0000
  C   C199      1.0  0.99789  0.24037  0.47491  1.0000
  H   H333      1.0  0.12502  0.99956  0.43130  1.0000
  H   H334      1.0  0.18840  0.07820  0.46922  1.0000
  C   C200      1.0  0.00264  0.47725  0.32639  1.0000
  H   H335      1.0  0.15286  0.01044  0.47836  1.0000
  C   C201      1.0  0.14996  0.05634  0.47893  1.0000
  H   H336      1.0  0.22667  0.06982  0.47270  1.0000
  C   C202      1.0  0.98827  0.09107  0.42108  1.0000
  H   H337      1.0  0.04735  0.01394  0.48141  1.0000
  H   H338      1.0  0.99273  0.25362  0.46188  1.0000
  C   C203      1.0  0.00588  0.32188  0.48141  1.0000
  C   C204      1.0  0.99454  0.17372  0.43111  1.0000
  H   H339      1.0  0.16927  0.00755  0.45679  1.0000
  N   N16       1.0  0.99950  0.16832  0.46851  1.0000
  H   H340      1.0  0.16432  0.99223  0.46830  1.0000
  C   C205      1.0  0.19983  0.06107  0.48003  1.0000
  H   H341      1.0  0.20306  0.06867  0.47673  1.0000
  H   H342      1.0  0.99218  0.18553  0.46284  1.0000
  C   C206      1.0  0.23238  0.02524  0.46938  1.0000
  H   H343      1.0  0.00001  0.48285  0.24187  1.0000
  H   H344      1.0  0.98816  0.18553  0.40813  1.0000
  C   C207      1.0  0.98853  0.27033  0.43666  1.0000
  H   H345      1.0  0.02900  0.10119  0.48141  1.0000
  H   H346      1.0  0.05323  0.99078  0.46790  1.0000
  C   C208      1.0  0.03584  0.03598  0.48162  1.0000
  C   C209      1.0  0.01659  0.31667  0.47763  1.0000
  H   H347      1.0  0.22110  0.00820  0.47939  1.0000
  H   H348      1.0  0.00471  0.18338  0.46600  1.0000
  C   C210      1.0  0.04052  0.06632  0.47933  1.0000
  H   H349      1.0  0.03718  0.04445  0.47795  1.0000
  C   C211      1.0  0.22863  0.98918  0.41142  1.0000
  H   H350      1.0  0.02289  0.31670  0.48148  1.0000
  C   C212      1.0  0.23201  0.07136  0.47710  1.0000
  C   C213      1.0  0.99252  0.16471  0.42858  1.0000
  H   H351      1.0  0.02870  0.48793  0.30178  1.0000
  C   C214      1.0  0.99592  0.25118  0.42834  1.0000
  H   H352      1.0  0.00526  0.15887  0.45581  1.0000
  H   H353      1.0  0.01193  0.15385  0.47265  1.0000
  H   H354      1.0  0.98942  0.17689  0.43809  1.0000
  H   H355      1.0  0.21971  0.00083  0.45931  1.0000
  C   C215      1.0  0.98849  0.34807  0.41766  1.0000
  Fe  Fe26      1.0  0.98751  0.38640  0.43319  1.0000
  C   C216      1.0  0.98879  0.25108  0.43860  1.0000
  H   H356      1.0  0.17842  0.07188  0.47926  1.0000
  H   H357      1.0  0.20713  0.05422  0.47986  1.0000
  H   H358      1.0  0.99429  0.24423  0.48209  1.0000
  H   H359      1.0  0.98873  0.27390  0.46561  1.0000
  H   H360      1.0  0.98861  0.09905  0.41511  1.0000
  C   C217      1.0  0.22984  0.99180  0.42069  1.0000
  C   C218      1.0  0.16541  0.99159  0.45968  1.0000
  H   H361      1.0  0.22878  0.99369  0.46862  1.0000
  S   S60       1.0  0.98669  0.31985  0.44419  1.0000
  H   H362      1.0  0.98699  0.08518  0.41714  1.0000
  H   H363      1.0  0.07258  0.98863  0.44052  1.0000
  Fe  Fe27      1.0  0.04683  0.06394  0.51229  1.0000
  S   S61       1.0  0.03980  0.05836  0.53016  1.0000
  S   S62       1.0  0.03644  0.07039  0.49984  1.0000
  Fe  Fe28      1.0  0.06989  0.05915  0.51551  1.0000
  S   S63       1.0  0.06475  0.05331  0.53373  1.0000
  S   S64       1.0  0.08673  0.06083  0.50593  1.0000
  Fe  Fe29      1.0  0.05457  0.04446  0.52952  1.0000
  Fe  Fe30      1.0  0.05055  0.06778  0.53253  1.0000
  S   S65       1.0  0.06070  0.04929  0.51138  1.0000
  S   S66       1.0  0.05657  0.07431  0.51466  1.0000
  Fe  Fe31      1.0  0.15678  0.05281  0.50175  1.0000
  S   S67       1.0  0.14588  0.06034  0.51567  1.0000
  H   H364      1.0  0.02074  0.08390  0.51772  1.0000
  Fe  Fe32      1.0  0.16521  0.03164  0.51647  1.0000
  S   S68       1.0  0.15505  0.03707  0.53174  1.0000
  H   H365      1.0  0.01372  0.32782  0.52126  1.0000
  Fe  Fe33      1.0  0.14171  0.04374  0.52243  1.0000
  S   S69       1.0  0.12505  0.04048  0.53104  1.0000
  Fe  Fe34      1.0  0.16019  0.05302  0.52370  1.0000
  S   S70       1.0  0.16493  0.06151  0.53402  1.0000
  S   S71       1.0  0.15153  0.03675  0.50782  1.0000
  S   S72       1.0  0.17140  0.04702  0.50915  1.0000
  Fe  Fe35      1.0  0.22667  0.05177  0.52543  1.0000
  S   S73       1.0  0.22559  0.03695  0.52083  1.0000
  S   S74       1.0  0.21271  0.06037  0.53663  1.0000
  H   H366      1.0  0.03052  0.01938  0.50202  1.0000
  H   H367      1.0  0.20678  0.01818  0.49548  1.0000
  H   H368      1.0  0.20741  0.00270  0.52289  1.0000
  C   C219      1.0  0.06110  0.00452  0.51348  1.0000
  C   C220      1.0  0.99232  0.47735  0.64289  1.0000
  H   H369      1.0  0.11095  0.03710  0.50114  1.0000
  H   H370      1.0  0.00638  0.48701  0.61666  1.0000
  S   S75       1.0  0.98710  0.25689  0.50238  1.0000
  C   C221      1.0  0.05193  0.00910  0.53116  1.0000
  H   H371      1.0  0.07139  0.06912  0.55978  1.0000
  C   C222      1.0  0.07691  0.01867  0.55299  1.0000
  H   H372      1.0  0.05220  0.09808  0.50471  1.0000
  C   C223      1.0  0.00638  0.33345  0.52484  1.0000
  H   H373      1.0  0.05152  0.04161  0.48748  1.0000
  H   H374      1.0  0.05022  0.99543  0.52590  1.0000
  C   C224      1.0  0.07118  0.09008  0.54641  1.0000
  H   H375      1.0  0.99834  0.46546  0.62605  1.0000
  H   H376      1.0  0.13963  0.99650  0.48677  1.0000
  C   C225      1.0  0.21263  0.01464  0.54761  1.0000
  C   C226      1.0  0.02247  0.10531  0.55179  1.0000
  C   C227      1.0  0.00050  0.43284  0.50280  1.0000
  H   H377      1.0  0.02425  0.03774  0.50227  1.0000
  C   C228      1.0  0.06378  0.02029  0.51809  1.0000
  H   H378      1.0  0.07696  0.02574  0.54584  1.0000
  H   H379      1.0  0.07392  0.05509  0.55917  1.0000
  H   H380      1.0  0.09382  0.02372  0.53277  1.0000
  C   C229      1.0  0.05660  0.01825  0.52826  1.0000
  H   H381      1.0  0.12213  0.00879  0.51679  1.0000
  H   H382      1.0  0.00680  0.46361  0.64227  1.0000
  H   H383      1.0  0.99669  0.46213  0.65460  1.0000
  C   C230      1.0  0.00085  0.46819  0.64823  1.0000
  C   C231      1.0  0.01431  0.36678  0.51506  1.0000
  C   C232      1.0  0.07359  0.06355  0.55403  1.0000
  H   H384      1.0  0.07629  0.99521  0.52958  1.0000
  C   C233      1.0  0.07851  0.07627  0.53008  1.0000
  H   H385      1.0  0.00037  0.33910  0.51011  1.0000
  H   H386      1.0  0.04452  0.11105  0.49993  1.0000
  H   H387      1.0  0.14813  0.00375  0.49698  1.0000
  C   C234      1.0  0.07630  0.99846  0.54547  1.0000
  H   H388      1.0  0.09709  0.99184  0.53257  1.0000
  H   H389      1.0  0.06526  0.08491  0.54822  1.0000
  H   H390      1.0  0.03115  0.11868  0.49204  1.0000
  H   H391      1.0  0.00242  0.45206  0.49257  1.0000
  C   C235      1.0  0.08325  0.08426  0.54324  1.0000
  H   H392      1.0  0.10363  0.99868  0.53783  1.0000
  H   H393      1.0  0.00692  0.37333  0.51400  1.0000
  H   H394      1.0  0.01837  0.12884  0.50408  1.0000
  S   S76       1.0  0.99348  0.13734  0.52497  1.0000
  H   H395      1.0  0.09860  0.08100  0.52525  1.0000
  H   H396      1.0  0.00104  0.46124  0.51229  1.0000
  H   H397      1.0  0.06870  0.00496  0.54559  1.0000
  C   C236      1.0  0.06600  0.01346  0.51073  1.0000
  S   S77       1.0  0.98720  0.45858  0.60572  1.0000
  C   C237      1.0  0.22708  0.08204  0.54936  1.0000
  H   H398      1.0  0.04281  0.10555  0.51459  1.0000
  C   C238      1.0  0.19433  0.06109  0.49219  1.0000
  H   H399      1.0  0.99080  0.35450  0.55167  1.0000
  H   H400      1.0  0.01851  0.04360  0.48608  1.0000
  H   H401      1.0  0.06983  0.07742  0.53418  1.0000
  H   H402      1.0  0.07780  0.02156  0.55990  1.0000
  H   H403      1.0  0.12565  0.04892  0.48778  1.0000
  C   C239      1.0  0.07579  0.99099  0.53833  1.0000
  H   H404      1.0  0.99543  0.43678  0.49658  1.0000
  C   C240      1.0  0.17639  0.99623  0.51329  1.0000
  C   C241      1.0  0.17455  0.98992  0.50713  1.0000
  H   H405      1.0  0.01634  0.43252  0.49097  1.0000
  C   C242      1.0  0.03890  0.01966  0.49715  1.0000
  N   N17       1.0  0.00116  0.44114  0.50861  1.0000
  H   H406      1.0  0.01514  0.43643  0.52952  1.0000
  C   C243      1.0  0.00195  0.34301  0.51593  1.0000
  H   H407      1.0  0.99797  0.18199  0.48495  1.0000
  H   H408      1.0  0.98985  0.16229  0.52284  1.0000
  S   S78       1.0  0.17694  0.01537  0.51755  1.0000
  H   H409      1.0  0.00889  0.08515  0.51310  1.0000
  C   C244      1.0  0.00389  0.48063  0.62397  1.0000
  H   H410      1.0  0.03912  0.09148  0.50142  1.0000
  C   C245      1.0  0.00293  0.46157  0.50339  1.0000
  S   S79       1.0  0.99014  0.20165  0.51410  1.0000
  C   C246      1.0  0.14350  0.01236  0.49479  1.0000
  H   H411      1.0  0.01733  0.34045  0.49846  1.0000
  C   C247      1.0  0.01397  0.08997  0.51445  1.0000
  H   H412      1.0  0.03724  0.02711  0.51535  1.0000
  H   H413      1.0  0.08023  0.06873  0.52683  1.0000
  H   H414      1.0  0.18689  0.06768  0.49314  1.0000
  H   H415      1.0  0.13089  0.03041  0.50022  1.0000
  C   C248      1.0  0.09644  0.99501  0.53987  1.0000
  N   N18       1.0  0.08570  0.07464  0.53789  1.0000
  H   H416      1.0  0.00874  0.09674  0.53840  1.0000
  S   S80       1.0  0.05372  0.02681  0.53756  1.0000
  H   H417      1.0  0.03269  0.04740  0.49645  1.0000
  H   H418      1.0  0.03022  0.12214  0.50989  1.0000
  C   C249      1.0  0.17845  0.06091  0.53419  1.0000
  C   C250      1.0  0.18737  0.05727  0.52616  1.0000
  C   C251      1.0  0.19797  0.05711  0.52673  1.0000
  C   C252      1.0  0.19965  0.06051  0.53537  1.0000
  C   C253      1.0  0.19072  0.06418  0.54328  1.0000
  C   C254      1.0  0.18021  0.06440  0.54268  1.0000
  H   H419      1.0  0.18606  0.05478  0.51945  1.0000
  H   H420      1.0  0.20481  0.05450  0.52043  1.0000
  H   H421      1.0  0.19191  0.06688  0.54993  1.0000
  H   H422      1.0  0.17337  0.06730  0.54886  1.0000
  C   C255      1.0  0.07955  0.08595  0.52005  1.0000
  C   C256      1.0  0.02686  0.11234  0.49239  1.0000
  H   H423      1.0  0.98674  0.48140  0.64952  1.0000
  H   H424      1.0  0.00497  0.47078  0.61267  1.0000
  C   C257      1.0  0.02723  0.35220  0.49574  1.0000
  H   H425      1.0  0.02963  0.04055  0.51697  1.0000
  C   C258      1.0  0.08629  0.00872  0.55082  1.0000
  H   H426      1.0  0.06990  0.09313  0.55396  1.0000
  H   H427      1.0  0.99155  0.47768  0.61716  1.0000
  C   C259      1.0  0.19913  0.02858  0.51685  1.0000
  C   C260      1.0  0.04407  0.10356  0.50648  1.0000
  H   H428      1.0  0.20351  0.03439  0.52855  1.0000
  Fe  Fe36      1.0  0.98966  0.47408  0.59310  1.0000
  H   H429      1.0  0.16853  0.01015  0.48519  1.0000
  H   H430      1.0  0.08559  0.00805  0.52461  1.0000
  C   C261      1.0  0.08479  0.06410  0.54638  1.0000
  S   S81       1.0  0.00546  0.47932  0.58894  1.0000
  C   C262      1.0  0.12630  0.02544  0.49828  1.0000
  C   C263      1.0  0.08520  0.01198  0.53133  1.0000
  H   H431      1.0  0.07267  0.08758  0.51603  1.0000
  H   H432      1.0  0.99775  0.15116  0.48913  1.0000
  H   H433      1.0  0.21470  0.01607  0.55475  1.0000
  C   C264      1.0  0.11442  0.02833  0.50442  1.0000
  C   C265      1.0  0.09751  0.05458  0.51266  1.0000
  C   C266      1.0  0.10770  0.05710  0.50779  1.0000
  C   C267      1.0  0.11627  0.05267  0.51331  1.0000
  C   C268      1.0  0.11467  0.04570  0.52369  1.0000
  C   C269      1.0  0.10453  0.04304  0.52849  1.0000
  C   C270      1.0  0.09597  0.04744  0.52297  1.0000
  H   H434      1.0  0.10896  0.06261  0.49981  1.0000
  H   H435      1.0  0.12404  0.05482  0.50964  1.0000
  H   H436      1.0  0.10329  0.03764  0.53653  1.0000
  H   H437      1.0  0.08818  0.04538  0.52673  1.0000
  H   H438      1.0  0.01599  0.42057  0.50237  1.0000
  H   H439      1.0  0.12393  0.01219  0.48808  1.0000
  C   C271      1.0  0.99220  0.39299  0.48827  1.0000
  H   H440      1.0  0.04428  0.01577  0.50307  1.0000
  H   H441      1.0  0.17114  0.02146  0.49643  1.0000
  H   H442      1.0  0.12743  0.99153  0.49236  1.0000
  H   H443      1.0  0.02330  0.36037  0.49151  1.0000
  C   C272      1.0  0.13073  0.00860  0.51248  1.0000
  H   H444      1.0  0.01685  0.43196  0.51199  1.0000
  C   C273      1.0  0.13562  0.01394  0.51864  1.0000
  H   H445      1.0  0.06786  0.02695  0.51598  1.0000
  C   C274      1.0  0.17208  0.01266  0.49942  1.0000
  H   H446      1.0  0.08662  0.08172  0.55076  1.0000
  H   H447      1.0  0.23417  0.05635  0.54758  1.0000
  H   H448      1.0  0.01149  0.47543  0.62641  1.0000
  H   H449      1.0  0.12634  0.02868  0.48942  1.0000
  C   C275      1.0  0.02150  0.12266  0.51097  1.0000
  C   C276      1.0  0.20320  0.02630  0.52744  1.0000
  H   H450      1.0  0.08738  0.09080  0.53762  1.0000
  C   C277      1.0  0.09392  0.01889  0.52693  1.0000
  H   H451      1.0  0.17699  0.01430  0.55086  1.0000
  C   C278      1.0  0.98701  0.43194  0.55670  1.0000
  H   H452      1.0  0.19373  0.00311  0.49497  1.0000
  H   H453      1.0  0.13468  0.99975  0.51393  1.0000
  H   H454      1.0  0.23277  0.06476  0.48454  1.0000
  H   H455      1.0  0.03214  0.34802  0.48899  1.0000
  H   H456      1.0  0.98954  0.45086  0.51990  1.0000
  C   C279      1.0  0.99952  0.35750  0.49364  1.0000
  H   H457      1.0  0.99129  0.27854  0.49693  1.0000
  H   H458      1.0  0.19699  0.02128  0.51599  1.0000
  H   H459      1.0  0.19595  0.01619  0.55523  1.0000
  H   H460      1.0  0.09034  0.06240  0.55201  1.0000
  H   H461      1.0  0.18480  0.03583  0.53861  1.0000
  H   H462      1.0  0.21174  0.02180  0.52567  1.0000
  H   H463      1.0  0.18150  0.02720  0.53215  1.0000
  H   H464      1.0  0.20100  0.00788  0.50630  1.0000
  S   S82       1.0  0.99736  0.12784  0.49777  1.0000
  H   H465      1.0  0.02632  0.08287  0.53579  1.0000
  H   H466      1.0  0.08707  0.08386  0.51382  1.0000
  H   H467      1.0  0.20809  0.99330  0.53554  1.0000
  C   C280      1.0  0.20071  0.02037  0.54747  1.0000
  H   H468      1.0  0.19961  0.02899  0.54827  1.0000
  H   H469      1.0  0.19200  0.03556  0.51663  1.0000
  H   H470      1.0  0.16874  0.02789  0.54898  1.0000
  N   N19       1.0  0.00904  0.35115  0.50999  1.0000
  H   H471      1.0  0.22199  0.08944  0.54503  1.0000
  H   H472      1.0  0.03277  0.35317  0.50030  1.0000
  H   H473      1.0  0.10481  0.07495  0.54378  1.0000
  H   H474      1.0  0.11411  0.07065  0.53198  1.0000
  H   H475      1.0  0.99363  0.35212  0.49694  1.0000
  C   C281      1.0  0.01797  0.09755  0.50339  1.0000
  H   H476      1.0  0.06140  0.01775  0.48487  1.0000
  H   H477      1.0  0.04645  0.00742  0.53905  1.0000
  C   C282      1.0  0.20046  0.00714  0.48998  1.0000
  S   S83       1.0  0.98992  0.42960  0.54331  1.0000
  H   H478      1.0  0.08599  0.00262  0.55879  1.0000
  H   H479      1.0  0.99622  0.46735  0.49974  1.0000
  H   H480      1.0  0.22076  0.99032  0.48983  1.0000
  S   S84       1.0  0.00293  0.32909  0.49184  1.0000
  H   H481      1.0  0.17862  0.02465  0.55693  1.0000
  C   C283      1.0  0.17485  0.00763  0.50960  1.0000
  H   H482      1.0  0.01898  0.11710  0.49029  1.0000
  H   H483      1.0  0.13221  0.02289  0.51771  1.0000
  C   C284      1.0  0.17070  0.00626  0.49303  1.0000
  H   H484      1.0  0.19634  0.01526  0.48576  1.0000
  H   H485      1.0  0.00016  0.32848  0.52898  1.0000
  H   H486      1.0  0.99644  0.38464  0.49088  1.0000
  H   H487      1.0  0.03867  0.09768  0.55404  1.0000
  H   H488      1.0  0.98737  0.47311  0.64050  1.0000
  H   H489      1.0  0.00952  0.42218  0.49153  1.0000
  S   S85       1.0  0.00176  0.11508  0.54976  1.0000
  H   H490      1.0  0.00505  0.47138  0.65257  1.0000
  N   N20       1.0  0.13170  0.01343  0.50035  1.0000
  C   C285      1.0  0.01029  0.44205  0.52358  1.0000
  H   H491      1.0  0.11383  0.02738  0.51330  1.0000
  H   H492      1.0  0.98810  0.44353  0.64780  1.0000
  H   H493      1.0  0.00694  0.36723  0.49877  1.0000
  C   C286      1.0  0.09725  0.07325  0.53127  1.0000
  H   H494      1.0  0.00479  0.35571  0.52576  1.0000
  C   C287      1.0  0.19672  0.00888  0.53724  1.0000
  H   H495      1.0  0.08733  0.05700  0.54232  1.0000
  C   C288      1.0  0.01919  0.34522  0.50336  1.0000
  H   H496      1.0  0.13787  0.05622  0.49396  1.0000
  C   C289      1.0  0.18508  0.02707  0.53900  1.0000
  H   H497      1.0  0.01862  0.34941  0.52181  1.0000
  H   H498      1.0  0.09896  0.06706  0.52625  1.0000
  C   C290      1.0  0.03536  0.09768  0.50658  1.0000
  H   H499      1.0  0.22979  0.00813  0.50432  1.0000
  C   C291      1.0  0.98944  0.40037  0.49522  1.0000
  H   H500      1.0  0.02141  0.11142  0.55642  1.0000
  H   H501      1.0  0.19242  0.05304  0.49674  1.0000
  S   S86       1.0  0.04628  0.07974  0.54348  1.0000
  H   H502      1.0  0.20558  0.03092  0.50962  1.0000
  N   N21       1.0  0.08607  0.00353  0.54188  1.0000
  H   H503      1.0  0.01732  0.12579  0.51855  1.0000
  H   H504      1.0  0.21392  0.00560  0.54885  1.0000
  C   C292      1.0  0.03612  0.03596  0.51131  1.0000
  H   H505      1.0  0.21494  0.00420  0.53185  1.0000
  H   H506      1.0  0.05949  0.06584  0.49269  1.0000
  H   H507      1.0  0.99499  0.36437  0.50804  1.0000
  C   C293      1.0  0.14014  0.05444  0.48588  1.0000
  H   H508      1.0  0.02394  0.33872  0.50890  1.0000
  H   H509      1.0  0.07935  0.09361  0.52234  1.0000
  H   H510      1.0  0.22440  0.07468  0.54946  1.0000
  H   H511      1.0  0.10734  0.06095  0.54202  1.0000
  H   H512      1.0  0.06888  0.01649  0.55544  1.0000
  H   H513      1.0  0.00798  0.33632  0.53138  1.0000
  C   C294      1.0  0.01170  0.35527  0.51852  1.0000
  H   H514      1.0  0.00927  0.15309  0.49229  1.0000
  S   S87       1.0  0.98811  0.45384  0.69537  1.0000
  H   H515      1.0  0.13367  0.01020  0.52756  1.0000
  C   C295      1.0  0.01540  0.09710  0.54150  1.0000
  C   C296      1.0  0.03226  0.09751  0.55043  1.0000
  N   N22       1.0  0.19663  0.02041  0.53770  1.0000
  H   H516      1.0  0.22506  0.08285  0.55803  1.0000
  H   H517      1.0  0.99887  0.17820  0.51604  1.0000
  C   C297      1.0  0.02532  0.08923  0.54008  1.0000
  C   C298      1.0  0.03283  0.03851  0.50019  1.0000
  C   C299      1.0  0.13278  0.99588  0.49401  1.0000
  S   S88       1.0  0.99488  0.40695  0.52629  1.0000
  H   H518      1.0  0.10214  0.01375  0.52482  1.0000
  H   H519      1.0  0.19058  0.00915  0.53272  1.0000
  H   H520      1.0  0.01992  0.10662  0.52054  1.0000
  C   C300      1.0  0.99013  0.17960  0.51823  1.0000
  H   H521      1.0  0.14459  0.01232  0.51610  1.0000
  H   H522      1.0  0.06909  0.09752  0.54000  1.0000
  C   C301      1.0  0.98676  0.44242  0.55793  1.0000
  C   C302      1.0  0.17705  0.02309  0.54961  1.0000
  H   H523      1.0  0.99386  0.34724  0.51998  1.0000
  H   H524      1.0  0.05428  0.02972  0.49783  1.0000
  Fe  Fe37      1.0  0.23337  0.04461  0.50391  1.0000
  H   H525      1.0  0.07150  0.01514  0.50284  1.0000
  C   C303      1.0  0.03376  0.08943  0.54461  1.0000
  H   H526      1.0  0.02329  0.48575  0.59147  1.0000
  C   C304      1.0  0.00254  0.15733  0.48797  1.0000
  H   H527      1.0  0.19421  0.00395  0.54566  1.0000
  C   C305      1.0  0.10625  0.06978  0.53780  1.0000
  N   N23       1.0  0.03977  0.03147  0.49218  1.0000
  C   C306      1.0  0.05124  0.03275  0.49015  1.0000
  C   C307      1.0  0.05413  0.00226  0.52376  1.0000
  H   H528      1.0  0.06710  0.06520  0.54954  1.0000
  C   C308      1.0  0.00857  0.43525  0.51646  1.0000
  H   H529      1.0  0.03373  0.09253  0.51502  1.0000
  H   H530      1.0  0.03375  0.01170  0.48713  1.0000
  C   C309      1.0  0.01402  0.10523  0.54728  1.0000
  Fe  Fe38      1.0  0.98663  0.32771  0.50269  1.0000
  C   C310      1.0  0.12623  0.00732  0.49594  1.0000
  H   H531      1.0  0.00993  0.11335  0.51280  1.0000
  H   H532      1.0  0.99558  0.36517  0.48853  1.0000
  H   H533      1.0  0.04355  0.03884  0.51040  1.0000
  C   C311      1.0  0.01881  0.11148  0.51228  1.0000
  H   H534      1.0  0.14733  0.01717  0.49789  1.0000
  H   H535      1.0  0.01062  0.10258  0.50027  1.0000
  N   N24       1.0  0.02496  0.10489  0.50365  1.0000
  C   C312      1.0  0.98672  0.36693  0.53764  1.0000
  H   H536      1.0  0.02076  0.36778  0.50754  1.0000
  S   S89       1.0  0.99397  0.37568  0.53921  1.0000
  H   H537      1.0  0.02234  0.09200  0.49765  1.0000
  H   H538      1.0  0.07721  0.01784  0.53227  1.0000
  C   C313      1.0  0.20601  0.00948  0.49785  1.0000
  S   S90       1.0  0.23319  0.06018  0.50828  1.0000
  C   C314      1.0  0.00261  0.36049  0.50287  1.0000
  H   H539      1.0  0.00671  0.35362  0.48806  1.0000
  C   C315      1.0  0.99909  0.47330  0.62000  1.0000
  H   H540      1.0  0.01713  0.36816  0.52178  1.0000
  H   H541      1.0  0.00881  0.09467  0.52068  1.0000
  H   H542      1.0  0.98718  0.43789  0.52137  1.0000
  H   H543      1.0  0.09405  0.01134  0.54915  1.0000
  H   H544      1.0  0.20004  0.06254  0.49624  1.0000
  H   H545      1.0  0.04456  0.00347  0.49323  1.0000
  C   C316      1.0  0.17153  0.99494  0.49709  1.0000
  C   C317      1.0  0.01132  0.42679  0.49661  1.0000
  Fe  Fe39      1.0  0.99031  0.12245  0.53821  1.0000
  H   H546      1.0  0.21843  0.01793  0.54025  1.0000
  C   C318      1.0  0.20747  0.00215  0.53154  1.0000
  C   C319      1.0  0.98989  0.44494  0.51507  1.0000
  H   H547      1.0  0.01005  0.46542  0.49975  1.0000
  C   C320      1.0  0.21357  0.98958  0.48743  1.0000
  H   H548      1.0  0.00263  0.44591  0.52861  1.0000
  S   S91       1.0  0.06321  0.99682  0.50363  1.0000
  H   H549      1.0  0.01456  0.44783  0.49751  1.0000
  H   H550      1.0  0.01502  0.44827  0.51856  1.0000
  H   H551      1.0  0.07557  0.99357  0.55408  1.0000
  C   C321      1.0  0.00559  0.45035  0.50013  1.0000
  H   H552      1.0  0.99159  0.39770  0.50315  1.0000
  H   H553      1.0  0.00559  0.42799  0.52215  1.0000
  C   C322      1.0  0.23337  0.00407  0.51137  1.0000
  H   H554      1.0  0.99191  0.16616  0.55045  1.0000
  H   H555      1.0  0.09223  0.02490  0.51930  1.0000
  H   H556      1.0  0.21415  0.00422  0.49821  1.0000
  H   H557      1.0  0.99641  0.42642  0.50872  1.0000
  H   H558      1.0  0.23104  0.09126  0.52594  1.0000
  C   C323      1.0  0.05606  0.06460  0.48661  1.0000
  S   S92       1.0  0.22532  0.04456  0.49086  1.0000
  N   N25       1.0  0.99665  0.48582  0.63329  1.0000
  H   H559      1.0  0.10938  0.02344  0.50317  1.0000
  H   H560      1.0  0.23152  0.07018  0.53389  1.0000
  H   H561      1.0  0.22876  0.08338  0.51783  1.0000
  C   C324      1.0  0.04486  0.06725  0.48761  1.0000
  C   C325      1.0  0.23388  0.99287  0.51582  1.0000
  C   C326      1.0  0.04132  0.01202  0.48909  1.0000
  H   H562      1.0  0.17859  0.99230  0.52112  1.0000
  H   H563      1.0  0.18861  0.03396  0.48601  1.0000
  H   H564      1.0  0.13593  0.99069  0.50127  1.0000
  H   H565      1.0  0.18095  0.05293  0.48590  1.0000
  Fe  Fe40      1.0  0.98822  0.12933  0.51478  1.0000
  H   H566      1.0  0.19952  0.03926  0.48649  1.0000
  C   C327      1.0  0.23490  0.08444  0.52161  1.0000
  H   H567      1.0  0.98812  0.44892  0.55073  1.0000
  H   H568      1.0  0.01065  0.48496  0.63951  1.0000
  H   H569      1.0  0.99749  0.16393  0.49219  1.0000
  H   H570      1.0  0.11840  0.00602  0.50164  1.0000
  C   C328      1.0  0.98850  0.13278  0.48883  1.0000
  S   S93       1.0  0.99150  0.48467  0.69118  1.0000
  H   H571      1.0  0.02127  0.02885  0.48752  1.0000
  H   H572      1.0  0.23653  0.06090  0.55856  1.0000
  Fe  Fe41      1.0  0.04163  0.46449  0.93733  1.0000
  S   S94       1.0  0.04970  0.46459  0.91956  1.0000
  S   S95       1.0  0.04481  0.45036  0.95160  1.0000
  H   H573      1.0  0.18889  0.48596  0.97863  1.0000
  H   H574      1.0  0.99396  0.43670  0.75275  1.0000
  Fe  Fe42      1.0  0.03304  0.47313  0.91649  1.0000
  S   S96       1.0  0.02732  0.47192  0.90211  1.0000
  Fe  Fe43      1.0  0.11601  0.47383  0.93328  1.0000
  H   H575      1.0  0.05319  0.44508  0.90838  1.0000
  S   S97       1.0  0.02481  0.47160  0.93433  1.0000
  C   C329      1.0  0.23052  0.44287  0.98161  1.0000
  H   H576      1.0  0.99001  0.46388  0.73602  1.0000
  C   C330      1.0  0.02327  0.44214  0.93977  1.0000
  S   S98       1.0  0.10552  0.46319  0.93256  1.0000
  H   H577      1.0  0.07655  0.48233  0.93944  1.0000
  H   H578      1.0  0.04202  0.42243  0.94623  1.0000
  C   C331      1.0  0.18148  0.47089  0.94271  1.0000
  H   H579      1.0  0.01604  0.47765  0.84040  1.0000
  H   H580      1.0  0.15162  0.45903  0.98349  1.0000
  H   H581      1.0  0.00939  0.48538  0.82958  1.0000
  C   C332      1.0  0.03639  0.44304  0.91618  1.0000
  H   H582      1.0  0.05476  0.43340  0.92421  1.0000
  H   H583      1.0  0.08375  0.46334  0.94927  1.0000
  H   H584      1.0  0.17876  0.46182  0.93247  1.0000
  H   H585      1.0  0.14482  0.46111  0.95759  1.0000
  H   H586      1.0  0.15013  0.48068  0.94981  1.0000
  H   H587      1.0  0.14543  0.43396  0.97876  1.0000
  S   S99       1.0  0.04517  0.48054  0.93678  1.0000
  C   C333      1.0  0.16367  0.47094  0.94048  1.0000
  H   H588      1.0  0.15684  0.45063  0.95697  1.0000
  S   S100      1.0  0.15577  0.46646  0.93441  1.0000
  H   H589      1.0  0.02893  0.44206  0.94473  1.0000
  H   H590      1.0  0.14480  0.44686  0.94853  1.0000
  C   C334      1.0  0.13469  0.48326  0.98403  1.0000
  C   C335      1.0  0.15318  0.45842  0.97486  1.0000
  H   H591      1.0  0.09243  0.47630  0.94976  1.0000
  C   C336      1.0  0.02748  0.43280  0.93346  1.0000
  C   C337      1.0  0.04930  0.42495  0.94054  1.0000
  H   H592      1.0  0.02107  0.43302  0.92928  1.0000
  S   S101      1.0  0.23277  0.47235  0.95474  1.0000
  C   C338      1.0  0.15884  0.47793  0.94779  1.0000
  H   H593      1.0  0.08562  0.47107  0.97521  1.0000
  H   H594      1.0  0.06651  0.46796  0.94367  1.0000
  S   S102      1.0  0.99329  0.45562  0.87003  1.0000
  S   S103      1.0  0.13083  0.47778  0.92086  1.0000
  H   H595      1.0  0.06412  0.48666  0.98099  1.0000
  C   C339      1.0  0.15133  0.43890  0.97821  1.0000
  H   H596      1.0  0.03099  0.41182  0.93014  1.0000
  C   C340      1.0  0.01654  0.48437  0.83290  1.0000
  C   C341      1.0  0.16532  0.48137  0.95254  1.0000
  C   C342      1.0  0.99448  0.44790  0.82774  1.0000
  Fe  Fe44      1.0  0.02894  0.48769  0.93255  1.0000
  C   C343      1.0  0.17499  0.46730  0.93807  1.0000
  H   H597      1.0  0.99756  0.44507  0.84387  1.0000
  H   H598      1.0  0.00187  0.45070  0.82354  1.0000
  C   C344      1.0  0.04271  0.46583  0.97984  1.0000
  C   C345      1.0  0.00076  0.48798  0.92679  1.0000
  C   C346      1.0  0.06678  0.46392  0.95233  1.0000
  C   C347      1.0  0.14293  0.44510  0.95766  1.0000
  H   H599      1.0  0.00733  0.48274  0.92186  1.0000
  Fe  Fe45      1.0  0.22593  0.47757  0.93972  1.0000
  H   H600      1.0  0.13215  0.46333  0.97459  1.0000
  C   C348      1.0  0.11838  0.48820  0.97241  1.0000
  H   H601      1.0  0.04828  0.43725  0.90195  1.0000
  H   H602      1.0  0.23574  0.48309  0.98289  1.0000
  H   H603      1.0  0.04295  0.40984  0.93534  1.0000
  H   H604      1.0  0.99335  0.48461  0.92970  1.0000
  H   H605      1.0  0.02774  0.42510  0.93988  1.0000
  C   C349      1.0  0.13515  0.45452  0.97836  1.0000
  H   H606      1.0  0.99055  0.48617  0.79905  1.0000
  H   H607      1.0  0.03439  0.45072  0.91924  1.0000
  H   H608      1.0  0.04357  0.45172  0.90004  1.0000
  H   H609      1.0  0.04390  0.40526  0.92332  1.0000
  C   C350      1.0  0.04689  0.43381  0.93028  1.0000
  C   C351      1.0  0.99009  0.42955  0.75498  1.0000
  C   C352      1.0  0.19701  0.44692  0.97758  1.0000
  N   N26       1.0  0.07539  0.47722  0.95698  1.0000
  C   C353      1.0  0.98724  0.44777  0.82169  1.0000
  H   H610      1.0  0.05298  0.44152  0.97159  1.0000
  H   H611      1.0  0.13398  0.44694  0.96024  1.0000
  C   C354      1.0  0.03974  0.41193  0.92784  1.0000
  C   C355      1.0  0.01631  0.46641  0.90273  1.0000
  C   C356      1.0  0.01062  0.46104  0.91263  1.0000
  C   C357      1.0  0.00226  0.45627  0.91259  1.0000
  C   C358      1.0  0.99936  0.45714  0.90271  1.0000
  C   C359      1.0  0.00479  0.46289  0.89291  1.0000
  C   C360      1.0  0.01331  0.46740  0.89291  1.0000
  H   H612      1.0  0.01268  0.46052  0.92025  1.0000
  H   H613      1.0  0.99798  0.45194  0.92022  1.0000
  H   H614      1.0  0.00258  0.46368  0.88527  1.0000
  H   H615      1.0  0.01761  0.47163  0.88523  1.0000
  C   C361      1.0  0.99175  0.47345  0.83238  1.0000
  H   H616      1.0  0.05049  0.42169  0.91626  1.0000
  H   H617      1.0  0.14628  0.43621  0.96043  1.0000
  C   C362      1.0  0.09506  0.47026  0.92558  1.0000
  C   C363      1.0  0.08671  0.46513  0.92650  1.0000
  C   C364      1.0  0.07779  0.47093  0.92180  1.0000
  H   H618      1.0  0.13024  0.44986  0.97653  1.0000
  C   C365      1.0  0.04601  0.44415  0.90618  1.0000
  H   H619      1.0  0.08701  0.45673  0.93108  1.0000
  H   H620      1.0  0.07127  0.46697  0.92275  1.0000
  H   H621      1.0  0.99336  0.48309  0.81611  1.0000
  Fe  Fe46      1.0  0.20252  0.47792  0.95284  1.0000
  C   C366      1.0  0.04830  0.44980  0.97174  1.0000
  C   C367      1.0  0.04289  0.45570  0.96324  1.0000
  C   C368      1.0  0.03687  0.46640  0.96349  1.0000
  C   C369      1.0  0.03688  0.47147  0.97169  1.0000
  H   H622      1.0  0.06764  0.45499  0.95314  1.0000
  H   H623      1.0  0.06321  0.48590  0.94737  1.0000
  H   H624      1.0  0.03238  0.47089  0.95720  1.0000
  H   H625      1.0  0.05264  0.42843  0.94546  1.0000
  H   H626      1.0  0.98734  0.41136  0.75192  1.0000
  H   H627      1.0  0.03740  0.42432  0.91353  1.0000
  N   N27       1.0  0.03818  0.43297  0.92529  1.0000
  H   H628      1.0  0.01550  0.44102  0.94561  1.0000
  H   H629      1.0  0.10124  0.48499  0.91851  1.0000
  N   N28       1.0  0.14704  0.45085  0.97348  1.0000
  C   C370      1.0  0.06696  0.47885  0.96734  1.0000
  H   H630      1.0  0.02154  0.45030  0.93427  1.0000
  S   S104      1.0  0.20784  0.47278  0.96879  1.0000
  H   H631      1.0  0.05538  0.41764  0.93821  1.0000
  H   H632      1.0  0.98942  0.39742  0.75930  1.0000
  H   H633      1.0  0.99021  0.42599  0.77184  1.0000
  Fe  Fe47      1.0  0.21853  0.48475  0.96115  1.0000
  C   C371      1.0  0.09468  0.48108  0.91952  1.0000
  H   H634      1.0  0.06798  0.47147  0.97417  1.0000
  H   H635      1.0  0.02404  0.48155  0.82697  1.0000
  C   C372      1.0  0.04170  0.42301  0.92023  1.0000
  S   S105      1.0  0.21542  0.46510  0.94512  1.0000
  C   C373      1.0  0.14819  0.45238  0.96127  1.0000
  H   H636      1.0  0.99102  0.46996  0.81747  1.0000
  H   H637      1.0  0.99076  0.40734  0.77170  1.0000
  C   C374      1.0  0.07640  0.46576  0.95560  1.0000
  H   H638      1.0  0.00351  0.48758  0.93426  1.0000
  Fe  Fe48      1.0  0.22137  0.46093  0.96071  1.0000
  H   H639      1.0  0.04528  0.44202  0.93222  1.0000
  S   S106      1.0  0.98917  0.45077  0.90272  1.0000
  C   C375      1.0  0.08584  0.48681  0.91464  1.0000
  H   H640      1.0  0.08683  0.48623  0.95773  1.0000
  S   S107      1.0  0.22595  0.44359  0.96996  1.0000
  H   H641      1.0  0.03249  0.47988  0.97161  1.0000
  H   H642      1.0  0.02930  0.44333  0.91293  1.0000
  H   H643      1.0  0.16930  0.44715  0.97500  1.0000
  H   H644      1.0  0.15026  0.46702  0.97048  1.0000
  C   C376      1.0  0.17663  0.47801  0.94988  1.0000
  H   H645      1.0  0.22492  0.46018  0.98136  1.0000
  H   H646      1.0  0.16820  0.45639  0.96189  1.0000
  S   S108      1.0  0.99020  0.48708  0.85482  1.0000
  S   S109      1.0  0.98984  0.45331  0.80747  1.0000
  C   C377      1.0  0.09105  0.46992  0.96719  1.0000
  C   C378      1.0  0.16562  0.45550  0.97090  1.0000
  H   H647      1.0  0.99127  0.48057  0.83567  1.0000
  C   C379      1.0  0.99203  0.44476  0.83923  1.0000
  H   H648      1.0  0.15885  0.43559  0.97250  1.0000
  C   C380      1.0  0.98829  0.47719  0.82133  1.0000
  H   H649      1.0  0.18907  0.44526  0.97812  1.0000
  C   C381      1.0  0.07191  0.48529  0.94704  1.0000
  C   C382      1.0  0.04822  0.45487  0.98005  1.0000
  H   H650      1.0  0.07746  0.45953  0.96331  1.0000
  H   H651      1.0  0.16158  0.48684  0.95813  1.0000
  S   S110      1.0  0.12406  0.46944  0.94748  1.0000
  H   H652      1.0  0.09894  0.47154  0.96701  1.0000
  C   C383      1.0  0.11640  0.48331  0.98362  1.0000
  C   C384      1.0  0.07730  0.48180  0.91594  1.0000
  C   C385      1.0  0.08648  0.47790  0.95746  1.0000
  H   H653      1.0  0.00652  0.48801  0.90458  1.0000
  H   H654      1.0  0.99677  0.42227  0.75387  1.0000
  H   H655      1.0  0.00039  0.46904  0.83105  1.0000
  Fe  Fe49      1.0  0.13822  0.47528  0.93525  1.0000
  H   H656      1.0  0.05899  0.46698  0.95762  1.0000
  S   S111      1.0  0.18431  0.48328  0.95546  1.0000
  Fe  Fe50      1.0  0.05163  0.48143  0.91885  1.0000
  H   H657      1.0  0.19022  0.46823  0.94064  1.0000
  H   H658      1.0  0.20355  0.43989  0.97531  1.0000
  H   H659      1.0  0.09271  0.46123  0.96659  1.0000
  H   H660      1.0  0.16910  0.46141  0.97287  1.0000
  H   H661      1.0  0.05874  0.47947  0.96618  1.0000
  H   H662      1.0  0.98721  0.46761  0.83855  1.0000
  H   H663      1.0  0.99303  0.48064  0.91386  1.0000
  H   H664      1.0  0.19809  0.45407  0.97062  1.0000
  Fe  Fe51      1.0  0.11746  0.48713  0.94817  1.0000
  Fe  Fe52      1.0  0.05508  0.54176  0.03105  1.0000
  S   S112      1.0  0.07045  0.52969  0.02623  1.0000
  S   S113      1.0  0.04208  0.53551  0.04513  1.0000
  Fe  Fe53      1.0  0.06694  0.53446  0.00949  1.0000
  H   H665      1.0  0.02958  0.58217  0.01231  1.0000
  S   S114      1.0  0.22343  0.49455  0.00163  1.0000
  H   H666      1.0  0.01869  0.52784  0.00190  1.0000
  S   S115      1.0  0.05106  0.54536  0.01461  1.0000
  C   C386      1.0  0.00927  0.49006  0.03674  1.0000
  H   H667      1.0  0.19288  0.49695  0.04434  1.0000
  C   C387      1.0  0.02150  0.55434  0.02650  1.0000
  N   N29       1.0  0.12702  0.51978  0.99862  1.0000
  C   C388      1.0  0.01632  0.54293  0.06954  1.0000
  S   S116      1.0  0.15832  0.54275  0.03356  1.0000
  H   H668      1.0  0.99524  0.49358  0.08378  1.0000
  H   H669      1.0  0.22601  0.50350  0.03804  1.0000
  Fe  Fe54      1.0  0.17303  0.54915  0.02322  1.0000
  S   S117      1.0  0.18259  0.55683  0.02973  1.0000
  Fe  Fe55      1.0  0.15091  0.55036  0.01872  1.0000
  S   S118      1.0  0.13409  0.56061  0.01740  1.0000
  H   H670      1.0  0.11655  0.52916  0.02922  1.0000
  H   H671      1.0  0.21458  0.50300  0.02896  1.0000
  H   H672      1.0  0.03438  0.56315  0.01997  1.0000
  H   H673      1.0  0.01527  0.50010  0.02089  1.0000
  C   C389      1.0  0.00301  0.49531  0.05489  1.0000
  H   H674      1.0  0.01611  0.50456  0.05054  1.0000
  C   C390      1.0  0.01711  0.55297  0.07086  1.0000
  S   S119      1.0  0.23037  0.53488  0.03648  1.0000
  C   C391      1.0  0.15863  0.49502  0.03439  1.0000
  N   N30       1.0  0.99548  0.49422  0.12700  1.0000
  H   H675      1.0  0.04295  0.57302  0.02619  1.0000
  H   H676      1.0  0.18234  0.56975  0.99290  1.0000
  H   H677      1.0  0.09209  0.50792  0.02147  1.0000
  C   C392      1.0  0.19612  0.55077  0.03094  1.0000
  C   C393      1.0  0.20038  0.55437  0.03770  1.0000
  C   C394      1.0  0.21100  0.54969  0.03912  1.0000
  C   C395      1.0  0.21765  0.54171  0.03339  1.0000
  C   C396      1.0  0.21357  0.53832  0.02632  1.0000
  C   C397      1.0  0.20272  0.54262  0.02533  1.0000
  N   N31       1.0  0.02090  0.57417  0.02800  1.0000
  H   H678      1.0  0.22245  0.56016  0.98532  1.0000
  H   H679      1.0  0.21866  0.53204  0.02200  1.0000
  H   H680      1.0  0.19950  0.53958  0.02029  1.0000
  C   C398      1.0  0.99465  0.50203  0.17948  1.0000
  C   C399      1.0  0.02748  0.56272  0.02721  1.0000
  H   H681      1.0  0.01585  0.55183  0.03435  1.0000
  H   H682      1.0  0.04039  0.55606  0.05143  1.0000
  C   C400      1.0  0.02584  0.55769  0.06432  1.0000
  H   H683      1.0  0.00700  0.56947  0.22655  1.0000
  H   H684      1.0  0.00964  0.56282  0.13229  1.0000
  C   C401      1.0  0.12085  0.54089  0.99594  1.0000
  H   H685      1.0  0.02573  0.49158  0.02760  1.0000
  C   C402      1.0  0.99995  0.50449  0.12210  1.0000
  H   H686      1.0  0.22226  0.54198  0.98942  1.0000
  H   H687      1.0  0.98715  0.58417  0.22190  1.0000
  C   C403      1.0  0.05092  0.49580  0.02334  1.0000
  C   C404      1.0  0.15721  0.50603  0.03455  1.0000
  C   C405      1.0  0.14685  0.51288  0.03552  1.0000
  C   C406      1.0  0.13786  0.50857  0.03662  1.0000
  C   C407      1.0  0.03963  0.58189  0.98523  1.0000
  C   C408      1.0  0.19164  0.51835  0.04234  1.0000
  H   H688      1.0  0.14573  0.52142  0.03567  1.0000
  H   H689      1.0  0.12981  0.51380  0.03748  1.0000
  H   H690      1.0  0.03711  0.50781  0.00080  1.0000
  H   H691      1.0  0.99603  0.49750  0.21960  1.0000
  C   C409      1.0  0.06040  0.51260  0.00867  1.0000
  C   C410      1.0  0.05971  0.50379  0.00492  1.0000
  H   H692      1.0  0.02463  0.52646  0.10972  1.0000
  H   H693      1.0  0.18746  0.51817  0.06014  1.0000
  C   C411      1.0  0.05117  0.50485  0.02697  1.0000
  C   C412      1.0  0.05574  0.51333  0.01959  1.0000
  H   H694      1.0  0.02755  0.54672  0.02497  1.0000
  H   H695      1.0  0.01071  0.50205  0.10621  1.0000
  H   H696      1.0  0.04809  0.50519  0.03555  1.0000
  H   H697      1.0  0.05578  0.52033  0.02247  1.0000
  H   H698      1.0  0.09170  0.49292  0.03496  1.0000
  C   C413      1.0  0.10493  0.55525  0.01797  1.0000
  C   C414      1.0  0.11360  0.56027  0.01643  1.0000
  C   C415      1.0  0.12340  0.55405  0.01934  1.0000
  C   C416      1.0  0.12448  0.54278  0.02379  1.0000
  C   C417      1.0  0.11576  0.53782  0.02550  1.0000
  H   H699      1.0  0.09744  0.56008  0.01567  1.0000
  H   H700      1.0  0.11271  0.56900  0.01301  1.0000
  H   H701      1.0  0.22568  0.50574  0.05097  1.0000
  H   H702      1.0  0.13194  0.53794  0.02615  1.0000
  S   S120      1.0  0.06717  0.52259  0.99976  1.0000
  C   C418      1.0  0.03366  0.55243  0.05642  1.0000
  H   H703      1.0  0.12291  0.54784  0.99774  1.0000
  H   H704      1.0  0.11263  0.52625  0.99168  1.0000
  H   H705      1.0  0.02979  0.56858  0.09590  1.0000
  H   H706      1.0  0.01915  0.57397  0.08858  1.0000
  H   H707      1.0  0.19159  0.51167  0.02465  1.0000
  H   H708      1.0  0.02548  0.53846  0.99423  1.0000
  H   H709      1.0  0.06308  0.50330  0.99642  1.0000
  H   H710      1.0  0.00981  0.52654  0.98997  1.0000
  H   H711      1.0  0.02652  0.56543  0.06536  1.0000
  C   C419      1.0  0.99172  0.49574  0.19005  1.0000
  C   C420      1.0  0.00750  0.56868  0.04626  1.0000
  C   C421      1.0  0.02282  0.56661  0.09424  1.0000
  H   H712      1.0  0.03393  0.51877  0.01198  1.0000
  H   H713      1.0  0.00965  0.53921  0.07452  1.0000
  H   H714      1.0  0.19233  0.52515  0.03493  1.0000
  C   C422      1.0  0.23260  0.50309  0.99791  1.0000
  C   C423      1.0  0.00760  0.55248  0.12232  1.0000
  H   H715      1.0  0.07461  0.49141  0.03417  1.0000
  H   H716      1.0  0.13237  0.53036  0.00537  1.0000
  H   H717      1.0  0.02211  0.57088  0.00594  1.0000
  H   H718      1.0  0.00104  0.49492  0.03569  1.0000
  H   H719      1.0  0.20618  0.49143  0.04577  1.0000
  H   H720      1.0  0.13725  0.49314  0.06761  1.0000
  H   H721      1.0  0.20629  0.56616  0.00635  1.0000
  H   H722      1.0  0.18613  0.50013  0.06220  1.0000
  H   H723      1.0  0.13554  0.50332  0.99637  1.0000
  H   H724      1.0  0.15975  0.51720  0.98681  1.0000
  C   C424      1.0  0.01115  0.50340  0.11414  1.0000
  C   C425      1.0  0.14414  0.50818  0.00556  1.0000
  H   H725      1.0  0.99465  0.49803  0.05342  1.0000
  C   C426      1.0  0.05468  0.49556  0.01220  1.0000
  H   H726      1.0  0.15561  0.48980  0.06995  1.0000
  C   C427      1.0  0.03040  0.54640  0.12684  1.0000
  H   H727      1.0  0.03133  0.55877  0.03437  1.0000
  H   H728      1.0  0.08752  0.51392  0.98753  1.0000
  H   H729      1.0  0.02620  0.57362  0.04257  1.0000
  H   H730      1.0  0.99094  0.52668  0.18591  1.0000
  N   N32       1.0  0.18731  0.49495  0.99099  1.0000
  H   H731      1.0  0.03628  0.58891  0.98900  1.0000
  C   C428      1.0  0.02671  0.55516  0.11702  1.0000
  N   N33       1.0  0.01747  0.55378  0.11317  1.0000
  H   H732      1.0  0.09837  0.49519  0.00873  1.0000
  H   H733      1.0  0.04076  0.52980  0.00425  1.0000
  H   H734      1.0  0.14878  0.54534  0.98714  1.0000
  H   H735      1.0  0.21193  0.51998  0.04188  1.0000
  H   H736      1.0  0.21115  0.57103  0.98520  1.0000
  S   S121      1.0  0.16844  0.51090  0.03395  1.0000
  H   H737      1.0  0.04891  0.52010  0.99089  1.0000
  S   S122      1.0  0.15735  0.53550  0.01139  1.0000
  S   S123      1.0  0.16491  0.55828  0.00922  1.0000
  H   H738      1.0  0.99919  0.56712  0.04926  1.0000
  H   H739      1.0  0.18657  0.57042  0.00455  1.0000
  C   C429      1.0  0.21004  0.51189  0.04647  1.0000
  H   H740      1.0  0.02340  0.52994  0.06069  1.0000
  C   C430      1.0  0.02587  0.57894  0.03426  1.0000
  C   C431      1.0  0.02114  0.58161  0.01673  1.0000
  H   H741      1.0  0.17459  0.49142  0.00528  1.0000
  H   H742      1.0  0.99383  0.49283  0.11136  1.0000
  H   H743      1.0  0.00686  0.56369  0.10223  1.0000
  H   H744      1.0  0.02572  0.55988  0.08971  1.0000
  H   H745      1.0  0.98684  0.49714  0.23253  1.0000
  H   H746      1.0  0.01241  0.53160  0.11862  1.0000
  H   H747      1.0  0.04104  0.58196  0.03513  1.0000
  S   S124      1.0  0.18106  0.53438  0.01610  1.0000
  Fe  Fe56      1.0  0.06047  0.55839  0.00990  1.0000
  H   H748      1.0  0.99440  0.51088  0.11725  1.0000
  S   S125      1.0  0.05194  0.57429  0.00062  1.0000
  H   H749      1.0  0.21405  0.55224  0.04471  1.0000
  H   H750      1.0  0.01707  0.55730  0.01979  1.0000
  C   C432      1.0  0.99557  0.49570  0.22852  1.0000
  Fe  Fe57      1.0  0.17185  0.54284  0.00297  1.0000
  H   H751      1.0  0.14015  0.55503  0.99495  1.0000
  H   H752      1.0  0.19122  0.55190  0.99541  1.0000
  H   H753      1.0  0.00518  0.57055  0.03006  1.0000
  C   C433      1.0  0.13934  0.49749  0.03655  1.0000
  H   H754      1.0  0.01672  0.59016  0.01740  1.0000
  S   S126      1.0  0.99730  0.49620  0.16817  1.0000
  C   C434      1.0  0.03282  0.52741  0.00726  1.0000
  H   H755      1.0  0.02079  0.58710  0.03564  1.0000
  H   H756      1.0  0.03780  0.58766  0.02198  1.0000
  Fe  Fe58      1.0  0.16593  0.52856  0.02533  1.0000
  C   C435      1.0  0.16900  0.52872  0.98611  1.0000
  C   C436      1.0  0.03238  0.51094  0.99427  1.0000
  H   H757      1.0  0.11997  0.54336  0.98729  1.0000
  H   H758      1.0  0.03515  0.48907  0.22976  1.0000
  H   H759      1.0  0.03407  0.55517  0.11025  1.0000
  S   S127      1.0  0.07628  0.54772  0.00326  1.0000
  H   H760      1.0  0.00896  0.54460  0.12841  1.0000
  C   C437      1.0  0.01660  0.57823  0.00877  1.0000
  H   H761      1.0  0.99017  0.52931  0.15451  1.0000
  H   H762      1.0  0.19658  0.55329  0.00572  1.0000
  C   C438      1.0  0.19994  0.50662  0.02358  1.0000
  H   H763      1.0  0.12378  0.51705  0.01641  1.0000
  H   H764      1.0  0.11222  0.50416  0.02142  1.0000
  H   H765      1.0  0.01749  0.49689  0.11759  1.0000
  C   C439      1.0  0.11999  0.51675  0.00987  1.0000
  H   H766      1.0  0.18097  0.49597  0.01741  1.0000
  H   H767      1.0  0.00825  0.57694  0.01220  1.0000
  H   H768      1.0  0.21396  0.54224  0.00271  1.0000
  H   H769      1.0  0.11214  0.52286  0.01085  1.0000
  C   C440      1.0  0.03276  0.54243  0.05504  1.0000
  H   H770      1.0  0.14871  0.58779  0.99540  1.0000
  C   C441      1.0  0.20929  0.53354  0.99371  1.0000
  C   C442      1.0  0.18958  0.56864  0.99620  1.0000
  H   H771      1.0  0.13444  0.57370  0.99471  1.0000
  N   N34       1.0  0.20189  0.50937  0.04186  1.0000
  H   H772      1.0  0.17155  0.49476  0.05739  1.0000
  H   H773      1.0  0.99943  0.56944  0.12414  1.0000
  C   C443      1.0  0.00330  0.56156  0.12898  1.0000
  C   C444      1.0  0.98849  0.50060  0.19912  1.0000
  C   C445      1.0  0.18810  0.52406  0.05210  1.0000
  H   H774      1.0  0.19007  0.51649  0.99216  1.0000
  S   S128      1.0  0.99299  0.51194  0.09257  1.0000
  C   C446      1.0  0.12084  0.52081  0.99008  1.0000
  H   H775      1.0  0.19535  0.56063  0.04209  1.0000
  H   H776      1.0  0.21987  0.49499  0.05066  1.0000
  C   C447      1.0  0.99459  0.51312  0.17801  1.0000
  H   H777      1.0  0.02503  0.56340  0.11893  1.0000
  H   H778      1.0  0.19369  0.52936  0.05140  1.0000
  H   H779      1.0  0.03362  0.55028  0.13150  1.0000
  C   C448      1.0  0.03757  0.58043  0.02897  1.0000
  H   H780      1.0  0.20903  0.51724  0.02539  1.0000
  H   H781      1.0  0.01762  0.50394  0.03204  1.0000
  C   C449      1.0  0.02411  0.53770  0.06167  1.0000
  H   H782      1.0  0.02539  0.53057  0.12142  1.0000
  C   C450      1.0  0.19924  0.49833  0.04761  1.0000
  Fe  Fe59      1.0  0.07887  0.54377  0.02049  1.0000
  H   H783      1.0  0.08477  0.49630  0.00811  1.0000
  H   H784      1.0  0.17998  0.52960  0.05189  1.0000
  H   H785      1.0  0.21337  0.52590  0.99875  1.0000
  H   H786      1.0  0.02575  0.48950  0.04589  1.0000
  S   S129      1.0  0.06361  0.55566  0.02683  1.0000
  C   C451      1.0  0.02690  0.52947  0.99791  1.0000
  C   C452      1.0  0.00925  0.57437  0.03395  1.0000
  H   H787      1.0  0.18462  0.51522  0.04225  1.0000
  C   C453      1.0  0.14153  0.58747  0.99271  1.0000
  C   C454      1.0  0.08631  0.50671  0.01737  1.0000
  C   C455      1.0  0.10597  0.54400  0.02258  1.0000
  H   H788      1.0  0.14795  0.57019  0.99654  1.0000
  C   C456      1.0  0.19623  0.55663  0.99697  1.0000
  H   H789      1.0  0.03694  0.53963  0.12397  1.0000
  H   H790      1.0  0.15153  0.50187  0.00335  1.0000
  C   C457      1.0  0.99118  0.51805  0.18708  1.0000
  H   H791      1.0  0.01378  0.51127  0.11217  1.0000
  C   C458      1.0  0.01413  0.56407  0.10482  1.0000
  H   H792      1.0  0.02382  0.54292  0.13293  1.0000
  H   H793      1.0  0.99864  0.49262  0.14295  1.0000
  H   H794      1.0  0.09103  0.53294  0.98525  1.0000
  H   H795      1.0  0.19969  0.49777  0.02600  1.0000
  C   C459      1.0  0.21442  0.56354  0.00124  1.0000
  S   S130      1.0  0.09557  0.53707  0.02447  1.0000
  C   C460      1.0  0.01746  0.49685  0.02903  1.0000
  Fe  Fe60      1.0  0.98773  0.52864  0.09626  1.0000
  H   H796      1.0  0.01330  0.56070  0.04786  1.0000
  S   S131      1.0  0.99985  0.53389  0.10154  1.0000
  H   H797      1.0  0.05797  0.55747  0.98757  1.0000
  H   H798      1.0  0.01166  0.57148  0.10838  1.0000
  H   H799      1.0  0.14259  0.51364  0.98873  1.0000
  H   H800      1.0  0.19398  0.57504  0.99111  1.0000
  H   H801      1.0  0.20338  0.50779  0.98831  1.0000
  H   H802      1.0  0.99694  0.55906  0.13621  1.0000
  C   C461      1.0  0.17881  0.49824  0.00071  1.0000
  H   H803      1.0  0.99691  0.51796  0.16985  1.0000
  C   C462      1.0  0.00720  0.50592  0.05223  1.0000
  S   S132      1.0  0.00716  0.55978  0.08048  1.0000
  C   C463      1.0  0.11718  0.50538  0.01290  1.0000
  C   C464      1.0  0.04749  0.57322  0.98942  1.0000
  H   H804      1.0  0.13720  0.53175  0.99113  1.0000
  H   H805      1.0  0.02944  0.54385  0.10245  1.0000
  H   H806      1.0  0.20211  0.49137  0.99710  1.0000
  C   C465      1.0  0.23454  0.50736  0.00576  1.0000
  H   H807      1.0  0.02785  0.53258  0.01318  1.0000
  H   H808      1.0  0.23037  0.50537  0.01425  1.0000
  H   H809      1.0  0.21906  0.56987  0.00015  1.0000
  H   H810      1.0  0.01630  0.58494  0.00128  1.0000
  C   C466      1.0  0.02105  0.54421  0.10753  1.0000
  H   H811      1.0  0.19127  0.50185  0.00726  1.0000
  S   S133      1.0  0.12840  0.49200  0.03739  1.0000
  H   H812      1.0  0.20374  0.50836  0.01467  1.0000
  C   C467      1.0  0.22093  0.50343  0.04645  1.0000
  H   H813      1.0  0.00037  0.50820  0.12870  1.0000
  H   H814      1.0  0.01005  0.54989  0.22859  1.0000
  H   H815      1.0  0.10052  0.50933  0.99060  1.0000
  H   H816      1.0  0.03211  0.49687  0.98830  1.0000
  H   H817      1.0  0.17233  0.50516  0.99788  1.0000
  C   C468      1.0  0.98814  0.51176  0.19762  1.0000
  H   H818      1.0  0.07811  0.50757  0.02277  1.0000
  C   C469      1.0  0.20688  0.50922  0.02992  1.0000
  H   H819      1.0  0.01330  0.49152  0.21176  1.0000
  H   H820      1.0  0.14678  0.51540  0.00601  1.0000
  C   C470      1.0  0.08997  0.49564  0.01381  1.0000
  H   H821      1.0  0.20678  0.51286  0.05506  1.0000
  C   C471      1.0  0.14252  0.57582  0.99114  1.0000
  H   H822      1.0  0.13454  0.58916  0.99961  1.0000
  H   H823      1.0  0.00821  0.57401  0.05128  1.0000
  H   H824      1.0  0.00083  0.55206  0.11899  1.0000
  H   H825      1.0  0.13979  0.50453  0.01380  1.0000
  C   C472      1.0  0.03722  0.50296  0.98638  1.0000
  H   H826      1.0  0.17795  0.50996  0.01034  1.0000
  H   H827      1.0  0.00173  0.49205  0.06391  1.0000
  C   C473      1.0  0.13727  0.51108  0.99686  1.0000
  H   H828      1.0  0.00411  0.51197  0.04525  1.0000
  Fe  Fe61      1.0  0.99445  0.55028  0.09096  1.0000
  H   H829      1.0  0.19934  0.49938  0.06436  1.0000
  H   H830      1.0  0.00449  0.58301  0.03341  1.0000
  C   C474      1.0  0.18264  0.50162  0.00926  1.0000
  H   H831      1.0  0.08596  0.51352  0.00998  1.0000
  H   H832      1.0  0.17018  0.52533  0.99438  1.0000
  H   H833      1.0  0.16567  0.49815  0.98752  1.0000
  C   C475      1.0  0.12992  0.53048  0.99778  1.0000
  H   H834      1.0  0.11234  0.50473  0.00749  1.0000
  H   H835      1.0  0.21877  0.55579  0.00581  1.0000
  H   H836      1.0  0.12450  0.49861  0.01288  1.0000
  S   S134      1.0  0.98934  0.53380  0.13197  1.0000
  H   H837      1.0  0.01591  0.54534  0.10162  1.0000
  H   H838      1.0  0.16661  0.48977  0.03360  1.0000
  H   H839      1.0  0.15462  0.49125  0.05633  1.0000
  C   C476      1.0  0.02084  0.53263  0.11490  1.0000
  H   H840      1.0  0.16432  0.57600  0.98631  1.0000
  H   H841      1.0  0.01682  0.49576  0.22682  1.0000
  H   H842      1.0  0.02409  0.50979  0.99871  1.0000
  H   H843      1.0  0.00427  0.50964  0.05956  1.0000
  H   H844      1.0  0.04551  0.49839  0.98738  1.0000
  C   C477      1.0  0.19566  0.51221  0.98579  1.0000
  H   H845      1.0  0.99889  0.50171  0.23047  1.0000
  C   C478      1.0  0.21364  0.54331  0.99402  1.0000
  N   N35       1.0  0.20744  0.55474  0.98974  1.0000
  C   C479      1.0  0.21394  0.56261  0.98981  1.0000
  H   H846      1.0  0.11919  0.51273  0.99054  1.0000
  H   H847      1.0  0.20047  0.53452  0.99711  1.0000
  N   N36       1.0  0.03241  0.52289  0.98918  1.0000
  H   H848      1.0  0.04274  0.54090  0.98600  1.0000
  C   C480      1.0  0.14397  0.55392  0.98646  1.0000
  H   H849      1.0  0.11292  0.53986  0.00141  1.0000
  C   C481      1.0  0.98774  0.49927  0.08236  1.0000
  C   C482      1.0  0.14971  0.49075  0.03545  1.0000
  C   C483      1.0  0.19491  0.49639  0.06013  1.0000
  H   H850      1.0  0.01766  0.56351  0.23370  1.0000
  C   C484      1.0  0.04399  0.52396  0.98459  1.0000
  H   H851      1.0  0.14013  0.59425  0.98557  1.0000
  S   S135      1.0  0.17998  0.54398  0.98524  1.0000
  C   C485      1.0  0.18272  0.48885  0.98562  1.0000
  H   H852      1.0  0.15846  0.55900  0.98452  1.0000
  H   H853      1.0  0.05385  0.48901  0.00920  1.0000
  H   H854      1.0  0.21127  0.53212  0.98527  1.0000
  H   H855      1.0  0.07265  0.48883  0.02227  1.0000
  H   H856      1.0  0.98967  0.86065  0.42647  1.0000
  S   S136      1.0  0.99532  0.55496  0.37962  1.0000
  H   H857      1.0  0.99722  0.55515  0.23641  1.0000
  N   N37       1.0  0.06732  0.93412  0.41005  1.0000
  H   H858      1.0  0.99132  0.50686  0.33323  1.0000
  H   H859      1.0  0.98993  0.49927  0.31715  1.0000
  H   H860      1.0  0.03010  0.66889  0.48395  1.0000
  Fe  Fe62      1.0  0.03067  0.96779  0.44367  1.0000
  S   S137      1.0  0.04086  0.96025  0.42945  1.0000
  H   H861      1.0  0.02015  0.96367  0.47242  1.0000
  Fe  Fe63      1.0  0.03835  0.94780  0.46019  1.0000
  S   S138      1.0  0.04959  0.93892  0.44759  1.0000
  H   H862      1.0  0.01232  0.77465  0.48212  1.0000
  Fe  Fe64      1.0  0.05386  0.95519  0.43908  1.0000
  S   S139      1.0  0.06984  0.95997  0.43078  1.0000
  Fe  Fe65      1.0  0.03546  0.94464  0.43932  1.0000
  S   S140      1.0  0.03323  0.93045  0.43370  1.0000
  S   S141      1.0  0.04393  0.96349  0.45269  1.0000
  S   S142      1.0  0.02394  0.95276  0.45259  1.0000
  Fe  Fe66      1.0  0.12405  0.93942  0.44845  1.0000
  S   S143      1.0  0.11811  0.94238  0.46553  1.0000
  S   S144      1.0  0.11387  0.93131  0.44322  1.0000
  Fe  Fe67      1.0  0.14488  0.94755  0.44471  1.0000
  S   S145      1.0  0.14026  0.95107  0.46146  1.0000
  S   S146      1.0  0.16100  0.95079  0.43404  1.0000
  C   C486      1.0  0.16976  0.91978  0.43652  1.0000
  Fe  Fe68      1.0  0.12373  0.95816  0.45798  1.0000
  S   S147      1.0  0.11545  0.97470  0.46188  1.0000
  S   S148      1.0  0.14096  0.93086  0.45049  1.0000
  S   S149      1.0  0.12851  0.95576  0.44066  1.0000
  C   C487      1.0  0.01341  0.74222  0.47279  1.0000
  H   H863      1.0  0.22723  0.98697  0.42879  1.0000
  C   C488      1.0  0.06844  0.92285  0.42974  1.0000
  C   C489      1.0  0.98958  0.74502  0.48160  1.0000
  C   C490      1.0  0.99022  0.85050  0.47478  1.0000
  H   H864      1.0  0.07561  0.96434  0.46523  1.0000
  S   S150      1.0  0.00011  0.63926  0.42728  1.0000
  H   H865      1.0  0.02997  0.80431  0.46335  1.0000
  S   S151      1.0  0.00047  0.49119  0.36761  1.0000
  H   H866      1.0  0.05705  0.96577  0.46942  1.0000
  H   H867      1.0  0.02930  0.49438  0.28767  1.0000
  H   H868      1.0  0.18548  0.90039  0.44376  1.0000
  H   H869      1.0  0.01231  0.56002  0.25490  1.0000
  H   H870      1.0  0.00647  0.61373  0.42548  1.0000
  H   H871      1.0  0.98870  0.84475  0.48280  1.0000
  H   H872      1.0  0.19526  0.97802  0.46538  1.0000
  H   H873      1.0  0.99208  0.52708  0.24672  1.0000
  Fe  Fe69      1.0  0.99368  0.87620  0.44497  1.0000
  H   H874      1.0  0.14867  0.98042  0.46975  1.0000
  S   S152      1.0  0.00838  0.86239  0.44331  1.0000
  C   C491      1.0  0.01503  0.57825  0.41126  1.0000
  C   C492      1.0  0.14135  0.98593  0.44190  1.0000
  S   S153      1.0  0.99248  0.79164  0.45098  1.0000
  N   N38       1.0  0.99026  0.52360  0.33440  1.0000
  H   H875      1.0  0.00293  0.51340  0.31661  1.0000
  H   H876      1.0  0.00603  0.52717  0.32547  1.0000
  H   H877      1.0  0.99268  0.63795  0.47510  1.0000
  N   N39       1.0  0.00852  0.54450  0.24620  1.0000
  S   S154      1.0  0.98928  0.58893  0.43537  1.0000
  H   H878      1.0  0.99146  0.61695  0.47090  1.0000
  C   C493      1.0  0.00647  0.55550  0.26099  1.0000
  S   S155      1.0  0.99053  0.70933  0.44379  1.0000
  H   H879      1.0  0.07158  0.97119  0.45262  1.0000
  H   H880      1.0  0.99211  0.56951  0.42735  1.0000
  C   C494      1.0  0.07188  0.98065  0.47457  1.0000
  H   H881      1.0  0.98772  0.53946  0.25168  1.0000
  H   H882      1.0  0.04433  0.97511  0.47163  1.0000
  H   H883      1.0  0.16610  0.91357  0.47737  1.0000
  H   H884      1.0  0.99544  0.61618  0.40241  1.0000
  Fe  Fe70      1.0  0.98927  0.69918  0.46104  1.0000
  H   H885      1.0  0.00619  0.52576  0.30762  1.0000
  C   C495      1.0  0.00203  0.51646  0.27886  1.0000
  H   H886      1.0  0.02064  0.90253  0.46901  1.0000
  H   H887      1.0  0.14126  0.94260  0.48328  1.0000
  C   C496      1.0  0.99125  0.50748  0.27328  1.0000
  C   C497      1.0  0.07154  0.94370  0.41048  1.0000
  S   S156      1.0  0.00613  0.81595  0.43844  1.0000
  H   H888      1.0  0.00389  0.56870  0.24089  1.0000
  C   C498      1.0  0.06144  0.92913  0.42128  1.0000
  S   S157      1.0  0.99298  0.88852  0.45439  1.0000
  C   C499      1.0  0.00893  0.56422  0.23443  1.0000
  C   C500      1.0  0.00600  0.55310  0.23618  1.0000
  H   H889      1.0  0.06833  0.91794  0.39743  1.0000
  H   H890      1.0  0.17802  0.92776  0.44326  1.0000
  C   C501      1.0  0.01222  0.60844  0.39507  1.0000
  H   H891      1.0  0.16031  0.98165  0.44755  1.0000
  H   H892      1.0  0.08750  0.98601  0.46984  1.0000
  H   H893      1.0  0.00727  0.49748  0.33865  1.0000
  H   H894      1.0  0.16494  0.92673  0.45065  1.0000
  H   H895      1.0  0.00779  0.62006  0.41130  1.0000
  C   C502      1.0  0.00549  0.53421  0.24588  1.0000
  H   H896      1.0  0.00644  0.81452  0.48034  1.0000
  H   H897      1.0  0.99987  0.77429  0.47951  1.0000
  C   C503      1.0  0.00049  0.50299  0.26616  1.0000
  H   H898      1.0  0.17824  0.88829  0.46386  1.0000
  H   H899      1.0  0.01247  0.57860  0.42007  1.0000
  C   C504      1.0  0.02458  0.53232  0.25469  1.0000
  H   H900      1.0  0.18429  0.97763  0.43579  1.0000
  H   H901      1.0  0.01126  0.51003  0.33264  1.0000
  H   H902      1.0  0.00891  0.80193  0.45974  1.0000
  C   C505      1.0  0.99577  0.73739  0.46470  1.0000
  C   C506      1.0  0.00554  0.70133  0.47584  1.0000
  C   C507      1.0  0.01587  0.70130  0.47680  1.0000
  C   C508      1.0  0.99508  0.48902  0.30483  1.0000
  H   H903      1.0  0.00993  0.77923  0.46825  1.0000
  H   H904      1.0  0.02021  0.83441  0.47829  1.0000
  H   H905      1.0  0.04485  0.95085  0.39943  1.0000
  H   H906      1.0  0.02296  0.69642  0.47243  1.0000
  C   C509      1.0  0.07580  0.97195  0.45864  1.0000
  H   H907      1.0  0.00832  0.75181  0.45788  1.0000
  C   C510      1.0  0.05292  0.97353  0.47215  1.0000
  C   C511      1.0  0.00710  0.84964  0.44217  1.0000
  C   C512      1.0  0.01637  0.84269  0.43746  1.0000
  C   C513      1.0  0.01585  0.83246  0.43637  1.0000
  C   C514      1.0  0.00610  0.82893  0.44015  1.0000
  C   C515      1.0  0.99685  0.83566  0.44525  1.0000
  C   C516      1.0  0.99730  0.84611  0.44610  1.0000
  H   H908      1.0  0.02398  0.84532  0.43448  1.0000
  H   H909      1.0  0.02306  0.82726  0.43251  1.0000
  H   H910      1.0  0.14821  0.98301  0.43574  1.0000
  H   H911      1.0  0.06692  0.98778  0.47824  1.0000
  H   H912      1.0  0.00321  0.92261  0.46721  1.0000
  C   C517      1.0  0.99288  0.64528  0.46826  1.0000
  H   H913      1.0  0.08839  0.97415  0.44349  1.0000
  H   H914      1.0  0.10901  0.97614  0.43795  1.0000
  H   H915      1.0  0.08058  0.92970  0.39676  1.0000
  C   C518      1.0  0.01097  0.61259  0.41713  1.0000
  H   H916      1.0  0.18395  0.97331  0.47493  1.0000
  H   H917      1.0  0.99963  0.56186  0.26422  1.0000
  H   H918      1.0  0.00254  0.53842  0.33755  1.0000
  H   H919      1.0  0.02448  0.93042  0.46260  1.0000
  H   H920      1.0  0.02503  0.53943  0.23752  1.0000
  H   H921      1.0  0.00648  0.50639  0.34731  1.0000
  C   C519      1.0  0.98812  0.61649  0.47958  1.0000
  C   C520      1.0  0.01228  0.96161  0.47711  1.0000
  H   H922      1.0  0.02504  0.80595  0.48155  1.0000
  H   H923      1.0  0.99634  0.88115  0.47555  1.0000
  H   H924      1.0  0.01355  0.84486  0.46854  1.0000
  H   H925      1.0  0.02474  0.52422  0.25330  1.0000
  C   C521      1.0  0.02183  0.80819  0.46152  1.0000
  C   C522      1.0  0.99682  0.65316  0.42825  1.0000
  C   C523      1.0  0.00203  0.66055  0.41979  1.0000
  C   C524      1.0  0.99919  0.67179  0.41973  1.0000
  H   H926      1.0  0.05576  0.98448  0.45663  1.0000
  C   C525      1.0  0.98945  0.52934  0.34334  1.0000
  H   H927      1.0  0.21692  0.98392  0.48168  1.0000
  H   H928      1.0  0.00807  0.65761  0.41306  1.0000
  H   H929      1.0  0.00297  0.67746  0.41290  1.0000
  C   C526      1.0  0.16858  0.90504  0.45926  1.0000
  H   H930      1.0  0.20335  0.90564  0.43845  1.0000
  H   H931      1.0  0.01914  0.51296  0.27184  1.0000
  S   S158      1.0  0.98855  0.91846  0.43676  1.0000
  H   H932      1.0  0.01772  0.50142  0.26017  1.0000
  H   H933      1.0  0.13539  0.97134  0.44589  1.0000
  C   C527      1.0  0.05831  0.94200  0.47311  1.0000
  C   C528      1.0  0.17114  0.95013  0.44084  1.0000
  C   C529      1.0  0.18113  0.95256  0.43475  1.0000
  C   C530      1.0  0.18947  0.95150  0.44005  1.0000
  Fe  Fe71      1.0  0.21319  0.95209  0.44871  1.0000
  C   C531      1.0  0.17787  0.94556  0.45755  1.0000
  C   C532      1.0  0.16956  0.94671  0.45227  1.0000
  H   H934      1.0  0.18247  0.95517  0.42590  1.0000
  H   H935      1.0  0.99940  0.73922  0.45572  1.0000
  C   C533      1.0  0.11223  0.98319  0.43221  1.0000
  H   H936      1.0  0.16204  0.94467  0.45705  1.0000
  C   C534      1.0  0.02059  0.92711  0.43543  1.0000
  C   C535      1.0  0.01087  0.93504  0.43616  1.0000
  C   C536      1.0  0.00110  0.93222  0.43675  1.0000
  C   C537      1.0  0.00090  0.92142  0.43684  1.0000
  C   C538      1.0  0.01057  0.91340  0.43651  1.0000
  C   C539      1.0  0.02037  0.91628  0.43568  1.0000
  H   H937      1.0  0.01092  0.94342  0.43591  1.0000
  H   H938      1.0  0.99368  0.93848  0.43697  1.0000
  H   H939      1.0  0.01055  0.90508  0.43650  1.0000
  H   H940      1.0  0.02785  0.91009  0.43507  1.0000
  C   C540      1.0  0.08162  0.95227  0.43542  1.0000
  C   C541      1.0  0.09086  0.95673  0.43201  1.0000
  C   C542      1.0  0.10064  0.95053  0.43489  1.0000
  C   C543      1.0  0.10133  0.93967  0.44086  1.0000
  C   C544      1.0  0.09206  0.93522  0.44434  1.0000
  C   C545      1.0  0.08216  0.94158  0.44181  1.0000
  H   H941      1.0  0.09049  0.96496  0.42698  1.0000
  H   H942      1.0  0.10779  0.95396  0.43210  1.0000
  H   H943      1.0  0.09257  0.92682  0.44899  1.0000
  H   H944      1.0  0.07505  0.93812  0.44454  1.0000
  H   H945      1.0  0.99537  0.85844  0.41302  1.0000
  C   C546      1.0  0.99365  0.53540  0.24530  1.0000
  H   H946      1.0  0.99826  0.56084  0.32563  1.0000
  H   H947      1.0  0.99256  0.52427  0.31110  1.0000
  C   C547      1.0  0.99552  0.51901  0.37823  1.0000
  H   H948      1.0  0.99843  0.53444  0.35207  1.0000
  H   H949      1.0  0.01111  0.49317  0.28841  1.0000
  N   N40       1.0  0.99387  0.74737  0.46935  1.0000
  H   H950      1.0  0.01570  0.61544  0.39474  1.0000
  H   H951      1.0  0.11233  0.95368  0.48438  1.0000
  H   H952      1.0  0.02501  0.70746  0.48426  1.0000
  C   C548      1.0  0.07643  0.92573  0.40504  1.0000
  C   C549      1.0  0.99338  0.51128  0.33832  1.0000
  H   H953      1.0  0.02161  0.88794  0.48397  1.0000
  H   H954      1.0  0.17430  0.89598  0.47454  1.0000
  H   H955      1.0  0.09231  0.96279  0.45391  1.0000
  C   C550      1.0  0.01055  0.50500  0.26560  1.0000
  H   H956      1.0  0.16663  0.90242  0.45271  1.0000
  C   C551      1.0  0.13401  0.97929  0.44765  1.0000
  C   C552      1.0  0.98943  0.85590  0.42066  1.0000
  S   S159      1.0  0.98980  0.52504  0.39806  1.0000
  H   H957      1.0  0.99494  0.53693  0.32114  1.0000
  H   H958      1.0  0.01962  0.53319  0.26296  1.0000
  C   C553      1.0  0.00471  0.75044  0.46689  1.0000
  H   H959      1.0  0.01120  0.50023  0.29830  1.0000
  H   H960      1.0  0.02244  0.91982  0.45779  1.0000
  C   C554      1.0  0.00195  0.54814  0.25663  1.0000
  S   S160      1.0  0.99158  0.61250  0.44842  1.0000
  H   H961      1.0  0.99214  0.53988  0.23705  1.0000
  S   S161      1.0  0.99366  0.55994  0.34875  1.0000
  H   H962      1.0  0.07469  0.91584  0.42705  1.0000
  H   H963      1.0  0.12093  0.98140  0.43241  1.0000
  H   H964      1.0  0.00022  0.60294  0.41681  1.0000
  H   H965      1.0  0.16140  0.91844  0.43861  1.0000
  H   H966      1.0  0.08378  0.97929  0.48378  1.0000
  S   S162      1.0  0.03721  0.94015  0.47791  1.0000
  Fe  Fe72      1.0  0.99131  0.80915  0.44183  1.0000
  H   H967      1.0  0.05680  0.92342  0.42071  1.0000
  S   S163      1.0  0.21286  0.97013  0.44430  1.0000
  N   N41       1.0  0.06986  0.98196  0.46334  1.0000
  C   C555      1.0  0.99135  0.67579  0.42830  1.0000
  H   H968      1.0  0.17038  0.92705  0.42958  1.0000
  H   H969      1.0  0.00201  0.59093  0.40600  1.0000
  Fe  Fe73      1.0  0.13532  0.93496  0.46704  1.0000
  H   H970      1.0  0.99207  0.84081  0.40887  1.0000
  H   H971      1.0  0.17247  0.98152  0.43031  1.0000
  C   C556      1.0  0.08368  0.97925  0.47528  1.0000
  H   H972      1.0  0.00673  0.52432  0.34454  1.0000
  H   H973      1.0  0.18439  0.92219  0.45935  1.0000
  H   H974      1.0  0.16374  0.92664  0.46794  1.0000
  C   C557      1.0  0.17256  0.92189  0.44643  1.0000
  H   H975      1.0  0.98852  0.72579  0.46168  1.0000
  N   N42       1.0  0.00842  0.79829  0.47727  1.0000
  C   C558      1.0  0.16996  0.92020  0.47170  1.0000
  H   H976      1.0  0.02364  0.84755  0.47383  1.0000
  S   S164      1.0  0.00297  0.52540  0.28620  1.0000
  H   H977      1.0  0.98702  0.56009  0.31344  1.0000
  C   C559      1.0  0.08777  0.97151  0.45250  1.0000
  H   H978      1.0  0.11145  0.98326  0.42396  1.0000
  H   H979      1.0  0.07456  0.94457  0.46928  1.0000
  H   H980      1.0  0.16073  0.90997  0.46308  1.0000
  H   H981      1.0  0.19717  0.95333  0.43529  1.0000
  H   H982      1.0  0.99964  0.75068  0.43361  1.0000
  C   C560      1.0  0.99990  0.52241  0.31441  1.0000
  C   C561      1.0  0.08329  0.94130  0.41194  1.0000
  C   C562      1.0  0.18786  0.94788  0.45148  1.0000
  H   H983      1.0  0.01088  0.74127  0.48183  1.0000
  C   C563      1.0  0.00151  0.80895  0.48017  1.0000
  H   H984      1.0  0.01833  0.81567  0.46489  1.0000
  H   H985      1.0  0.16457  0.89070  0.47156  1.0000
  H   H986      1.0  0.00677  0.52768  0.25332  1.0000
  C   C564      1.0  0.06720  0.94399  0.47555  1.0000
  C   C565      1.0  0.99724  0.50047  0.37624  1.0000
  C   C566      1.0  0.01098  0.58936  0.40381  1.0000
  N   N43       1.0  0.17701  0.91188  0.45440  1.0000
  H   H987      1.0  0.19808  0.91641  0.44585  1.0000
  S   S165      1.0  0.14083  0.92125  0.48056  1.0000
  H   H988      1.0  0.19130  0.89864  0.45493  1.0000
  C   C567      1.0  0.18725  0.90509  0.44877  1.0000
  H   H989      1.0  0.99016  0.85134  0.44994  1.0000
  C   C568      1.0  0.01681  0.84338  0.47595  1.0000
  H   H990      1.0  0.03616  0.59953  0.38666  1.0000
  S   S166      1.0  0.00414  0.69291  0.46814  1.0000
  H   H991      1.0  0.08485  0.94887  0.41300  1.0000
  S   S167      1.0  0.99964  0.49511  0.25768  1.0000
  H   H992      1.0  0.00825  0.49210  0.31740  1.0000
  Fe  Fe74      1.0  0.98710  0.53755  0.28839  1.0000
  H   H993      1.0  0.99101  0.75945  0.45464  1.0000
  H   H994      1.0  0.18738  0.98208  0.45000  1.0000
  H   H995      1.0  0.98854  0.86767  0.47453  1.0000
  C   C569      1.0  0.07325  0.91568  0.40372  1.0000
  H   H996      1.0  0.01577  0.73405  0.47069  1.0000
  C   C570      1.0  0.05782  0.98328  0.46469  1.0000
  H   H997      1.0  0.03304  0.53232  0.25460  1.0000
  H   H998      1.0  0.08927  0.93915  0.40451  1.0000
  H   H999      1.0  0.01079  0.53073  0.23875  1.0000
  H   H1000     1.0  0.02393  0.57532  0.40897  1.0000
  C   C571      1.0  0.99390  0.81591  0.47243  1.0000
  C   C572      1.0  0.00624  0.77911  0.47707  1.0000
  H   H1001     1.0  0.09215  0.97611  0.45509  1.0000
  C   C573      1.0  0.00911  0.60203  0.41539  1.0000
  H   H1002     1.0  0.08075  0.90978  0.40079  1.0000
  C   C574      1.0  0.01134  0.51156  0.27212  1.0000
  C   C575      1.0  0.02684  0.59628  0.40371  1.0000
  C   C576      1.0  0.98994  0.56007  0.32901  1.0000
  H   H1003     1.0  0.07138  0.95016  0.40275  1.0000
  H   H1004     1.0  0.01136  0.57195  0.41027  1.0000
  H   H1005     1.0  0.99918  0.61984  0.38780  1.0000
  C   C577      1.0  0.99087  0.75279  0.43570  1.0000
  H   H1006     1.0  0.99107  0.65996  0.47401  1.0000
  C   C578      1.0  0.99298  0.51554  0.38966  1.0000
  C   C579      1.0  0.04876  0.94135  0.48117  1.0000
  H   H1007     1.0  0.01396  0.86555  0.47076  1.0000
  H   H1008     1.0  0.08868  0.97115  0.47375  1.0000
  H   H1009     1.0  0.02281  0.81125  0.45249  1.0000
  H   H1010     1.0  0.02911  0.59017  0.41110  1.0000
  C   C580      1.0  0.17581  0.98249  0.43687  1.0000
  H   H1011     1.0  0.15132  0.96640  0.47697  1.0000
  H   H1012     1.0  0.04415  0.94503  0.41365  1.0000
  H   H1013     1.0  0.06617  0.94789  0.41709  1.0000
  H   H1014     1.0  0.18648  0.96866  0.45703  1.0000
  C   C581      1.0  0.05930  0.93847  0.40267  1.0000
  H   H1015     1.0  0.99102  0.50168  0.40322  1.0000
  H   H1016     1.0  0.01303  0.58816  0.39525  1.0000
  C   C582      1.0  0.03406  0.59241  0.39326  1.0000
  C   C583      1.0  0.01901  0.90546  0.47671  1.0000
  C   C584      1.0  0.04971  0.94790  0.40584  1.0000
  C   C585      1.0  0.00905  0.86625  0.47915  1.0000
  S   S168      1.0  0.22703  0.94755  0.45712  1.0000
  H   H1017     1.0  0.05551  0.93188  0.40250  1.0000
  H   H1018     1.0  0.02957  0.60361  0.40381  1.0000
  C   C586      1.0  0.98822  0.57647  0.42186  1.0000
  H   H1019     1.0  0.01614  0.60596  0.38709  1.0000
  C   C587      1.0  0.99473  0.49695  0.38768  1.0000
  C   C588      1.0  0.17174  0.89444  0.46779  1.0000
  H   H1020     1.0  0.19313  0.91704  0.43396  1.0000
  H   H1021     1.0  0.21066  0.96909  0.47730  1.0000
  C   C589      1.0  0.16606  0.97212  0.46801  1.0000
  C   C590      1.0  0.01448  0.79984  0.46545  1.0000
  H   H1022     1.0  0.98922  0.77108  0.46783  1.0000
  C   C591      1.0  0.00390  0.87858  0.47857  1.0000
  H   H1023     1.0  0.98943  0.83275  0.44861  1.0000
  H   H1024     1.0  0.08280  0.92237  0.40992  1.0000
  H   H1025     1.0  0.17656  0.94281  0.46639  1.0000
  H   H1026     1.0  0.01339  0.95259  0.48021  1.0000
  H   H1027     1.0  0.06932  0.97328  0.48031  1.0000
  H   H1028     1.0  0.99360  0.55256  0.25568  1.0000
  C   C592      1.0  0.99776  0.51146  0.37157  1.0000
  H   H1029     1.0  0.99021  0.64382  0.46151  1.0000
  H   H1030     1.0  0.99258  0.84710  0.42386  1.0000
  S   S169      1.0  0.98782  0.88893  0.43089  1.0000
  C   C593      1.0  0.98905  0.65707  0.43697  1.0000
  C   C594      1.0  0.18630  0.97928  0.46722  1.0000
  S   S170      1.0  0.22388  0.94866  0.43269  1.0000
  C   C595      1.0  0.00006  0.61291  0.39503  1.0000
  C   C596      1.0  0.98666  0.75693  0.46327  1.0000
  Fe  Fe75      1.0  0.98823  0.62845  0.43612  1.0000
  C   C597      1.0  0.99276  0.50446  0.39438  1.0000
  H   H1031     1.0  0.99382  0.49008  0.29642  1.0000
  H   H1032     1.0  0.05235  0.95508  0.40640  1.0000
  H   H1033     1.0  0.18290  0.98778  0.46848  1.0000
  H   H1034     1.0  0.06313  0.91934  0.43746  1.0000
  N   N44       1.0  0.01480  0.59902  0.40448  1.0000
  H   H1035     1.0  0.00171  0.73045  0.46843  1.0000
  H   H1036     1.0  0.08492  0.93479  0.41922  1.0000
  C   C598      1.0  0.00525  0.50621  0.33928  1.0000
  S   S171      1.0  0.22298  0.97806  0.41282  1.0000
  N   N45       1.0  0.17093  0.98006  0.45816  1.0000
  C   C599      1.0  0.17969  0.91564  0.46314  1.0000
  H   H1037     1.0  0.07218  0.92841  0.43183  1.0000
  H   H1038     1.0  0.03034  0.58772  0.38999  1.0000
  H   H1039     1.0  0.22195  0.95036  0.48248  1.0000
  H   H1040     1.0  0.99496  0.79434  0.47362  1.0000
  C   C600      1.0  0.16887  0.97809  0.44809  1.0000
  H   H1041     1.0  0.02358  0.54888  0.24546  1.0000
  H   H1042     1.0  0.98942  0.82356  0.47533  1.0000
  C   C601      1.0  0.01323  0.49194  0.29645  1.0000
  N   N46       1.0  0.00131  0.85856  0.48318  1.0000
  C   C602      1.0  0.99199  0.51435  0.27953  1.0000
  S   S172      1.0  0.23020  0.97460  0.46192  1.0000
  H   H1043     1.0  0.05524  0.93559  0.42506  1.0000
  H   H1044     1.0  0.17067  0.96351  0.46793  1.0000
  C   C603      1.0  0.02057  0.54173  0.24550  1.0000
  H   H1045     1.0  0.98771  0.81169  0.47234  1.0000
  H   H1046     1.0  0.17009  0.96914  0.44868  1.0000
  H   H1047     1.0  0.05884  0.94107  0.46496  1.0000
  H   H1048     1.0  0.98713  0.82960  0.40839  1.0000
  H   H1049     1.0  0.06347  0.94145  0.39403  1.0000
  H   H1050     1.0  0.99630  0.60661  0.39422  1.0000
  H   H1051     1.0  0.98926  0.73592  0.43964  1.0000
  S   S173      1.0  0.19809  0.94614  0.45850  1.0000
  H   H1052     1.0  0.17541  0.91275  0.43331  1.0000
  C   C604      1.0  0.99998  0.53163  0.34433  1.0000
  H   H1053     1.0  0.98842  0.70752  0.48092  1.0000
  H   H1054     1.0  0.01957  0.61210  0.41682  1.0000
  H   H1055     1.0  0.00697  0.96398  0.47114  1.0000
  Fe  Fe76      1.0  0.22771  0.96528  0.45116  1.0000
  H   H1056     1.0  0.04164  0.58671  0.39524  1.0000
  H   H1057     1.0  0.00093  0.54084  0.26348  1.0000
  H   H1058     1.0  0.18509  0.90888  0.46782  1.0000
  H   H1059     1.0  0.06898  0.91122  0.41159  1.0000
  H   H1060     1.0  0.00149  0.64595  0.46543  1.0000
  N   N47       1.0  0.02373  0.91532  0.47487  1.0000
  C   C605      1.0  0.02020  0.92357  0.46505  1.0000
  C   C606      1.0  0.03596  0.91255  0.47223  1.0000
  H   H1061     1.0  0.01990  0.79196  0.46372  1.0000
  C   C607      1.0  0.01702  0.70755  0.48346  1.0000
  C   C608      1.0  0.04148  0.90740  0.46214  1.0000
  C   C609      1.0  0.18295  0.97739  0.45757  1.0000
  C   C610      1.0  0.19585  0.91154  0.44137  1.0000
  C   C611      1.0  0.00086  0.79080  0.47903  1.0000
  H   H1062     1.0  0.03906  0.92010  0.47081  1.0000
  H   H1063     1.0  0.01158  0.59529  0.42228  1.0000
  H   H1064     1.0  0.20021  0.94293  0.48393  1.0000
  H   H1065     1.0  0.99608  0.52744  0.37452  1.0000
  H   H1066     1.0  0.02645  0.98295  0.46237  1.0000
  H   H1067     1.0  0.05037  0.90509  0.46155  1.0000
  H   H1068     1.0  0.03884  0.89980  0.46282  1.0000
  H   H1069     1.0  0.04018  0.91332  0.45436  1.0000
  H   H1070     1.0  0.02089  0.74548  0.47017  1.0000
  H   H1071     1.0  0.00658  0.93514  0.45893  1.0000
  C   C612      1.0  0.20694  0.96186  0.48106  1.0000
  H   H1072     1.0  0.00334  0.61584  0.48326  1.0000
  C   C613      1.0  0.00794  0.92874  0.46643  1.0000
  H   H1073     1.0  0.03930  0.90686  0.47920  1.0000
  C   C614      1.0  0.15402  0.97221  0.46922  1.0000
  Fe  Fe77      1.0  0.22459  0.96645  0.42891  1.0000
  H   H1074     1.0  0.01006  0.55064  0.26814  1.0000
  H   H1075     1.0  0.00463  0.93289  0.47342  1.0000
  H   H1076     1.0  0.00532  0.97684  0.48218  1.0000
  C   C615      1.0  0.99000  0.50007  0.30842  1.0000
  H   H1077     1.0  0.98840  0.50862  0.34663  1.0000
  H   H1078     1.0  0.20629  0.95870  0.47421  1.0000
  H   H1079     1.0  0.02869  0.96556  0.48384  1.0000
  H   H1080     1.0  0.00376  0.75834  0.46915  1.0000
  H   H1081     1.0  0.15277  0.96934  0.46248  1.0000
  H   H1082     1.0  0.00003  0.51412  0.36280  1.0000
  H   H1083     1.0  0.16660  0.97370  0.47580  1.0000
  H   H1084     1.0  0.98898  0.56695  0.41028  1.0000
  H   H1085     1.0  0.00056  0.86171  0.46615  1.0000
  H   H1086     1.0  0.00963  0.88361  0.47292  1.0000
  H   H1087     1.0  0.98856  0.83052  0.42124  1.0000
  H   H1088     1.0  0.23517  0.97679  0.48117  1.0000
  H   H1089     1.0  0.01951  0.92959  0.48206  1.0000
  S   S174      1.0  0.02168  0.98551  0.44128  1.0000
  H   H1090     1.0  0.99848  0.81841  0.46394  1.0000
  H   H1091     1.0  0.17280  0.92390  0.47683  1.0000
  H   H1092     1.0  0.05289  0.97248  0.48090  1.0000
  C   C616      1.0  0.99640  0.70761  0.48150  1.0000
  H   H1093     1.0  0.99533  0.84579  0.46852  1.0000
  C   C617      1.0  0.99792  0.52793  0.32406  1.0000
  C   C618      1.0  0.99516  0.86016  0.47443  1.0000
  S   S175      1.0  0.98678  0.69016  0.42677  1.0000
  H   H1094     1.0  0.99396  0.50678  0.30315  1.0000
  H   H1095     1.0  0.02297  0.78660  0.48125  1.0000
  H   H1096     1.0  0.01002  0.90780  0.47886  1.0000
  C   C619      1.0  0.12488  0.98301  0.45535  1.0000
  H   H1097     1.0  0.21401  0.93674  0.48046  1.0000
  S   S176      1.0  0.99296  0.77399  0.43227  1.0000
  H   H1098     1.0  0.03389  0.97710  0.49511  1.0000
  Fe  Fe78      1.0  0.04980  0.96110  0.52179  1.0000
  S   S177      1.0  0.05378  0.97035  0.50431  1.0000
  S   S178      1.0  0.03262  0.95852  0.52876  1.0000
  Fe  Fe79      1.0  0.07264  0.95849  0.52490  1.0000
  S   S179      1.0  0.07817  0.96724  0.50763  1.0000
  S   S180      1.0  0.08529  0.95175  0.53513  1.0000
  Fe  Fe80      1.0  0.06231  0.97916  0.51062  1.0000
  H   H1099     1.0  0.99751  0.56623  0.54391  1.0000
  Fe  Fe81      1.0  0.06921  0.95751  0.50325  1.0000
  H   H1100     1.0  0.21028  0.93133  0.58053  1.0000
  S   S181      1.0  0.05718  0.97106  0.52832  1.0000
  S   S182      1.0  0.06480  0.94761  0.52031  1.0000
  H   H1101     1.0  0.98862  0.84561  0.50133  1.0000
  Fe  Fe82      1.0  0.13855  0.97136  0.51911  1.0000
  S   S183      1.0  0.14765  0.96653  0.50315  1.0000
  S   S184      1.0  0.12095  0.98024  0.52058  1.0000
  Fe  Fe83      1.0  0.15907  0.96507  0.52818  1.0000
  S   S185      1.0  0.16965  0.95974  0.51302  1.0000
  S   S186      1.0  0.16722  0.96572  0.54095  1.0000
  Fe  Fe84      1.0  0.16010  0.97484  0.50393  1.0000
  H   H1102     1.0  0.01463  0.59233  0.58448  1.0000
  Fe  Fe85      1.0  0.15628  0.95185  0.51388  1.0000
  S   S187      1.0  0.16121  0.93428  0.51229  1.0000
  H   H1103     1.0  0.09990  0.96109  0.49181  1.0000
  S   S188      1.0  0.14624  0.95600  0.52989  1.0000
  H   H1104     1.0  0.99813  0.55030  0.70712  1.0000
  H   H1105     1.0  0.00694  0.55632  0.67726  1.0000
  S   S189      1.0  0.21470  0.93623  0.53438  1.0000
  H   H1106     1.0  0.99175  0.67427  0.51560  1.0000
  C   C620      1.0  0.09711  0.94101  0.50679  1.0000
  H   H1107     1.0  0.02882  0.67852  0.49188  1.0000
  H   H1108     1.0  0.98990  0.49865  0.62057  1.0000
  H   H1109     1.0  0.99802  0.98741  0.50832  1.0000
  H   H1110     1.0  0.00253  0.94812  0.49862  1.0000
  S   S190      1.0  0.15042  0.98084  0.51903  1.0000
  H   H1111     1.0  0.03677  0.96225  0.49823  1.0000
  Fe  Fe86      1.0  0.99511  0.56111  0.59655  1.0000
  H   H1112     1.0  0.01084  0.92029  0.48832  1.0000
  H   H1113     1.0  0.99658  0.64382  0.48901  1.0000
  H   H1114     1.0  0.02002  0.56948  0.52563  1.0000
  S   S191      1.0  0.00500  0.57405  0.59088  1.0000
  H   H1115     1.0  0.00210  0.88055  0.48678  1.0000
  C   C621      1.0  0.99174  0.76901  0.55728  1.0000
  H   H1116     1.0  0.99836  0.86088  0.49964  1.0000
  C   C622      1.0  0.22307  0.93628  0.58414  1.0000
  H   H1117     1.0  0.02061  0.66631  0.51566  1.0000
  H   H1118     1.0  0.09163  0.98055  0.55233  1.0000
  H   H1119     1.0  0.15168  0.90844  0.49766  1.0000
  H   H1120     1.0  0.98779  0.58413  0.57839  1.0000
  H   H1121     1.0  0.00206  0.66920  0.52980  1.0000
  C   C623      1.0  0.01636  0.95383  0.49996  1.0000
  C   C624      1.0  0.21372  0.95383  0.56368  1.0000
  C   C625      1.0  0.01426  0.67191  0.49486  1.0000
  H   H1122     1.0  0.08392  0.93269  0.51080  1.0000
  H   H1123     1.0  0.01562  0.55860  0.71230  1.0000
  H   H1124     1.0  0.99046  0.71862  0.49248  1.0000
  H   H1125     1.0  0.01117  0.53465  0.69422  1.0000
  H   H1126     1.0  0.23478  0.94207  0.56381  1.0000
  H   H1127     1.0  0.01653  0.89648  0.49391  1.0000
  Fe  Fe87      1.0  0.99434  0.72360  0.51161  1.0000
  S   S192      1.0  0.99682  0.61986  0.55738  1.0000
  C   C626      1.0  0.02321  0.97029  0.48999  1.0000
  H   H1128     1.0  0.99770  0.96957  0.50652  1.0000
  C   C627      1.0  0.00637  0.55210  0.70465  1.0000
  H   H1129     1.0  0.99957  0.65789  0.52603  1.0000
  H   H1130     1.0  0.12479  0.94176  0.51751  1.0000
  N   N48       1.0  0.04066  0.92772  0.55406  1.0000
  S   S193      1.0  0.07659  0.95013  0.48854  1.0000
  Fe  Fe88      1.0  0.00326  0.91436  0.52495  1.0000
  H   H1131     1.0  0.99073  0.51491  0.60028  1.0000
  S   S194      1.0  0.01992  0.91636  0.52471  1.0000
  H   H1132     1.0  0.01152  0.98694  0.50038  1.0000
  H   H1133     1.0  0.02140  0.56225  0.67158  1.0000
  Fe  Fe89      1.0  0.99057  0.91417  0.50889  1.0000
  S   S195      1.0  0.00325  0.90132  0.51654  1.0000
  C   C628      1.0  0.01614  0.49206  0.59343  1.0000
  H   H1134     1.0  0.02322  0.57352  0.67598  1.0000
  Fe  Fe90      1.0  0.99725  0.53619  0.60246  1.0000
  H   H1135     1.0  0.02894  0.94269  0.54933  1.0000
  H   H1136     1.0  0.99751  0.55142  0.68872  1.0000
  C   C629      1.0  0.04465  0.92170  0.56440  1.0000
  H   H1137     1.0  0.02007  0.55713  0.57470  1.0000
  C   C630      1.0  0.21460  0.94290  0.56071  1.0000
  H   H1138     1.0  0.17528  0.98117  0.51031  1.0000
  C   C631      1.0  0.00592  0.66194  0.52614  1.0000
  H   H1139     1.0  0.01211  0.54396  0.70574  1.0000
  H   H1140     1.0  0.00892  0.96838  0.51186  1.0000
  H   H1141     1.0  0.10579  0.97917  0.54674  1.0000
  Fe  Fe91      1.0  0.99265  0.82938  0.51966  1.0000
  H   H1142     1.0  0.20604  0.95318  0.51320  1.0000
  S   S196      1.0  0.00392  0.84079  0.51598  1.0000
  H   H1143     1.0  0.22155  0.95638  0.56133  1.0000
  C   C632      1.0  0.99018  0.87012  0.53250  1.0000
  H   H1144     1.0  0.04719  0.93726  0.53822  1.0000
  S   S197      1.0  0.99257  0.81381  0.53270  1.0000
  H   H1145     1.0  0.01126  0.53694  0.68007  1.0000
  H   H1146     1.0  0.20621  0.94152  0.56335  1.0000
  H   H1147     1.0  0.05070  0.91970  0.53330  1.0000
  C   C633      1.0  0.12352  0.93368  0.51745  1.0000
  H   H1148     1.0  0.05018  0.90516  0.57353  1.0000
  S   S198      1.0  0.99324  0.63374  0.52775  1.0000
  H   H1149     1.0  0.09604  0.92576  0.50335  1.0000
  H   H1150     1.0  0.99434  0.58378  0.55716  1.0000
  C   C634      1.0  0.05000  0.92999  0.54451  1.0000
  H   H1151     1.0  0.03790  0.92170  0.57182  1.0000
  C   C635      1.0  0.99781  0.50854  0.59838  1.0000
  S   S199      1.0  0.99158  0.92749  0.51609  1.0000
  H   H1152     1.0  0.02756  0.79490  0.49299  1.0000
  H   H1153     1.0  0.01061  0.93884  0.50768  1.0000
  C   C636      1.0  0.99860  0.85200  0.52244  1.0000
  C   C637      1.0  0.00340  0.86113  0.51871  1.0000
  C   C638      1.0  0.99909  0.87026  0.52361  1.0000
  H   H1154     1.0  0.11010  0.92622  0.52019  1.0000
  N   N49       1.0  0.00848  0.55841  0.69285  1.0000
  H   H1155     1.0  0.01046  0.86115  0.51202  1.0000
  H   H1156     1.0  0.00285  0.87724  0.52072  1.0000
  S   S200      1.0  0.22863  0.98539  0.51009  1.0000
  S   S201      1.0  0.98973  0.91799  0.49126  1.0000
  H   H1157     1.0  0.01094  0.65597  0.53175  1.0000
  H   H1158     1.0  0.03059  0.89406  0.48671  1.0000
  H   H1159     1.0  0.09939  0.98755  0.55655  1.0000
  C   C639      1.0  0.01706  0.50108  0.59671  1.0000
  C   C640      1.0  0.00763  0.78324  0.54380  1.0000
  C   C641      1.0  0.15118  0.91702  0.49719  1.0000
  S   S202      1.0  0.22949  0.95938  0.53528  1.0000
  C   C642      1.0  0.00586  0.97154  0.50414  1.0000
  C   C643      1.0  0.98957  0.85196  0.53119  1.0000
  C   C644      1.0  0.21423  0.95311  0.48823  1.0000
  H   H1160     1.0  0.01374  0.49797  0.62161  1.0000
  H   H1161     1.0  0.00143  0.95063  0.51200  1.0000
  C   C645      1.0  0.01832  0.57546  0.53089  1.0000
  S   S203      1.0  0.00959  0.52021  0.60372  1.0000
  C   C646      1.0  0.10875  0.95806  0.49119  1.0000
  C   C647      1.0  0.00229  0.76792  0.51978  1.0000
  H   H1162     1.0  0.20459  0.98754  0.50472  1.0000
  C   C648      1.0  0.00128  0.78331  0.55576  1.0000
  H   H1163     1.0  0.00428  0.57060  0.56927  1.0000
  C   C649      1.0  0.00143  0.58704  0.58231  1.0000
  C   C650      1.0  0.00801  0.59446  0.58033  1.0000
  C   C651      1.0  0.00624  0.60455  0.57289  1.0000
  C   C652      1.0  0.99797  0.60733  0.56718  1.0000
  C   C653      1.0  0.99117  0.60003  0.56923  1.0000
  C   C654      1.0  0.99286  0.58988  0.57689  1.0000
  C   C655      1.0  0.02666  0.67074  0.49224  1.0000
  H   H1164     1.0  0.01148  0.61016  0.57139  1.0000
  H   H1165     1.0  0.99381  0.68218  0.49064  1.0000
  H   H1166     1.0  0.05627  0.93222  0.54721  1.0000
  C   C656      1.0  0.01313  0.54030  0.68615  1.0000
  H   H1167     1.0  0.12956  0.93043  0.51061  1.0000
  H   H1168     1.0  0.01065  0.58113  0.52931  1.0000
  H   H1169     1.0  0.02491  0.50167  0.59730  1.0000
  C   C657      1.0  0.21115  0.92062  0.56325  1.0000
  H   H1170     1.0  0.11215  0.91694  0.50794  1.0000
  C   C658      1.0  0.20672  0.98343  0.49774  1.0000
  Fe  Fe92      1.0  0.99177  0.80609  0.51953  1.0000
  H   H1171     1.0  0.02191  0.54016  0.68372  1.0000
  H   H1172     1.0  0.21662  0.94436  0.55160  1.0000
  H   H1173     1.0  0.03868  0.91381  0.54900  1.0000
  H   H1174     1.0  0.02451  0.58197  0.55052  1.0000
  H   H1175     1.0  0.04998  0.92615  0.56593  1.0000
  H   H1176     1.0  0.01203  0.78792  0.49274  1.0000
  C   C659      1.0  0.06634  0.94581  0.48590  1.0000
  C   C660      1.0  0.03917  0.94716  0.55689  1.0000
  H   H1177     1.0  0.00412  0.79039  0.53788  1.0000
  H   H1178     1.0  0.01466  0.59500  0.53531  1.0000
  C   C661      1.0  0.11175  0.93455  0.51687  1.0000
  C   C662      1.0  0.00784  0.71360  0.48937  1.0000
  N   N50       1.0  0.99028  0.78049  0.55886  1.0000
  H   H1179     1.0  0.01280  0.58640  0.56027  1.0000
  C   C663      1.0  0.22876  0.93123  0.49521  1.0000
  C   C664      1.0  0.99921  0.57951  0.55045  1.0000
  C   C665      1.0  0.02119  0.80016  0.48852  1.0000
  N   N51       1.0  0.01078  0.57520  0.55174  1.0000
  H   H1180     1.0  0.98986  0.54157  0.63534  1.0000
  C   C666      1.0  0.18038  0.95748  0.53931  1.0000
  C   C667      1.0  0.18225  0.94674  0.53797  1.0000
  C   C668      1.0  0.19280  0.94017  0.53671  1.0000
  C   C669      1.0  0.20154  0.94445  0.53643  1.0000
  C   C670      1.0  0.19970  0.95525  0.53761  1.0000
  C   C671      1.0  0.18911  0.96169  0.53923  1.0000
  H   H1181     1.0  0.17554  0.94346  0.53800  1.0000
  H   H1182     1.0  0.19418  0.93184  0.53575  1.0000
  H   H1183     1.0  0.20640  0.95866  0.53728  1.0000
  H   H1184     1.0  0.18767  0.97004  0.54017  1.0000
  S   S204      1.0  0.23057  0.95481  0.51151  1.0000
  H   H1185     1.0  0.09239  0.94604  0.51294  1.0000
  C   C672      1.0  0.99823  0.57576  0.68092  1.0000
  C   C673      1.0  0.04818  0.94247  0.49170  1.0000
  C   C674      1.0  0.21926  0.93011  0.57779  1.0000
  C   C675      1.0  0.15519  0.93097  0.50359  1.0000
  H   H1186     1.0  0.15986  0.91357  0.51000  1.0000
  C   C676      1.0  0.99657  0.67361  0.50729  1.0000
  C   C677      1.0  0.11148  0.95099  0.50220  1.0000
  H   H1187     1.0  0.99335  0.57163  0.67829  1.0000
  C   C678      1.0  0.03021  0.96979  0.49795  1.0000
  H   H1188     1.0  0.99901  0.77685  0.57884  1.0000
  C   C679      1.0  0.02886  0.94740  0.52655  1.0000
  C   C680      1.0  0.01807  0.94621  0.53044  1.0000
  C   C681      1.0  0.01506  0.93695  0.52952  1.0000
  C   C682      1.0  0.02287  0.92879  0.52479  1.0000
  C   C683      1.0  0.03358  0.93013  0.52070  1.0000
  C   C684      1.0  0.03654  0.93940  0.52153  1.0000
  H   H1189     1.0  0.01206  0.95234  0.53438  1.0000
  H   H1190     1.0  0.00680  0.93596  0.53279  1.0000
  H   H1191     1.0  0.03966  0.92386  0.51701  1.0000
  H   H1192     1.0  0.04486  0.94017  0.51857  1.0000
  C   C685      1.0  0.09532  0.95956  0.53099  1.0000
  C   C686      1.0  0.09353  0.97012  0.52435  1.0000
  C   C687      1.0  0.10158  0.97624  0.52092  1.0000
  C   C688      1.0  0.11149  0.97187  0.52414  1.0000
  C   C689      1.0  0.11338  0.96126  0.53070  1.0000
  C   C690      1.0  0.10526  0.95515  0.53421  1.0000
  H   H1193     1.0  0.08579  0.97378  0.52213  1.0000
  H   H1194     1.0  0.10005  0.98445  0.51585  1.0000
  H   H1195     1.0  0.12098  0.95786  0.53330  1.0000
  H   H1196     1.0  0.10670  0.94701  0.53941  1.0000
  C   C691      1.0  0.00726  0.55770  0.71331  1.0000
  C   C692      1.0  0.05688  0.94495  0.49399  1.0000
  H   H1197     1.0  0.99273  0.56882  0.69781  1.0000
  H   H1198     1.0  0.11219  0.96550  0.48887  1.0000
  H   H1199     1.0  0.02570  0.55152  0.69213  1.0000
  H   H1200     1.0  0.02236  0.94952  0.49382  1.0000
  H   H1201     1.0  0.04085  0.94187  0.49795  1.0000
  H   H1202     1.0  0.05622  0.94633  0.50196  1.0000
  C   C693      1.0  0.00338  0.49104  0.63718  1.0000
  C   C694      1.0  0.98771  0.75941  0.53178  1.0000
  H   H1203     1.0  0.00376  0.57517  0.69519  1.0000
  C   C695      1.0  0.99038  0.68270  0.49933  1.0000
  H   H1204     1.0  0.03067  0.66390  0.49808  1.0000
  C   C696      1.0  0.99484  0.61583  0.48658  1.0000
  C   C697      1.0  0.01945  0.92067  0.48465  1.0000
  C   C698      1.0  0.00795  0.50937  0.59913  1.0000
  H   H1205     1.0  0.19163  0.95619  0.51592  1.0000
  S   S205      1.0  0.00931  0.72066  0.49837  1.0000
  C   C699      1.0  0.01267  0.59559  0.54399  1.0000
  C   C700      1.0  0.00684  0.96798  0.48633  1.0000
  H   H1206     1.0  0.02806  0.55910  0.56103  1.0000
  H   H1207     1.0  0.19872  0.96479  0.48580  1.0000
  H   H1208     1.0  0.98904  0.49860  0.59486  1.0000
  H   H1209     1.0  0.04349  0.94414  0.56372  1.0000
  H   H1210     1.0  0.22557  0.92491  0.55195  1.0000
  H   H1211     1.0  0.01603  0.78398  0.54300  1.0000
  C   C701      1.0  0.14610  0.92517  0.48949  1.0000
  C   C702      1.0  0.01317  0.66465  0.51457  1.0000
  C   C703      1.0  0.09823  0.98508  0.54952  1.0000
  C   C704      1.0  0.02461  0.56443  0.67748  1.0000
  H   H1212     1.0  0.00128  0.50752  0.62589  1.0000
  C   C705      1.0  0.99808  0.75847  0.52498  1.0000
  H   H1213     1.0  0.99190  0.56507  0.55857  1.0000
  C   C706      1.0  0.19903  0.95549  0.50928  1.0000
  H   H1214     1.0  0.02131  0.56487  0.69435  1.0000
  H   H1215     1.0  0.99863  0.49411  0.64472  1.0000
  H   H1216     1.0  0.99429  0.73705  0.48550  1.0000
  C   C707      1.0  0.00707  0.94768  0.50479  1.0000
  H   H1217     1.0  0.02568  0.96992  0.50648  1.0000
  H   H1218     1.0  0.06311  0.92329  0.53208  1.0000
  C   C708      1.0  0.01776  0.56918  0.54294  1.0000
  H   H1219     1.0  0.02067  0.95247  0.50662  1.0000
  H   H1220     1.0  0.20190  0.92358  0.48703  1.0000
  S   S206      1.0  0.99034  0.90933  0.53966  1.0000
  H   H1221     1.0  0.22769  0.91578  0.56453  1.0000
  H   H1222     1.0  0.01801  0.68465  0.50634  1.0000
  H   H1223     1.0  0.20998  0.95359  0.57250  1.0000
  N   N52       1.0  0.01307  0.96591  0.49512  1.0000
  H   H1224     1.0  0.02712  0.93753  0.56370  1.0000
  C   C709      1.0  0.99049  0.61551  0.49780  1.0000
  H   H1225     1.0  0.02490  0.58006  0.52802  1.0000
  H   H1226     1.0  0.00760  0.68566  0.52399  1.0000
  H   H1227     1.0  0.19660  0.93982  0.50935  1.0000
  C   C710      1.0  0.00308  0.68908  0.51730  1.0000
  C   C711      1.0  0.02548  0.91616  0.49415  1.0000
  C   C712      1.0  0.05125  0.90978  0.56484  1.0000
  H   H1228     1.0  0.99320  0.58409  0.68158  1.0000
  C   C713      1.0  0.00614  0.55204  0.68602  1.0000
  H   H1229     1.0  0.11869  0.91678  0.49405  1.0000
  H   H1230     1.0  0.12519  0.92803  0.52525  1.0000
  H   H1231     1.0  0.98717  0.78879  0.54274  1.0000
  C   C714      1.0  0.19899  0.94702  0.50301  1.0000
  S   S207      1.0  0.99741  0.54874  0.58661  1.0000
  H   H1232     1.0  0.01734  0.60125  0.54458  1.0000
  H   H1233     1.0  0.01506  0.80475  0.49442  1.0000
  H   H1234     1.0  0.01048  0.76712  0.51489  1.0000
  H   H1235     1.0  0.99283  0.76917  0.54844  1.0000
  H   H1236     1.0  0.23028  0.93106  0.58731  1.0000
  H   H1237     1.0  0.23566  0.93754  0.55206  1.0000
  H   H1238     1.0  0.21664  0.93775  0.59154  1.0000
  H   H1239     1.0  0.00509  0.55242  0.72160  1.0000
  N   N53       1.0  0.00821  0.67386  0.50612  1.0000
  H   H1240     1.0  0.03091  0.92657  0.54374  1.0000
  S   S208      1.0  0.99371  0.82114  0.50626  1.0000
  H   H1241     1.0  0.04482  0.94989  0.54909  1.0000
  H   H1242     1.0  0.10715  0.95584  0.50862  1.0000
  H   H1243     1.0  0.99870  0.54005  0.65038  1.0000
  H   H1244     1.0  0.02609  0.90727  0.49758  1.0000
  H   H1245     1.0  0.21142  0.92022  0.49555  1.0000
  H   H1246     1.0  0.03349  0.56104  0.67542  1.0000
  C   C715      1.0  0.21743  0.93584  0.50180  1.0000
  C   C716      1.0  0.15581  0.91991  0.50415  1.0000
  S   S209      1.0  0.99074  0.54710  0.67087  1.0000
  H   H1247     1.0  0.99939  0.76369  0.55956  1.0000
  H   H1248     1.0  0.02091  0.92040  0.50094  1.0000
  Fe  Fe93      1.0  0.98936  0.89740  0.53047  1.0000
  C   C717      1.0  0.20716  0.93777  0.48765  1.0000
  C   C718      1.0  0.09283  0.93042  0.50997  1.0000
  N   N54       1.0  0.10908  0.93963  0.50573  1.0000
  S   S210      1.0  0.99856  0.61593  0.50633  1.0000
  Fe  Fe94      1.0  0.23403  0.96763  0.51758  1.0000
  H   H1249     1.0  0.99005  0.65657  0.49333  1.0000
  C   C719      1.0  0.00398  0.98419  0.50138  1.0000
  H   H1250     1.0  0.01553  0.56125  0.54389  1.0000
  H   H1251     1.0  0.99849  0.58590  0.54283  1.0000
  S   S211      1.0  0.99686  0.54829  0.61204  1.0000
  H   H1252     1.0  0.21163  0.97511  0.50044  1.0000
  C   C720      1.0  0.11816  0.92042  0.50103  1.0000
  S   S212      1.0  0.99507  0.71892  0.52943  1.0000
  H   H1253     1.0  0.00827  0.77555  0.54130  1.0000
  H   H1254     1.0  0.00401  0.59962  0.54634  1.0000
  H   H1255     1.0  0.03365  0.91803  0.49169  1.0000
  H   H1256     1.0  0.99408  0.76534  0.57834  1.0000
  C   C721      1.0  0.99324  0.57084  0.55046  1.0000
  H   H1257     1.0  0.12357  0.93542  0.49364  1.0000
  H   H1258     1.0  0.09439  0.92520  0.51795  1.0000
  H   H1259     1.0  0.98954  0.64374  0.50286  1.0000
  H   H1260     1.0  0.00061  0.98798  0.49393  1.0000
  H   H1261     1.0  0.00836  0.55951  0.56254  1.0000
  H   H1262     1.0  0.20579  0.92683  0.55814  1.0000
  C   C722      1.0  0.05590  0.92081  0.53812  1.0000
  H   H1263     1.0  0.00673  0.77740  0.56099  1.0000
  H   H1264     1.0  0.99602  0.66551  0.50636  1.0000
  C   C723      1.0  0.23383  0.93506  0.56120  1.0000
  H   H1265     1.0  0.04852  0.90509  0.56063  1.0000
  H   H1266     1.0  0.21232  0.91273  0.56084  1.0000
  C   C724      1.0  0.02395  0.91896  0.56018  1.0000
  H   H1267     1.0  0.99652  0.80732  0.48869  1.0000
  H   H1268     1.0  0.09471  0.94550  0.49891  1.0000
  C   C725      1.0  0.02011  0.55951  0.68964  1.0000
  H   H1269     1.0  0.01778  0.92647  0.56176  1.0000
  C   C726      1.0  0.03391  0.92168  0.55123  1.0000
  H   H1270     1.0  0.00303  0.75043  0.52412  1.0000
  H   H1271     1.0  0.19871  0.96376  0.50389  1.0000
  H   H1272     1.0  0.21657  0.95722  0.49340  1.0000
  H   H1273     1.0  0.10634  0.93932  0.52299  1.0000
  H   H1274     1.0  0.06002  0.90960  0.56148  1.0000
  H   H1275     1.0  0.99518  0.50252  0.69774  1.0000
  C   C727      1.0  0.20433  0.92646  0.49309  1.0000
  H   H1276     1.0  0.00180  0.69818  0.51537  1.0000
  H   H1277     1.0  0.99598  0.78977  0.48761  1.0000
  H   H1278     1.0  0.06790  0.98846  0.54132  1.0000
  Fe  Fe95      1.0  0.22787  0.94567  0.52892  1.0000
  S   S213      1.0  0.00186  0.78993  0.51553  1.0000
  H   H1279     1.0  0.01585  0.65677  0.51172  1.0000
  C   C728      1.0  0.99605  0.77834  0.52117  1.0000
  C   C729      1.0  0.14539  0.93625  0.48899  1.0000
  N   N55       1.0  0.20947  0.94345  0.49514  1.0000
  C   C730      1.0  0.14990  0.93915  0.49605  1.0000
  H   H1280     1.0  0.01134  0.67876  0.48830  1.0000
  C   C731      1.0  0.00940  0.68482  0.50686  1.0000
  C   C732      1.0  0.02128  0.56323  0.56677  1.0000
  H   H1281     1.0  0.05884  0.91286  0.54342  1.0000
  H   H1282     1.0  0.01278  0.66437  0.49354  1.0000
  C   C733      1.0  0.00778  0.50069  0.62879  1.0000
  H   H1283     1.0  0.22871  0.93042  0.48698  1.0000
  H   H1284     1.0  0.19213  0.95056  0.49874  1.0000
  C   C734      1.0  0.99684  0.49928  0.59538  1.0000
  C   C735      1.0  0.01551  0.58446  0.55197  1.0000
  H   H1285     1.0  0.20701  0.91956  0.57204  1.0000
  C   C736      1.0  0.11560  0.93311  0.49717  1.0000
  C   C737      1.0  0.98932  0.64809  0.49422  1.0000
  H   H1286     1.0  0.00150  0.56577  0.71338  1.0000
  C   C738      1.0  0.01060  0.56711  0.56268  1.0000
  H   H1287     1.0  0.99485  0.68750  0.52029  1.0000
  H   H1288     1.0  0.21408  0.92888  0.50764  1.0000
  H   H1289     1.0  0.12026  0.95049  0.50122  1.0000
  H   H1290     1.0  0.02622  0.91381  0.56792  1.0000
  Fe  Fe96      1.0  0.98715  0.62380  0.54449  1.0000
  H   H1291     1.0  0.03295  0.95465  0.55856  1.0000
  H   H1292     1.0  0.22476  0.94438  0.57957  1.0000
  H   H1293     1.0  0.01213  0.50416  0.63274  1.0000
  C   C739      1.0  0.03346  0.93865  0.55600  1.0000
  H   H1294     1.0  0.23442  0.93655  0.49419  1.0000
  H   H1295     1.0  0.01998  0.91416  0.55723  1.0000
  H   H1296     1.0  0.00741  0.69135  0.49967  1.0000
  H   H1297     1.0  0.02630  0.56654  0.54389  1.0000
  Fe  Fe97      1.0  0.98833  0.62183  0.52151  1.0000
  C   C740      1.0  0.99170  0.77400  0.57919  1.0000
  H   H1298     1.0  0.23203  0.92284  0.49967  1.0000
  H   H1299     1.0  0.12631  0.91737  0.50299  1.0000
  H   H1300     1.0  0.08217  0.98334  0.53897  1.0000
  H   H1301     1.0  0.98989  0.69100  0.50043  1.0000
  H   H1302     1.0  0.00555  0.57687  0.67442  1.0000
  H   H1303     1.0  0.21893  0.94008  0.50739  1.0000
  H   H1304     1.0  0.98891  0.86995  0.49199  1.0000
  C   C741      1.0  0.22230  0.92346  0.56101  1.0000
  C   C742      1.0  0.98744  0.49479  0.62942  1.0000
  C   C743      1.0  0.00077  0.56955  0.69223  1.0000
  C   C744      1.0  0.01614  0.79273  0.48491  1.0000
  H   H1305     1.0  0.19923  0.98254  0.49612  1.0000
  H   H1306     1.0  0.20819  0.96041  0.55901  1.0000
  N   N56       1.0  0.22251  0.93300  0.56541  1.0000
  H   H1307     1.0  0.02359  0.57005  0.56854  1.0000
  C   C745      1.0  0.99030  0.54427  0.65082  1.0000
  H   H1308     1.0  0.00309  0.84079  0.48914  1.0000
  H   H1309     1.0  0.19740  0.92689  0.50027  1.0000
  H   H1310     1.0  0.00058  0.79158  0.55720  1.0000
  C   C746      1.0  0.99755  0.71372  0.48826  1.0000
  H   H1311     1.0  0.14943  0.94769  0.49555  1.0000
  H   H1312     1.0  0.01227  0.84619  0.49237  1.0000
  H   H1313     1.0  0.22254  0.92120  0.58088  1.0000
  H   H1314     1.0  0.99865  0.96615  0.48994  1.0000
  C   C747      1.0  0.99368  0.86136  0.49356  1.0000
  H   H1315     1.0  0.11153  0.93525  0.49017  1.0000
  C   C748      1.0  0.00605  0.49104  0.59284  1.0000
  S   S214      1.0  0.16776  0.98718  0.49030  1.0000
  C   C749      1.0  0.02215  0.89555  0.48591  1.0000
  H   H1316     1.0  0.02144  0.97887  0.48508  1.0000
  C   C750      1.0  0.00806  0.84705  0.48574  1.0000
  H   H1317     1.0  0.99093  0.75123  0.48522  1.0000
  H   H1318     1.0  0.01502  0.86397  0.48448  1.0000
  H   H1319     1.0  0.01863  0.50747  0.84832  1.0000
  H   H1320     1.0  0.04387  0.51061  0.91286  1.0000
  H   H1321     1.0  0.20309  0.54173  0.96011  1.0000
  Fe  Fe98      1.0  0.06461  0.55195  0.93361  1.0000
  S   S215      1.0  0.05117  0.56654  0.93030  1.0000
  S   S216      1.0  0.08221  0.55234  0.92678  1.0000
  Fe  Fe99      1.0  0.04901  0.53734  0.94661  1.0000
  S   S217      1.0  0.03419  0.55085  0.94469  1.0000
  S   S218      1.0  0.04906  0.51979  0.95530  1.0000
  Fe  Fe100     1.0  0.04308  0.55495  0.92703  1.0000
  S   S219      1.0  0.03761  0.55873  0.91093  1.0000
  Fe  Fe101     1.0  0.04367  0.56101  0.94816  1.0000
  S   S220      1.0  0.03637  0.57345  0.95888  1.0000
  S   S221      1.0  0.05733  0.54075  0.92890  1.0000
  S   S222      1.0  0.05767  0.54712  0.95157  1.0000
  C   C751      1.0  0.03213  0.50018  0.95120  1.0000
  C   C752      1.0  0.02996  0.52798  0.90139  1.0000
  H   H1322     1.0  0.01067  0.49556  0.84369  1.0000
  C   C753      1.0  0.15740  0.49729  0.91192  1.0000
  Fe  Fe102     1.0  0.12653  0.55429  0.95050  1.0000
  S   S223      1.0  0.13332  0.53782  0.94624  1.0000
  S   S224      1.0  0.10862  0.55851  0.95767  1.0000
  Fe  Fe103     1.0  0.14880  0.56026  0.94365  1.0000
  S   S225      1.0  0.15719  0.54457  0.93805  1.0000
  S   S226      1.0  0.15802  0.57130  0.94618  1.0000
  Fe  Fe104     1.0  0.14268  0.54720  0.93103  1.0000
  S   S227      1.0  0.14490  0.54459  0.91406  1.0000
  Fe  Fe105     1.0  0.14706  0.53680  0.95364  1.0000
  S   S228      1.0  0.15428  0.52269  0.96577  1.0000
  S   S229      1.0  0.13517  0.56389  0.93495  1.0000
  S   S230      1.0  0.13929  0.55228  0.95964  1.0000
  Fe  Fe106     1.0  0.22126  0.56424  0.93089  1.0000
  S   S231      1.0  0.22279  0.55422  0.94776  1.0000
  S   S232      1.0  0.20790  0.56488  0.92277  1.0000
  Fe  Fe107     1.0  0.22933  0.56803  0.94890  1.0000
  S   S233      1.0  0.22391  0.57684  0.96272  1.0000
  H   H1323     1.0  0.01935  0.49718  0.81399  1.0000
  S   S234      1.0  0.22642  0.57858  0.93266  1.0000
  C   C754      1.0  0.04677  0.51825  0.90827  1.0000
  S   S235      1.0  0.12446  0.50852  0.90857  1.0000
  C   C755      1.0  0.22345  0.51999  0.92900  1.0000
  H   H1324     1.0  0.15828  0.52170  0.91271  1.0000
  H   H1325     1.0  0.02959  0.51044  0.82878  1.0000
  H   H1326     1.0  0.09608  0.54166  0.97231  1.0000
  C   C756      1.0  0.03612  0.58159  0.97611  1.0000
  H   H1327     1.0  0.22899  0.51182  0.92866  1.0000
  H   H1328     1.0  0.01460  0.52399  0.91080  1.0000
  C   C757      1.0  0.20134  0.53655  0.91970  1.0000
  C   C758      1.0  0.08871  0.51707  0.92727  1.0000
  H   H1329     1.0  0.08921  0.50936  0.92489  1.0000
  H   H1330     1.0  0.07344  0.49217  0.96958  1.0000
  H   H1331     1.0  0.05928  0.49574  0.96931  1.0000
  H   H1332     1.0  0.05317  0.58584  0.93790  1.0000
  C   C759      1.0  0.08229  0.59422  0.93933  1.0000
  H   H1333     1.0  0.08589  0.59345  0.94637  1.0000
  H   H1334     1.0  0.04512  0.53952  0.89656  1.0000
  H   H1335     1.0  0.09447  0.53191  0.92178  1.0000
  H   H1336     1.0  0.19579  0.50221  0.97501  1.0000
  H   H1337     1.0  0.17413  0.50203  0.97396  1.0000
  H   H1338     1.0  0.99185  0.50429  0.92659  1.0000
  H   H1339     1.0  0.08563  0.54178  0.88930  1.0000
  C   C760      1.0  0.99108  0.50462  0.86209  1.0000
  H   H1340     1.0  0.99916  0.50406  0.85708  1.0000
  H   H1341     1.0  0.05617  0.53062  0.89017  1.0000
  H   H1342     1.0  0.02557  0.51139  0.79889  1.0000
  Fe  Fe108     1.0  0.12387  0.49487  0.92356  1.0000
  H   H1343     1.0  0.02488  0.49292  0.83839  1.0000
  H   H1344     1.0  0.09391  0.52344  0.88630  1.0000
  H   H1345     1.0  0.07676  0.52922  0.91240  1.0000
  H   H1346     1.0  0.01850  0.54633  0.80845  1.0000
  H   H1347     1.0  0.13239  0.52971  0.97704  1.0000
  C   C761      1.0  0.18676  0.49825  0.92257  1.0000
  H   H1348     1.0  0.02564  0.51629  0.91705  1.0000
  C   C762      1.0  0.15696  0.50158  0.92202  1.0000
  C   C763      1.0  0.23198  0.58432  0.97563  1.0000
  H   H1349     1.0  0.15267  0.58900  0.97207  1.0000
  H   H1350     1.0  0.19124  0.52320  0.93714  1.0000
  H   H1351     1.0  0.04442  0.49833  0.95997  1.0000
  C   C764      1.0  0.02176  0.50364  0.81625  1.0000
  H   H1352     1.0  0.02378  0.51292  0.90512  1.0000
  H   H1353     1.0  0.20352  0.52791  0.91886  1.0000
  H   H1354     1.0  0.05646  0.50473  0.88160  1.0000
  C   C765      1.0  0.13824  0.53524  0.91267  1.0000
  C   C766      1.0  0.13265  0.52883  0.92184  1.0000
  C   C767      1.0  0.12828  0.52070  0.92060  1.0000
  C   C768      1.0  0.12943  0.51900  0.91015  1.0000
  C   C769      1.0  0.13468  0.52564  0.90092  1.0000
  C   C770      1.0  0.13916  0.53369  0.90219  1.0000
  H   H1355     1.0  0.13184  0.52996  0.92991  1.0000
  H   H1356     1.0  0.12403  0.51573  0.92772  1.0000
  H   H1357     1.0  0.13554  0.52437  0.89280  1.0000
  H   H1358     1.0  0.14348  0.53862  0.89505  1.0000
  C   C771      1.0  0.17191  0.56944  0.93977  1.0000
  C   C772      1.0  0.17571  0.56608  0.92980  1.0000
  C   C773      1.0  0.18668  0.56518  0.92450  1.0000
  C   C774      1.0  0.19403  0.56721  0.92931  1.0000
  C   C775      1.0  0.19027  0.57042  0.93938  1.0000
  C   C776      1.0  0.17920  0.57166  0.94453  1.0000
  H   H1359     1.0  0.17013  0.56449  0.92601  1.0000
  H   H1360     1.0  0.18953  0.56275  0.91669  1.0000
  H   H1361     1.0  0.19587  0.57202  0.94313  1.0000
  H   H1362     1.0  0.17631  0.57430  0.95222  1.0000
  H   H1363     1.0  0.15506  0.51882  0.94399  1.0000
  H   H1364     1.0  0.10448  0.52019  0.91876  1.0000
  H   H1365     1.0  0.15749  0.50388  0.90435  1.0000
  H   H1366     1.0  0.04818  0.52048  0.92372  1.0000
  H   H1367     1.0  0.16479  0.50088  0.93912  1.0000
  H   H1368     1.0  0.00377  0.50785  0.88550  1.0000
  C   C777      1.0  0.01531  0.52413  0.98244  1.0000
  H   H1369     1.0  0.08013  0.52156  0.92912  1.0000
  C   C778      1.0  0.09909  0.51683  0.89123  1.0000
  C   C779      1.0  0.15551  0.58000  0.97297  1.0000
  H   H1370     1.0  0.15508  0.56016  0.97183  1.0000
  H   H1371     1.0  0.12592  0.59019  0.96628  1.0000
  S   S236      1.0  0.00958  0.54468  0.84769  1.0000
  C   C780      1.0  0.16187  0.52825  0.97103  1.0000
  C   C781      1.0  0.16624  0.53725  0.96462  1.0000
  C   C782      1.0  0.17202  0.54194  0.96892  1.0000
  C   C783      1.0  0.12658  0.52464  0.97801  1.0000
  C   C784      1.0  0.00283  0.49944  0.89001  1.0000
  H   H1372     1.0  0.16513  0.54071  0.95637  1.0000
  H   H1373     1.0  0.17504  0.54915  0.96404  1.0000
  C   C785      1.0  0.02586  0.55609  0.90890  1.0000
  C   C786      1.0  0.01855  0.55104  0.91753  1.0000
  C   C787      1.0  0.00959  0.54868  0.91541  1.0000
  C   C788      1.0  0.00789  0.55126  0.90466  1.0000
  C   C789      1.0  0.01519  0.55635  0.89604  1.0000
  C   C790      1.0  0.02408  0.55880  0.89818  1.0000
  H   H1374     1.0  0.01981  0.54888  0.92581  1.0000
  H   H1375     1.0  0.05685  0.59823  0.92955  1.0000
  H   H1376     1.0  0.01395  0.55844  0.88776  1.0000
  H   H1377     1.0  0.02965  0.56279  0.89146  1.0000
  C   C791      1.0  0.03971  0.51511  0.95137  1.0000
  C   C792      1.0  0.03283  0.52238  0.94474  1.0000
  C   C793      1.0  0.02560  0.51857  0.94135  1.0000
  C   C794      1.0  0.02545  0.50740  0.94434  1.0000
  H   H1378     1.0  0.13119  0.57246  0.97823  1.0000
  C   C795      1.0  0.03922  0.50402  0.95476  1.0000
  H   H1379     1.0  0.03321  0.53091  0.94194  1.0000
  H   H1380     1.0  0.02045  0.52419  0.93603  1.0000
  H   H1381     1.0  0.99233  0.51695  0.86958  1.0000
  C   C796      1.0  0.01416  0.54581  0.82578  1.0000
  C   C797      1.0  0.08929  0.55470  0.93523  1.0000
  C   C798      1.0  0.10047  0.55402  0.93166  1.0000
  C   C799      1.0  0.10640  0.55537  0.93845  1.0000
  C   C800      1.0  0.10116  0.55755  0.94881  1.0000
  C   C801      1.0  0.08994  0.55842  0.95233  1.0000
  C   C802      1.0  0.08402  0.55692  0.94559  1.0000
  H   H1382     1.0  0.10462  0.55237  0.92366  1.0000
  H   H1383     1.0  0.11505  0.55471  0.93563  1.0000
  H   H1384     1.0  0.08587  0.56007  0.96036  1.0000
  H   H1385     1.0  0.07541  0.55745  0.94842  1.0000
  C   C803      1.0  0.99709  0.54088  0.83553  1.0000
  H   H1386     1.0  0.15791  0.57883  0.96439  1.0000
  H   H1387     1.0  0.01208  0.51662  0.80559  1.0000
  Fe  Fe109     1.0  0.99160  0.54858  0.88673  1.0000
  C   C804      1.0  0.04060  0.57275  0.97088  1.0000
  H   H1388     1.0  0.13745  0.59462  0.96643  1.0000
  H   H1389     1.0  0.02821  0.53495  0.90539  1.0000
  H   H1390     1.0  0.20196  0.54917  0.94654  1.0000
  H   H1391     1.0  0.05207  0.55722  0.97101  1.0000
  H   H1392     1.0  0.08242  0.54533  0.97963  1.0000
  H   H1393     1.0  0.18575  0.49621  0.93164  1.0000
  S   S237      1.0  0.13227  0.49274  0.93708  1.0000
  H   H1394     1.0  0.09158  0.51462  0.93503  1.0000
  C   C805      1.0  0.99836  0.50006  0.92066  1.0000
  C   C806      1.0  0.02055  0.51374  0.80665  1.0000
  H   H1395     1.0  0.98849  0.57531  0.82454  1.0000
  C   C807      1.0  0.02634  0.52724  0.98001  1.0000
  C   C808      1.0  0.19106  0.51821  0.95435  1.0000
  H   H1396     1.0  0.07249  0.54596  0.89680  1.0000
  S   S238      1.0  0.06590  0.48928  0.91052  1.0000
  N   N57       1.0  0.16647  0.50616  0.92156  1.0000
  H   H1397     1.0  0.08105  0.54108  0.91128  1.0000
  C   C809      1.0  0.07930  0.53866  0.89610  1.0000
  H   H1398     1.0  0.10550  0.54239  0.91043  1.0000
  H   H1399     1.0  0.02089  0.52104  0.84296  1.0000
  H   H1400     1.0  0.02478  0.53638  0.97762  1.0000
  H   H1401     1.0  0.99049  0.51678  0.89750  1.0000
  N   N58       1.0  0.09413  0.52731  0.90704  1.0000
  C   C810      1.0  0.21238  0.51834  0.93646  1.0000
  H   H1402     1.0  0.10857  0.54838  0.89619  1.0000
  H   H1403     1.0  0.08196  0.49748  0.94275  1.0000
  H   H1404     1.0  0.98799  0.53781  0.82554  1.0000
  C   C811      1.0  0.08277  0.53413  0.90718  1.0000
  H   H1405     1.0  0.17520  0.48912  0.92377  1.0000
  H   H1406     1.0  0.07652  0.53241  0.89388  1.0000
  H   H1407     1.0  0.20840  0.52429  0.95542  1.0000
  C   C812      1.0  0.09590  0.52441  0.91860  1.0000
  H   H1408     1.0  0.11084  0.52811  0.89973  1.0000
  H   H1409     1.0  0.22026  0.51791  0.97246  1.0000
  H   H1410     1.0  0.07675  0.51582  0.95403  1.0000
  H   H1411     1.0  0.02341  0.52064  0.80752  1.0000
  H   H1412     1.0  0.18696  0.53418  0.94391  1.0000
  C   C813      1.0  0.16498  0.50855  0.93267  1.0000
  H   H1413     1.0  0.21417  0.51226  0.94404  1.0000
  H   H1414     1.0  0.01202  0.49961  0.90131  1.0000
  S   S239      1.0  0.01782  0.50230  0.93861  1.0000
  H   H1415     1.0  0.17190  0.51138  0.93335  1.0000
  H   H1416     1.0  0.17906  0.49719  0.91043  1.0000
  C   C814      1.0  0.17666  0.49744  0.91930  1.0000
  H   H1417     1.0  0.22272  0.52417  0.92046  1.0000
  H   H1418     1.0  0.01904  0.52161  0.82481  1.0000
  C   C815      1.0  0.01667  0.51512  0.84210  1.0000
  C   C816      1.0  0.05138  0.59867  0.95112  1.0000
  C   C817      1.0  0.20704  0.55546  0.97806  1.0000
  N   N59       1.0  0.01561  0.50551  0.82750  1.0000
  C   C818      1.0  0.04560  0.60943  0.94443  1.0000
  H   H1419     1.0  0.03057  0.50047  0.81613  1.0000
  C   C819      1.0  0.99328  0.51459  0.90531  1.0000
  H   H1420     1.0  0.04873  0.53254  0.91304  1.0000
  H   H1421     1.0  0.00789  0.51883  0.84407  1.0000
  H   H1422     1.0  0.03183  0.49160  0.95373  1.0000
  H   H1423     1.0  0.09614  0.50165  0.98361  1.0000
  H   H1424     1.0  0.00098  0.51746  0.90325  1.0000
  H   H1425     1.0  0.03005  0.58837  0.97295  1.0000
  H   H1426     1.0  0.05105  0.61515  0.94003  1.0000
  C   C820      1.0  0.05978  0.59046  0.93522  1.0000
  H   H1427     1.0  0.05252  0.60092  0.95832  1.0000
  H   H1428     1.0  0.04790  0.51934  0.97795  1.0000
  H   H1429     1.0  0.03123  0.52459  0.97236  1.0000
  H   H1430     1.0  0.05045  0.54263  0.87488  1.0000
  C   C821      1.0  0.10268  0.54415  0.90271  1.0000
  S   S240      1.0  0.99672  0.54766  0.90247  1.0000
  C   C822      1.0  0.04369  0.53916  0.88077  1.0000
  H   H1431     1.0  0.19853  0.54536  0.93209  1.0000
  H   H1432     1.0  0.19208  0.54131  0.95491  1.0000
  C   C823      1.0  0.02060  0.51330  0.83024  1.0000
  C   C824      1.0  0.04470  0.52551  0.91655  1.0000
  H   H1433     1.0  0.05571  0.51545  0.90586  1.0000
  C   C825      1.0  0.16323  0.52401  0.98179  1.0000
  H   H1434     1.0  0.03876  0.51757  0.88567  1.0000
  S   S241      1.0  0.21867  0.49714  0.97003  1.0000
  C   C826      1.0  0.20792  0.53135  0.94825  1.0000
  H   H1435     1.0  0.03648  0.54596  0.88207  1.0000
  C   C827      1.0  0.04406  0.51500  0.89168  1.0000
  H   H1436     1.0  0.18302  0.51628  0.95572  1.0000
  H   H1437     1.0  0.10594  0.52171  0.97475  1.0000
  H   H1438     1.0  0.14074  0.57448  0.96552  1.0000
  H   H1439     1.0  0.12054  0.52999  0.97318  1.0000
  H   H1440     1.0  0.04181  0.50733  0.89711  1.0000
  C   C828      1.0  0.15471  0.51709  0.93621  1.0000
  C   C829      1.0  0.20074  0.54148  0.95262  1.0000
  H   H1441     1.0  0.03596  0.52858  0.91976  1.0000
  C   C830      1.0  0.13188  0.58914  0.97129  1.0000
  C   C831      1.0  0.05585  0.51159  0.88544  1.0000
  H   H1442     1.0  0.09468  0.54996  0.90327  1.0000
  H   H1443     1.0  0.07246  0.52716  0.96053  1.0000
  H   H1444     1.0  0.17078  0.53225  0.90781  1.0000
  H   H1445     1.0  0.10768  0.51751  0.88805  1.0000
  H   H1446     1.0  0.09862  0.50888  0.88994  1.0000
  H   H1447     1.0  0.06161  0.50851  0.89099  1.0000
  H   H1448     1.0  0.07099  0.57465  0.96803  1.0000
  H   H1449     1.0  0.01129  0.52853  0.97547  1.0000
  H   H1450     1.0  0.22732  0.52471  0.93210  1.0000
  S   S242      1.0  0.99093  0.56073  0.87044  1.0000
  H   H1451     1.0  0.98988  0.57076  0.84346  1.0000
  H   H1452     1.0  0.20577  0.54123  0.91204  1.0000
  C   C832      1.0  0.99521  0.54021  0.82558  1.0000
  C   C833      1.0  0.20016  0.56604  0.97232  1.0000
  C   C834      1.0  0.06938  0.58408  0.92791  1.0000
  H   H1453     1.0  0.19721  0.51037  0.95457  1.0000
  H   H1454     1.0  0.00277  0.51940  0.82300  1.0000
  H   H1455     1.0  0.08316  0.52722  0.94821  1.0000
  H   H1456     1.0  0.07311  0.57705  0.94888  1.0000
  H   H1457     1.0  0.11233  0.52802  0.94081  1.0000
  H   H1458     1.0  0.20181  0.56604  0.96345  1.0000
  H   H1459     1.0  0.07260  0.58849  0.96253  1.0000
  H   H1460     1.0  0.06897  0.60450  0.94812  1.0000
  C   C835      1.0  0.17339  0.53767  0.97967  1.0000
  N   N60       1.0  0.20448  0.52855  0.93941  1.0000
  H   H1461     1.0  0.05447  0.53547  0.97670  1.0000
  H   H1462     1.0  0.07566  0.58893  0.92362  1.0000
  S   S243      1.0  0.21234  0.49079  0.94577  1.0000
  H   H1463     1.0  0.05842  0.51839  0.87872  1.0000
  H   H1464     1.0  0.14995  0.49421  0.91335  1.0000
  C   C836      1.0  0.23329  0.57578  0.97045  1.0000
  C   C837      1.0  0.00298  0.54214  0.81578  1.0000
  C   C838      1.0  0.06549  0.58200  0.95274  1.0000
  H   H1465     1.0  0.99941  0.51165  0.83632  1.0000
  H   H1466     1.0  0.19249  0.53968  0.92019  1.0000
  H   H1467     1.0  0.07296  0.57589  0.93243  1.0000
  H   H1468     1.0  0.06644  0.58258  0.92136  1.0000
  H   H1469     1.0  0.99056  0.51127  0.82074  1.0000
  Fe  Fe110     1.0  0.99666  0.54568  0.86316  1.0000
  C   C839      1.0  0.01242  0.54493  0.81596  1.0000
  S   S244      1.0  0.00205  0.54007  0.80328  1.0000
  C   C840      1.0  0.01694  0.49484  0.83601  1.0000
  C   C841      1.0  0.19319  0.52641  0.94328  1.0000
  H   H1470     1.0  0.05940  0.58557  0.96929  1.0000
  H   H1471     1.0  0.04173  0.53986  0.97271  1.0000
  H   H1472     1.0  0.17552  0.52404  0.91943  1.0000
  H   H1473     1.0  0.20204  0.57366  0.97276  1.0000
  H   H1474     1.0  0.15595  0.49467  0.92929  1.0000
  H   H1475     1.0  0.21233  0.54077  0.92696  1.0000
  N   N61       1.0  0.14676  0.57390  0.97961  1.0000
  H   H1476     1.0  0.21625  0.53289  0.94527  1.0000
  H   H1477     1.0  0.13769  0.55466  0.98200  1.0000
  S   S245      1.0  0.99848  0.53377  0.87918  1.0000
  H   H1478     1.0  0.14926  0.50788  0.92301  1.0000
  C   C842      1.0  0.20450  0.53808  0.92968  1.0000
  H   H1479     1.0  0.15412  0.52499  0.93007  1.0000
  H   H1480     1.0  0.10203  0.53574  0.89102  1.0000
  C   C843      1.0  0.99722  0.50500  0.82409  1.0000
  H   H1481     1.0  0.18232  0.52098  0.90610  1.0000
  H   H1482     1.0  0.21541  0.55432  0.97285  1.0000
  H   H1483     1.0  0.11451  0.51643  0.95178  1.0000
  H   H1484     1.0  0.02153  0.54798  0.82576  1.0000
  H   H1485     1.0  0.00401  0.54472  0.92213  1.0000
  H   H1486     1.0  0.06979  0.50214  0.93779  1.0000
  H   H1487     1.0  0.17089  0.58302  0.97324  1.0000
  H   H1488     1.0  0.18304  0.51040  0.97970  1.0000
  C   C844      1.0  0.00381  0.51080  0.82784  1.0000
  H   H1489     1.0  0.16976  0.48950  0.97799  1.0000
  C   C845      1.0  0.00654  0.54382  0.83560  1.0000
  C   C846      1.0  0.09551  0.51668  0.90362  1.0000
  H   H1490     1.0  0.20889  0.51406  0.93241  1.0000
  C   C847      1.0  0.04716  0.53308  0.89172  1.0000
  C   C848      1.0  0.15163  0.56180  0.98024  1.0000
  C   C849      1.0  0.10262  0.53348  0.89974  1.0000
  C   C850      1.0  0.07330  0.49713  0.94494  1.0000
  H   H1491     1.0  0.19139  0.56626  0.97554  1.0000
  H   H1492     1.0  0.10176  0.51006  0.90736  1.0000
  C   C851      1.0  0.22701  0.50618  0.96210  1.0000
  H   H1493     1.0  0.14725  0.51397  0.93797  1.0000
  C   C852      1.0  0.17434  0.52361  0.91150  1.0000
  H   H1494     1.0  0.08426  0.58610  0.93725  1.0000
  H   H1495     1.0  0.19074  0.52183  0.96125  1.0000
  H   H1496     1.0  0.08789  0.51362  0.90672  1.0000
  H   H1497     1.0  0.04177  0.53379  0.87664  1.0000
  H   H1498     1.0  0.02644  0.53151  0.89395  1.0000
  H   H1499     1.0  0.16857  0.51412  0.90431  1.0000
  H   H1500     1.0  0.19383  0.49205  0.91942  1.0000
  H   H1501     1.0  0.08674  0.59953  0.93226  1.0000
  C   C853      1.0  0.02327  0.51967  0.90902  1.0000
  C   C854      1.0  0.22603  0.51602  0.96511  1.0000
  H   H1502     1.0  0.99359  0.49906  0.83114  1.0000
  N   N62       1.0  0.04199  0.52357  0.89825  1.0000
  C   C855      1.0  0.07010  0.59997  0.94161  1.0000
  C   C856      1.0  0.16653  0.51633  0.91243  1.0000
  N   N63       1.0  0.09350  0.52361  0.96593  1.0000
  C   C857      1.0  0.09998  0.52958  0.95562  1.0000
  C   C858      1.0  0.08496  0.53207  0.97142  1.0000
  C   C859      1.0  0.08798  0.51622  0.96334  1.0000
  C   C860      1.0  0.10113  0.51672  0.97322  1.0000
  C   C861      1.0  0.10813  0.52248  0.94786  1.0000
  C   C862      1.0  0.08900  0.53828  0.97746  1.0000
  C   C863      1.0  0.07968  0.52208  0.95607  1.0000
  C   C864      1.0  0.23254  0.52341  0.95865  1.0000
  H   H1503     1.0  0.09456  0.53575  0.95062  1.0000
  H   H1504     1.0  0.10469  0.53434  0.95768  1.0000
  H   H1505     1.0  0.07837  0.52838  0.97739  1.0000
  H   H1506     1.0  0.08076  0.53844  0.96531  1.0000
  H   H1507     1.0  0.09398  0.50979  0.95939  1.0000
  H   H1508     1.0  0.08350  0.51160  0.97102  1.0000
  H   H1509     1.0  0.10742  0.51066  0.96903  1.0000
  H   H1510     1.0  0.08555  0.49515  0.90996  1.0000
  H   H1511     1.0  0.10410  0.51828  0.94435  1.0000
  H   H1512     1.0  0.13102  0.51748  0.97424  1.0000
  H   H1513     1.0  0.04184  0.60777  0.93858  1.0000
  H   H1514     1.0  0.00187  0.50086  0.81731  1.0000
  H   H1515     1.0  0.05950  0.57677  0.95471  1.0000
  H   H1516     1.0  0.06862  0.60640  0.93413  1.0000
  C   C865      1.0  0.06719  0.58290  0.96370  1.0000
  C   C866      1.0  0.17251  0.49519  0.98109  1.0000
  H   H1517     1.0  0.03885  0.61371  0.95014  1.0000
  C   C867      1.0  0.00447  0.49703  0.90183  1.0000
  H   H1518     1.0  0.00915  0.49363  0.88545  1.0000
  H   H1519     1.0  0.20356  0.54881  0.97755  1.0000
  H   H1520     1.0  0.18884  0.50638  0.91914  1.0000
  C   C868      1.0  0.04848  0.56401  0.97505  1.0000
  C   C869      1.0  0.13770  0.57695  0.97359  1.0000
  H   H1521     1.0  0.23181  0.53097  0.96104  1.0000
  H   H1522     1.0  0.22573  0.59168  0.97422  1.0000
  H   H1523     1.0  0.00564  0.50339  0.91953  1.0000
  N   N64       1.0  0.99514  0.50232  0.90983  1.0000
  H   H1524     1.0  0.06891  0.50109  0.95189  1.0000
  C   C870      1.0  0.98727  0.51181  0.86930  1.0000
  H   H1525     1.0  0.04550  0.59320  0.95451  1.0000
  H   H1526     1.0  0.03769  0.50696  0.97762  1.0000
  N   N65       1.0  0.06199  0.59274  0.94506  1.0000
  H   H1527     1.0  0.17109  0.56882  0.97529  1.0000
  H   H1528     1.0  0.23652  0.50236  0.98091  1.0000
  H   H1529     1.0  0.99133  0.53895  0.84314  1.0000
  H   H1530     1.0  0.12716  0.59177  0.97899  1.0000
  H   H1531     1.0  0.99485  0.49839  0.88978  1.0000
  H   H1532     1.0  0.16434  0.49025  0.91062  1.0000
  C   C871      1.0  0.04565  0.53579  0.97977  1.0000
  H   H1533     1.0  0.19774  0.51879  0.97851  1.0000
  H   H1534     1.0  0.98789  0.52225  0.91967  1.0000
  C   C872      1.0  0.16599  0.57670  0.97733  1.0000
  C   C873      1.0  0.19027  0.50484  0.98248  1.0000
  C   C874      1.0  0.23453  0.50368  0.95268  1.0000
  H   H1535     1.0  0.98907  0.52542  0.74303  1.0000
  H   H1536     1.0  0.01630  0.51522  0.98306  1.0000
  S   S246      1.0  0.10840  0.49118  0.93485  1.0000
  H   H1537     1.0  0.23524  0.49616  0.95024  1.0000
  H   H1538     1.0  0.98951  0.57427  0.80722  1.0000
  H   H1539     1.0  0.12974  0.49520  0.95861  1.0000
  H   H1540     1.0  0.98702  0.56176  0.83059  1.0000
  S   S247      1.0  0.10867  0.49029  0.96481  1.0000
  Fe  Fe111     1.0  0.98694  0.53986  0.79852  1.0000
  H   H1541     1.0  0.14412  0.49085  0.96888  1.0000
  C   C875      1.0  0.12829  0.49110  0.96717  1.0000
  C   C876      1.0  0.05183  0.56418  0.98441  1.0000
  S   S248      1.0  0.03565  0.48993  0.91452  1.0000
  C   C877      1.0  0.06601  0.48897  0.97187  1.0000
  C   C878      1.0  0.13641  0.48869  0.97300  1.0000
  C   C879      1.0  0.09599  0.51002  0.98433  1.0000
  Fe  Fe112     1.0  0.40228  0.05262  0.09004  1.0000
  S   S249      1.0  0.39779  0.04258  0.08124  1.0000
  S   S250      1.0  0.41678  0.05998  0.08201  1.0000
  Fe  Fe113     1.0  0.38466  0.04840  0.11031  1.0000
  S   S251      1.0  0.37854  0.03808  0.10320  1.0000
  S   S252      1.0  0.37691  0.04911  0.12784  1.0000
  Fe  Fe114     1.0  0.39598  0.03060  0.09748  1.0000
  S   S253      1.0  0.40362  0.01259  0.09921  1.0000
  Fe  Fe115     1.0  0.38082  0.05110  0.08775  1.0000
  S   S254      1.0  0.36807  0.05623  0.07788  1.0000
  S   S255      1.0  0.40195  0.03994  0.10575  1.0000
  S   S256      1.0  0.38539  0.06222  0.09532  1.0000
  S   S257      1.0  0.43113  0.07437  0.11712  1.0000
  Fe  Fe116     1.0  0.38057  0.02972  0.19406  1.0000
  S   S258      1.0  0.37931  0.04701  0.18414  1.0000
  S   S259      1.0  0.36890  0.01893  0.19750  1.0000
  Fe  Fe117     1.0  0.40124  0.02899  0.20004  1.0000
  S   S260      1.0  0.40188  0.04624  0.19072  1.0000
  S   S261      1.0  0.41423  0.01907  0.20904  1.0000
  Fe  Fe118     1.0  0.38411  0.05005  0.19816  1.0000
  S   S262      1.0  0.37628  0.06561  0.20427  1.0000
  Fe  Fe119     1.0  0.39722  0.04151  0.17762  1.0000
  S   S263      1.0  0.40666  0.04502  0.16007  1.0000
  S   S264      1.0  0.38391  0.03318  0.20860  1.0000
  S   S265      1.0  0.39800  0.02391  0.18640  1.0000
  S   S266      1.0  0.47157  0.99346  0.18522  1.0000
  C   C880      1.0  0.40316  0.08393  0.06272  1.0000
  S   S267      1.0  0.41813  0.39553  0.01175  1.0000
  C   C881      1.0  0.36313  0.12119  0.06242  1.0000
  Fe  Fe120     1.0  0.39984  0.37424  0.02345  1.0000
  S   S268      1.0  0.40233  0.38404  0.03397  1.0000
  S   S269      1.0  0.39124  0.36031  0.03171  1.0000
  Fe  Fe121     1.0  0.40028  0.39834  0.01955  1.0000
  S   S270      1.0  0.39153  0.41539  0.02225  1.0000
  Fe  Fe122     1.0  0.41975  0.38052  0.02531  1.0000
  S   S271      1.0  0.43421  0.37287  0.03295  1.0000
  S   S272      1.0  0.39625  0.38884  0.00974  1.0000
  S   S273      1.0  0.41742  0.36968  0.01587  1.0000
  S   S274      1.0  0.45631  0.40298  0.04668  1.0000
  Fe  Fe123     1.0  0.38898  0.28700  0.02755  1.0000
  S   S275      1.0  0.40502  0.27589  0.02291  1.0000
  S   S276      1.0  0.37505  0.27946  0.03818  1.0000
  Fe  Fe124     1.0  0.39667  0.30767  0.01293  1.0000
  C   C882      1.0  0.28069  0.45031  0.03217  1.0000
  S   S277      1.0  0.39436  0.32561  0.00433  1.0000
  C   C883      1.0  0.35365  0.10695  0.05584  1.0000
  H   H1542     1.0  0.34856  0.03499  0.22672  1.0000
  Fe  Fe125     1.0  0.41186  0.28914  0.02455  1.0000
  S   S278      1.0  0.42625  0.28614  0.03178  1.0000
  S   S279      1.0  0.38794  0.29636  0.01041  1.0000
  S   S280      1.0  0.39583  0.29962  0.03080  1.0000
  H   H1543     1.0  0.43045  0.05258  0.15096  1.0000
  H   H1544     1.0  0.40908  0.10902  0.07954  1.0000
  S   S281      1.0  0.45265  0.03844  0.17697  1.0000
  Fe  Fe126     1.0  0.40387  0.20386  0.02667  1.0000
  S   S282      1.0  0.38709  0.20197  0.03614  1.0000
  S   S283      1.0  0.41953  0.19610  0.03226  1.0000
  Fe  Fe127     1.0  0.38527  0.19920  0.02045  1.0000
  H   H1545     1.0  0.39990  0.24967  0.00376  1.0000
  Fe  Fe128     1.0  0.38239  0.22010  0.02862  1.0000
  S   S284      1.0  0.36970  0.23272  0.03681  1.0000
  H   H1546     1.0  0.40271  0.07513  0.06503  1.0000
  H   H1547     1.0  0.35554  0.12279  0.06868  1.0000
  C   C884      1.0  0.48036  0.36716  0.98917  1.0000
  H   H1548     1.0  0.35321  0.27481  0.00561  1.0000
  Fe  Fe129     1.0  0.39728  0.11596  0.00948  1.0000
  S   S285      1.0  0.40440  0.12179  0.02005  1.0000
  H   H1549     1.0  0.48305  0.30452  0.05191  1.0000
  Fe  Fe130     1.0  0.38452  0.10266  0.02902  1.0000
  S   S286      1.0  0.39073  0.10699  0.04124  1.0000
  S   S287      1.0  0.37202  0.09249  0.03381  1.0000
  Fe  Fe131     1.0  0.38793  0.12412  0.03093  1.0000
  S   S288      1.0  0.38211  0.13711  0.04100  1.0000
  Fe  Fe132     1.0  0.40677  0.10431  0.02951  1.0000
  S   S289      1.0  0.42256  0.09745  0.03492  1.0000
  S   S290      1.0  0.38033  0.12008  0.01948  1.0000
  S   S291      1.0  0.40091  0.09825  0.01818  1.0000
  H   H1550     1.0  0.41536  0.06595  0.14734  1.0000
  Fe  Fe133     1.0  0.33824  0.45635  0.00881  1.0000
  S   S292      1.0  0.32255  0.45660  0.00518  1.0000
  S   S293      1.0  0.35141  0.44338  0.00126  1.0000
  S   S294      1.0  0.33638  0.47468  0.00283  1.0000
  H   H1551     1.0  0.42658  0.05760  0.16314  1.0000
  Fe  Fe134     1.0  0.31480  0.45863  0.02234  1.0000
  H   H1552     1.0  0.34169  0.14212  0.04700  1.0000
  H   H1553     1.0  0.33723  0.10476  0.05706  1.0000
  S   S295      1.0  0.33074  0.45695  0.02655  1.0000
  H   H1554     1.0  0.46157  0.15423  0.03702  1.0000
  C   C885      1.0  0.44703  0.07345  0.04392  1.0000
  H   H1555     1.0  0.36574  0.22261  0.98799  1.0000
  H   H1556     1.0  0.38847  0.02417  0.12347  1.0000
  N   N66       1.0  0.44423  0.01608  0.08460  1.0000
  C   C886      1.0  0.28848  0.45536  0.03297  1.0000
  C   C887      1.0  0.39407  0.99514  0.19794  1.0000
  C   C888      1.0  0.26962  0.45549  0.03413  1.0000
  C   C889      1.0  0.26625  0.46560  0.03725  1.0000
  C   C890      1.0  0.27404  0.47061  0.03814  1.0000
  C   C891      1.0  0.28513  0.46559  0.03585  1.0000
  H   H1557     1.0  0.34691  0.09236  0.06075  1.0000
  H   H1558     1.0  0.38223  0.02058  0.13794  1.0000
  S   S296      1.0  0.47257  0.24594  0.03664  1.0000
  H   H1559     1.0  0.29107  0.46945  0.03666  1.0000
  C   C892      1.0  0.43048  0.10622  0.02552  1.0000
  C   C893      1.0  0.42945  0.10944  0.01458  1.0000
  C   C894      1.0  0.43364  0.11831  0.00751  1.0000
  C   C895      1.0  0.43924  0.12367  0.01125  1.0000
  C   C896      1.0  0.44089  0.12002  0.02199  1.0000
  C   C897      1.0  0.43635  0.11139  0.02919  1.0000
  H   H1560     1.0  0.42480  0.10554  0.01174  1.0000
  H   H1561     1.0  0.36869  0.11975  0.04556  1.0000
  H   H1562     1.0  0.44507  0.12428  0.02497  1.0000
  H   H1563     1.0  0.43681  0.10925  0.03772  1.0000
  C   C898      1.0  0.37989  0.17319  0.02324  1.0000
  C   C899      1.0  0.37953  0.17001  0.03451  1.0000
  C   C900      1.0  0.38024  0.15890  0.03989  1.0000
  C   C901      1.0  0.38151  0.15091  0.03398  1.0000
  C   C902      1.0  0.38211  0.15406  0.02266  1.0000
  C   C903      1.0  0.38114  0.16521  0.01734  1.0000
  H   H1564     1.0  0.37840  0.17615  0.03915  1.0000
  H   H1565     1.0  0.37974  0.15650  0.04865  1.0000
  H   H1566     1.0  0.38308  0.14795  0.01805  1.0000
  H   H1567     1.0  0.26367  0.45154  0.03347  1.0000
  H   H1568     1.0  0.44442  0.08080  0.03759  1.0000
  N   N67       1.0  0.40451  0.09885  0.07161  1.0000
  H   H1569     1.0  0.33434  0.12418  0.05211  1.0000
  C   C904      1.0  0.47576  0.09616  0.05454  1.0000
  H   H1570     1.0  0.42943  0.07451  0.04863  1.0000
  H   H1571     1.0  0.41283  0.11974  0.04952  1.0000
  N   N68       1.0  0.45127  0.07667  0.05192  1.0000
  H   H1572     1.0  0.35293  0.10589  0.06480  1.0000
  H   H1573     1.0  0.45056  0.02610  0.19950  1.0000
  H   H1574     1.0  0.42664  0.02210  0.10096  1.0000
  C   C905      1.0  0.37430  0.26623  0.03765  1.0000
  C   C906      1.0  0.38324  0.25870  0.03314  1.0000
  C   C907      1.0  0.38212  0.24822  0.03302  1.0000
  C   C908      1.0  0.37199  0.24537  0.03722  1.0000
  C   C909      1.0  0.36315  0.25291  0.04170  1.0000
  C   C910      1.0  0.36431  0.26322  0.04198  1.0000
  H   H1575     1.0  0.39100  0.26090  0.02981  1.0000
  H   H1576     1.0  0.38903  0.24244  0.02963  1.0000
  H   H1577     1.0  0.35532  0.25077  0.04502  1.0000
  H   H1578     1.0  0.35738  0.26893  0.04554  1.0000
  C   C911      1.0  0.43257  0.29711  0.02483  1.0000
  C   C912      1.0  0.44365  0.29593  0.02392  1.0000
  C   C913      1.0  0.44884  0.30437  0.01732  1.0000
  Fe  Fe135     1.0  0.46084  0.04386  0.18680  1.0000
  N   N69       1.0  0.41650  0.16399  0.01995  1.0000
  C   C914      1.0  0.43003  0.04976  0.22339  1.0000
  H   H1579     1.0  0.44826  0.28843  0.02813  1.0000
  H   H1580     1.0  0.45741  0.30338  0.01659  1.0000
  C   C915      1.0  0.39261  0.10439  0.07353  1.0000
  H   H1581     1.0  0.41885  0.09986  0.05845  1.0000
  C   C916      1.0  0.38023  0.42293  0.01654  1.0000
  C   C917      1.0  0.37454  0.43302  0.01932  1.0000
  C   C918      1.0  0.36559  0.43932  0.01482  1.0000
  C   C919      1.0  0.36240  0.43563  0.00734  1.0000
  C   C920      1.0  0.36805  0.42552  0.00459  1.0000
  C   C921      1.0  0.37690  0.41915  0.00921  1.0000
  H   H1582     1.0  0.37707  0.43598  0.02500  1.0000
  H   H1583     1.0  0.36127  0.44709  0.01702  1.0000
  H   H1584     1.0  0.36553  0.42256  0.99891  1.0000
  H   H1585     1.0  0.38116  0.41136  0.00708  1.0000
  C   C922      1.0  0.39258  0.35059  0.02401  1.0000
  C   C923      1.0  0.39464  0.35342  0.01254  1.0000
  C   C924      1.0  0.39521  0.34568  0.00658  1.0000
  C   C925      1.0  0.39400  0.33499  0.01203  1.0000
  C   C926      1.0  0.39225  0.33206  0.02349  1.0000
  C   C927      1.0  0.39142  0.33989  0.02947  1.0000
  H   H1586     1.0  0.39543  0.36168  0.00831  1.0000
  H   H1587     1.0  0.39652  0.34799  0.99772  1.0000
  H   H1588     1.0  0.39122  0.32388  0.02778  1.0000
  H   H1589     1.0  0.38979  0.33765  0.03834  1.0000
  C   C928      1.0  0.43995  0.38129  0.03714  1.0000
  C   C929      1.0  0.43367  0.39047  0.04133  1.0000
  C   C930      1.0  0.43869  0.39685  0.04470  1.0000
  C   C931      1.0  0.44999  0.39440  0.04337  1.0000
  C   C932      1.0  0.45618  0.38516  0.03930  1.0000
  C   C933      1.0  0.45113  0.37851  0.03645  1.0000
  H   H1590     1.0  0.42498  0.39249  0.04219  1.0000
  H   H1591     1.0  0.43384  0.40374  0.04826  1.0000
  H   H1592     1.0  0.46484  0.38300  0.03859  1.0000
  H   H1593     1.0  0.45591  0.37122  0.03356  1.0000
  H   H1594     1.0  0.36763  0.11260  0.06486  1.0000
  C   C934      1.0  0.34584  0.10049  0.05494  1.0000
  H   H1595     1.0  0.40427  0.07737  0.14782  1.0000
  H   H1596     1.0  0.37354  0.02805  0.17404  1.0000
  H   H1597     1.0  0.36830  0.12666  0.06236  1.0000
  C   C935      1.0  0.37277  0.06580  0.21835  1.0000
  C   C936      1.0  0.37631  0.05675  0.22639  1.0000
  C   C937      1.0  0.36683  0.07566  0.22139  1.0000
  H   H1598     1.0  0.38087  0.04909  0.22411  1.0000
  H   H1599     1.0  0.36405  0.08267  0.21523  1.0000
  C   C938      1.0  0.42604  0.02207  0.19983  1.0000
  C   C939      1.0  0.42577  0.02655  0.18878  1.0000
  C   C940      1.0  0.43426  0.03112  0.18167  1.0000
  C   C941      1.0  0.44307  0.03117  0.18558  1.0000
  C   C942      1.0  0.44368  0.02616  0.19650  1.0000
  C   C943      1.0  0.43518  0.02147  0.20361  1.0000
  H   H1600     1.0  0.41885  0.02686  0.18575  1.0000
  H   H1601     1.0  0.43372  0.03504  0.17327  1.0000
  C   C944      1.0  0.41180  0.15425  0.02690  1.0000
  H   H1602     1.0  0.43548  0.01781  0.21208  1.0000
  C   C945      1.0  0.36994  0.06604  0.06551  1.0000
  C   C946      1.0  0.36265  0.06826  0.05874  1.0000
  C   C947      1.0  0.36362  0.07617  0.04891  1.0000
  C   C948      1.0  0.37182  0.08202  0.04579  1.0000
  C   C949      1.0  0.37927  0.07973  0.05245  1.0000
  C   C950      1.0  0.37835  0.07168  0.06233  1.0000
  H   H1603     1.0  0.35616  0.06391  0.06116  1.0000
  H   H1604     1.0  0.35788  0.07789  0.04378  1.0000
  H   H1605     1.0  0.38570  0.08414  0.04997  1.0000
  H   H1606     1.0  0.38403  0.06992  0.06753  1.0000
  C   C951      1.0  0.38556  0.04764  0.13652  1.0000
  C   C952      1.0  0.38194  0.04419  0.14785  1.0000
  C   C953      1.0  0.38853  0.04316  0.15503  1.0000
  C   C954      1.0  0.39868  0.04581  0.15096  1.0000
  C   C955      1.0  0.40242  0.04912  0.13959  1.0000
  C   C956      1.0  0.39588  0.04997  0.13236  1.0000
  H   H1607     1.0  0.37398  0.04232  0.15111  1.0000
  H   H1608     1.0  0.38569  0.04039  0.16374  1.0000
  H   H1609     1.0  0.41028  0.05120  0.13640  1.0000
  H   H1610     1.0  0.39867  0.05273  0.12363  1.0000
  C   C957      1.0  0.39550  0.00473  0.09764  1.0000
  H   H1611     1.0  0.44855  0.00339  0.15775  1.0000
  C   C958      1.0  0.38420  0.00824  0.09966  1.0000
  C   C959      1.0  0.38287  0.99252  0.09382  1.0000
  H   H1612     1.0  0.38032  0.01565  0.10268  1.0000
  C   C960      1.0  0.42003  0.06493  0.09163  1.0000
  C   C961      1.0  0.41379  0.06408  0.10236  1.0000
  C   C962      1.0  0.41690  0.06746  0.11016  1.0000
  C   C963      1.0  0.42624  0.07167  0.10718  1.0000
  C   C964      1.0  0.43207  0.07312  0.09629  1.0000
  C   C965      1.0  0.42898  0.06972  0.08854  1.0000
  H   H1613     1.0  0.40663  0.06075  0.10470  1.0000
  H   H1614     1.0  0.41227  0.06651  0.11855  1.0000
  H   H1615     1.0  0.43907  0.07675  0.09388  1.0000
  H   H1616     1.0  0.43364  0.07061  0.08023  1.0000
  C   C966      1.0  0.43816  0.00694  0.08819  1.0000
  H   H1617     1.0  0.47965  0.02944  0.08027  1.0000
  C   C967      1.0  0.44980  0.36769  0.99954  1.0000
  C   C968      1.0  0.26245  0.48618  0.01139  1.0000
  H   H1618     1.0  0.39422  0.00758  0.15244  1.0000
  C   C969      1.0  0.40538  0.09531  0.09207  1.0000
  H   H1619     1.0  0.40934  0.07096  0.15991  1.0000
  H   H1620     1.0  0.36434  0.24677  0.98973  1.0000
  H   H1621     1.0  0.43287  0.07374  0.17814  1.0000
  H   H1622     1.0  0.41292  0.17807  0.00663  1.0000
  H   H1623     1.0  0.40496  0.08661  0.09366  1.0000
  H   H1624     1.0  0.44024  0.05084  0.15882  1.0000
  C   C970      1.0  0.41568  0.98902  0.21509  1.0000
  H   H1625     1.0  0.42943  0.22557  0.00167  1.0000
  H   H1626     1.0  0.41570  0.01204  0.15144  1.0000
  H   H1627     1.0  0.35991  0.11440  0.03466  1.0000
  C   C971      1.0  0.35733  0.27113  0.01253  1.0000
  H   H1628     1.0  0.40227  0.08229  0.07982  1.0000
  H   H1629     1.0  0.39121  0.11193  0.07668  1.0000
  N   N70       1.0  0.38119  0.02324  0.06531  1.0000
  C   C972      1.0  0.37079  0.02079  0.07307  1.0000
  C   C973      1.0  0.38344  0.01741  0.05610  1.0000
  C   C974      1.0  0.37948  0.03554  0.06097  1.0000
  C   C975      1.0  0.39002  0.01911  0.07171  1.0000
  C   C976      1.0  0.36562  0.02775  0.08189  1.0000
  C   C977      1.0  0.38533  0.00474  0.05950  1.0000
  C   C978      1.0  0.38673  0.03979  0.04986  1.0000
  C   C979      1.0  0.40165  0.01980  0.06532  1.0000
  H   H1630     1.0  0.36445  0.02195  0.06843  1.0000
  H   H1631     1.0  0.37200  0.01204  0.07758  1.0000
  H   H1632     1.0  0.39062  0.01926  0.04966  1.0000
  H   H1633     1.0  0.37660  0.02044  0.05177  1.0000
  H   H1634     1.0  0.37102  0.03916  0.05984  1.0000
  H   H1635     1.0  0.38050  0.03955  0.06704  1.0000
  H   H1636     1.0  0.38831  0.02372  0.07827  1.0000
  H   H1637     1.0  0.39020  0.01050  0.07635  1.0000
  H   H1638     1.0  0.36191  0.03631  0.07823  1.0000
  H   H1639     1.0  0.35896  0.02420  0.08789  1.0000
  H   H1640     1.0  0.37139  0.02789  0.08658  1.0000
  H   H1641     1.0  0.45434  0.18704  0.04724  1.0000
  H   H1642     1.0  0.38715  0.00140  0.05204  1.0000
  H   H1643     1.0  0.36225  0.27910  0.98728  1.0000
  H   H1644     1.0  0.38455  0.03802  0.04297  1.0000
  H   H1645     1.0  0.39546  0.03651  0.04959  1.0000
  H   H1646     1.0  0.38528  0.04889  0.04842  1.0000
  H   H1647     1.0  0.40319  0.02798  0.06455  1.0000
  H   H1648     1.0  0.40370  0.01786  0.05714  1.0000
  H   H1649     1.0  0.40743  0.01345  0.06989  1.0000
  C   C980      1.0  0.43693  0.20551  0.02816  1.0000
  S   S297      1.0  0.40239  0.19971  0.01165  1.0000
  C   C981      1.0  0.40987  0.11655  0.05845  1.0000
  S   S298      1.0  0.39923  0.22220  0.02051  1.0000
  C   C982      1.0  0.43708  0.06814  0.04885  1.0000
  H   H1650     1.0  0.43691  0.06723  0.13993  1.0000
  C   C983      1.0  0.35223  0.11967  0.03828  1.0000
  H   H1651     1.0  0.44799  0.08360  0.07216  1.0000
  H   H1652     1.0  0.45019  0.15151  0.05446  1.0000
  H   H1653     1.0  0.35295  0.13022  0.02203  1.0000
  H   H1654     1.0  0.39518  0.08893  0.06127  1.0000
  H   H1655     1.0  0.37912  0.33558  0.98915  1.0000
  C   C984      1.0  0.35129  0.13117  0.03063  1.0000
  H   H1656     1.0  0.42150  0.08250  0.13767  1.0000
  C   C985      1.0  0.41949  0.08143  0.14675  1.0000
  C   C986      1.0  0.47197  0.08456  0.13738  1.0000
  C   C987      1.0  0.43604  0.08698  0.14574  1.0000
  C   C988      1.0  0.43613  0.07425  0.16920  1.0000
  H   H1657     1.0  0.41465  0.08956  0.14846  1.0000
  C   C989      1.0  0.40648  0.08677  0.07191  1.0000
  H   H1658     1.0  0.41867  0.09650  0.07805  1.0000
  H   H1659     1.0  0.43156  0.09489  0.14820  1.0000
  H   H1660     1.0  0.34293  0.13620  0.03231  1.0000
  H   H1661     1.0  0.44141  0.08026  0.16648  1.0000
  H   H1662     1.0  0.40657  0.10353  0.05391  1.0000
  H   H1663     1.0  0.45680  0.09437  0.99045  1.0000
  H   H1664     1.0  0.45268  0.23363  0.04403  1.0000
  Fe  Fe136     1.0  0.41430  0.38492  0.00307  1.0000
  H   H1665     1.0  0.35729  0.13558  0.03081  1.0000
  H   H1666     1.0  0.38135  0.16764  0.00863  1.0000
  H   H1667     1.0  0.47565  0.01322  0.12013  1.0000
  C   C990      1.0  0.44495  0.00393  0.14237  1.0000
  H   H1668     1.0  0.46378  0.07130  0.14173  1.0000
  C   C991      1.0  0.44301  0.43360  0.99753  1.0000
  S   S299      1.0  0.31279  0.48583  0.98688  1.0000
  C   C992      1.0  0.45892  0.38250  0.98932  1.0000
  C   C993      1.0  0.45260  0.02255  0.15635  1.0000
  C   C994      1.0  0.36440  0.25042  0.00530  1.0000
  C   C995      1.0  0.39415  0.98895  0.09195  1.0000
  C   C996      1.0  0.45780  0.16424  0.05565  1.0000
  S   S300      1.0  0.37839  0.18709  0.01630  1.0000
  S   S301      1.0  0.47957  0.30697  0.00343  1.0000
  H   H1669     1.0  0.41424  0.40803  0.98796  1.0000
  H   H1670     1.0  0.44609  0.35932  0.01694  1.0000
  Fe  Fe137     1.0  0.48308  0.21754  0.01394  1.0000
  C   C997      1.0  0.46510  0.01945  0.15381  1.0000
  H   H1671     1.0  0.46246  0.21807  0.98920  1.0000
  H   H1672     1.0  0.39417  0.02167  0.14702  1.0000
  H   H1673     1.0  0.44143  0.03347  0.08403  1.0000
  H   H1674     1.0  0.42070  0.07282  0.16797  1.0000
  S   S302      1.0  0.44562  0.23251  0.00674  1.0000
  S   S303      1.0  0.47517  0.03606  0.11684  1.0000
  H   H1675     1.0  0.41524  0.08287  0.07136  1.0000
  S   S304      1.0  0.48204  0.14094  0.01623  1.0000
  C   C998      1.0  0.37266  0.01972  0.17539  1.0000
  H   H1676     1.0  0.44226  0.37414  0.00116  1.0000
  H   H1677     1.0  0.44701  0.15449  0.06776  1.0000
  H   H1678     1.0  0.46544  0.08216  0.05162  1.0000
  C   C999      1.0  0.32502  0.42701  0.03343  1.0000
  Fe  Fe138     1.0  0.47458  0.23861  0.02223  1.0000
  C   C1000     1.0  0.45097  0.02616  0.13694  1.0000
  C   C1001     1.0  0.45918  0.09249  0.03764  1.0000
  C   C1002     1.0  0.45034  0.00804  0.14912  1.0000
  H   H1679     1.0  0.43502  0.17465  0.01427  1.0000
  H   H1680     1.0  0.42095  0.99676  0.17712  1.0000
  H   H1681     1.0  0.47952  0.27319  0.05148  1.0000
  C   C1003     1.0  0.45431  0.28046  0.99857  1.0000
  H   H1682     1.0  0.38645  0.24455  0.99784  1.0000
  H   H1683     1.0  0.41000  0.99796  0.19486  1.0000
  H   H1684     1.0  0.40086  0.00352  0.20571  1.0000
  H   H1685     1.0  0.47714  0.10875  0.03958  1.0000
  S   S305      1.0  0.24261  0.44030  0.01203  1.0000
  H   H1686     1.0  0.42170  0.35339  0.99131  1.0000
  C   C1004     1.0  0.44850  0.35735  0.00871  1.0000
  C   C1005     1.0  0.44533  0.33816  0.04168  1.0000
  C   C1006     1.0  0.38458  0.09745  0.08141  1.0000
  H   H1687     1.0  0.39736  0.10033  0.09523  1.0000
  H   H1688     1.0  0.41093  0.09554  0.09703  1.0000
  H   H1689     1.0  0.38382  0.09100  0.07778  1.0000
  H   H1690     1.0  0.37639  0.10289  0.08297  1.0000
  H   H1691     1.0  0.38666  0.09353  0.08948  1.0000
  H   H1692     1.0  0.42528  0.03649  0.09576  1.0000
  H   H1693     1.0  0.27150  0.44080  0.98542  1.0000
  C   C1007     1.0  0.37012  0.01356  0.18612  1.0000
  H   H1694     1.0  0.36916  0.00482  0.09941  1.0000
  N   N71       1.0  0.35179  0.11898  0.05018  1.0000
  C   C1008     1.0  0.44548  0.08995  0.06508  1.0000
  H   H1695     1.0  0.45349  0.06805  0.03899  1.0000
  H   H1696     1.0  0.43671  0.06341  0.05742  1.0000
  H   H1697     1.0  0.35951  0.02913  0.21713  1.0000
  C   C1009     1.0  0.46780  0.19006  0.00950  1.0000
  H   H1698     1.0  0.35584  0.21759  0.98516  1.0000
  C   C1010     1.0  0.46326  0.11320  0.06483  1.0000
  Fe  Fe139     1.0  0.32777  0.47544  0.02029  1.0000
  H   H1699     1.0  0.37367  0.27282  0.00488  1.0000
  H   H1700     1.0  0.44359  0.24540  0.04792  1.0000
  C   C1011     1.0  0.36944  0.26594  0.00892  1.0000
  C   C1012     1.0  0.33938  0.13717  0.05535  1.0000
  H   H1701     1.0  0.47538  0.17593  0.03327  1.0000
  H   H1702     1.0  0.34562  0.11640  0.03744  1.0000
  N   N72       1.0  0.42964  0.07812  0.15119  1.0000
  Fe  Fe140     1.0  0.47278  0.40417  0.03561  1.0000
  H   H1703     1.0  0.36267  0.32811  0.00034  1.0000
  C   C1013     1.0  0.37789  0.00210  0.09782  1.0000
  H   H1704     1.0  0.41909  0.03815  0.21584  1.0000
  N   N73       1.0  0.42814  0.24695  0.03683  1.0000
  H   H1705     1.0  0.41095  0.01936  0.12004  1.0000
  N   N74       1.0  0.43594  0.42276  0.01720  1.0000
  C   C1014     1.0  0.42601  0.42367  0.02646  1.0000
  C   C1015     1.0  0.44533  0.42330  0.02140  1.0000
  S   S306      1.0  0.47361  0.42214  0.99698  1.0000
  C   C1016     1.0  0.48557  0.15542  0.03681  1.0000
  C   C1017     1.0  0.41584  0.42124  0.02473  1.0000
  C   C1018     1.0  0.44429  0.43402  0.02490  1.0000
  S   S307      1.0  0.45558  0.14669  0.02041  1.0000
  H   H1706     1.0  0.42781  0.41798  0.03422  1.0000
  H   H1707     1.0  0.42347  0.43205  0.02819  1.0000
  C   C1019     1.0  0.40043  0.99497  0.09398  1.0000
  H   H1708     1.0  0.44659  0.41639  0.02858  1.0000
  H   H1709     1.0  0.43587  0.40538  0.02169  1.0000
  S   S308      1.0  0.45356  0.05829  0.19474  1.0000
  H   H1710     1.0  0.45000  0.01797  0.16490  1.0000
  H   H1711     1.0  0.45846  0.11978  0.06887  1.0000
  H   H1712     1.0  0.38239  0.24485  0.01198  1.0000
  H   H1713     1.0  0.41306  0.42674  0.01737  1.0000
  H   H1714     1.0  0.41705  0.41255  0.02435  1.0000
  C   C1020     1.0  0.41442  0.00118  0.13663  1.0000
  H   H1715     1.0  0.46825  0.35886  0.98971  1.0000
  H   H1716     1.0  0.38285  0.99078  0.13393  1.0000
  H   H1717     1.0  0.43091  0.99418  0.21128  1.0000
  C   C1021     1.0  0.42614  0.99165  0.20696  1.0000
  N   N75       1.0  0.42581  0.33837  0.04057  1.0000
  C   C1022     1.0  0.41465  0.34565  0.04307  1.0000
  C   C1023     1.0  0.42994  0.34114  0.02832  1.0000
  H   H1718     1.0  0.47090  0.08001  0.20090  1.0000
  C   C1024     1.0  0.42475  0.32657  0.04483  1.0000
  C   C1025     1.0  0.40942  0.34542  0.05532  1.0000
  C   C1026     1.0  0.42292  0.33961  0.02139  1.0000
  Fe  Fe141     1.0  0.31997  0.47487  0.00092  1.0000
  C   C1027     1.0  0.43479  0.31751  0.04179  1.0000
  H   H1719     1.0  0.41477  0.35442  0.03896  1.0000
  H   H1720     1.0  0.40881  0.34342  0.03977  1.0000
  H   H1721     1.0  0.43825  0.33640  0.02565  1.0000
  H   H1722     1.0  0.43070  0.34985  0.02569  1.0000
  C   C1028     1.0  0.43918  0.08961  0.13307  1.0000
  H   H1723     1.0  0.41969  0.21074  0.01123  1.0000
  H   H1724     1.0  0.42249  0.32464  0.05395  1.0000
  H   H1725     1.0  0.41783  0.32511  0.04250  1.0000
  H   H1726     1.0  0.40124  0.35099  0.05592  1.0000
  H   H1727     1.0  0.40822  0.33713  0.05999  1.0000
  H   H1728     1.0  0.41407  0.34852  0.05926  1.0000
  H   H1729     1.0  0.42085  0.33144  0.02418  1.0000
  H   H1730     1.0  0.41538  0.34609  0.02138  1.0000
  H   H1731     1.0  0.42750  0.34036  0.01275  1.0000
  H   H1732     1.0  0.42113  0.00260  0.13919  1.0000
  H   H1733     1.0  0.43846  0.10610  0.98838  1.0000
  H   H1734     1.0  0.43318  0.03286  0.15316  1.0000
  H   H1735     1.0  0.43991  0.31494  0.04795  1.0000
  H   H1736     1.0  0.43983  0.31967  0.03350  1.0000
  H   H1737     1.0  0.43206  0.31021  0.04162  1.0000
  H   H1738     1.0  0.46788  0.19390  0.98736  1.0000
  H   H1739     1.0  0.42703  0.43114  0.00443  1.0000
  H   H1740     1.0  0.48343  0.31309  0.03860  1.0000
  C   C1029     1.0  0.37307  0.00422  0.16813  1.0000
  H   H1741     1.0  0.44192  0.35409  0.00781  1.0000
  C   C1030     1.0  0.47265  0.17935  0.00804  1.0000
  H   H1742     1.0  0.43258  0.41221  0.00878  1.0000
  H   H1743     1.0  0.45531  0.09232  0.03116  1.0000
  H   H1744     1.0  0.45179  0.20627  0.99465  1.0000
  C   C1031     1.0  0.39960  0.01333  0.14776  1.0000
  S   S309      1.0  0.42312  0.38403  0.98578  1.0000
  C   C1032     1.0  0.32357  0.40274  0.04356  1.0000
  H   H1745     1.0  0.46000  0.14642  0.06305  1.0000
  H   H1746     1.0  0.38615  0.28440  0.99757  1.0000
  H   H1747     1.0  0.45722  0.18709  0.03265  1.0000
  S   S310      1.0  0.47290  0.34460  0.02625  1.0000
  Fe  Fe142     1.0  0.46900  0.07662  0.11438  1.0000
  C   C1033     1.0  0.36874  0.00288  0.18784  1.0000
  Fe  Fe143     1.0  0.45758  0.13673  0.00831  1.0000
  H   H1748     1.0  0.47619  0.09637  0.15574  1.0000
  H   H1749     1.0  0.40698  0.02934  0.23076  1.0000
  H   H1750     1.0  0.34330  0.00908  0.23437  1.0000
  S   S311      1.0  0.24466  0.46878  0.01435  1.0000
  C   C1034     1.0  0.27644  0.46487  0.00484  1.0000
  H   H1751     1.0  0.44196  0.02168  0.10579  1.0000
  H   H1752     1.0  0.36437  0.24558  0.01389  1.0000
  H   H1753     1.0  0.44100  0.04288  0.13746  1.0000
  S   S312      1.0  0.48032  0.06660  0.10244  1.0000
  H   H1754     1.0  0.45440  0.09923  0.04185  1.0000
  H   H1755     1.0  0.45468  0.04080  0.13933  1.0000
  C   C1035     1.0  0.36281  0.00076  0.22388  1.0000
  C   C1036     1.0  0.38868  0.28578  0.98878  1.0000
  H   H1756     1.0  0.35274  0.00313  0.13640  1.0000
  H   H1757     1.0  0.45923  0.00531  0.14612  1.0000
  H   H1758     1.0  0.44213  0.00706  0.10812  1.0000
  H   H1759     1.0  0.39801  0.04181  0.23338  1.0000
  H   H1760     1.0  0.44432  0.16343  0.03690  1.0000
  H   H1761     1.0  0.36206  0.10258  0.05267  1.0000
  H   H1762     1.0  0.38980  0.10738  0.06565  1.0000
  H   H1763     1.0  0.44954  0.39987  0.00549  1.0000
  H   H1764     1.0  0.41170  0.99644  0.21859  1.0000
  H   H1765     1.0  0.41754  0.20671  0.99171  1.0000
  C   C1037     1.0  0.47363  0.04546  0.14570  1.0000
  H   H1766     1.0  0.35936  0.99299  0.14629  1.0000
  C   C1038     1.0  0.47961  0.27646  0.02458  1.0000
  H   H1767     1.0  0.42535  0.00135  0.08525  1.0000
  N   N76       1.0  0.46577  0.16475  0.04472  1.0000
  H   H1768     1.0  0.45661  0.02053  0.08950  1.0000
  H   H1769     1.0  0.34400  0.13837  0.06070  1.0000
  H   H1770     1.0  0.35659  0.27782  0.01667  1.0000
  C   C1039     1.0  0.43316  0.05666  0.15584  1.0000
  H   H1771     1.0  0.45488  0.40365  0.01476  1.0000
  S   S313      1.0  0.47506  0.08573  0.12304  1.0000
  H   H1772     1.0  0.47353  0.14736  0.04818  1.0000
  H   H1773     1.0  0.36768  0.19193  0.99711  1.0000
  H   H1774     1.0  0.29910  0.45431  0.98765  1.0000
  H   H1775     1.0  0.44972  0.36547  0.99190  1.0000
  H   H1776     1.0  0.25532  0.48748  0.00779  1.0000
  C   C1040     1.0  0.41531  0.17165  0.02730  1.0000
  H   H1777     1.0  0.40154  0.12144  0.06080  1.0000
  H   H1778     1.0  0.32357  0.39837  0.03734  1.0000
  C   C1041     1.0  0.33508  0.42251  0.01026  1.0000
  C   C1042     1.0  0.40392  0.17486  0.03449  1.0000
  H   H1779     1.0  0.40932  0.08501  0.05491  1.0000
  C   C1043     1.0  0.41018  0.10419  0.06039  1.0000
  H   H1780     1.0  0.44073  0.23212  0.05481  1.0000
  H   H1781     1.0  0.42099  0.16802  0.03299  1.0000
  H   H1782     1.0  0.41752  0.17952  0.02237  1.0000
  H   H1783     1.0  0.43833  0.09593  0.06845  1.0000
  H   H1784     1.0  0.34096  0.40056  0.03868  1.0000
  H   H1785     1.0  0.41329  0.15217  0.03536  1.0000
  H   H1786     1.0  0.40284  0.15626  0.02791  1.0000
  C   C1044     1.0  0.36055  0.99735  0.13753  1.0000
  H   H1787     1.0  0.43866  0.20023  0.03581  1.0000
  H   H1788     1.0  0.39789  0.17957  0.02948  1.0000
  H   H1789     1.0  0.40101  0.16770  0.04031  1.0000
  H   H1790     1.0  0.40426  0.18031  0.03957  1.0000
  C   C1045     1.0  0.36100  0.12336  0.05082  1.0000
  H   H1791     1.0  0.38140  0.12063  0.99179  1.0000
  H   H1792     1.0  0.44108  0.06599  0.16820  1.0000
  H   H1793     1.0  0.40170  0.17298  0.01466  1.0000
  C   C1046     1.0  0.42659  0.07799  0.16332  1.0000
  H   H1794     1.0  0.44381  0.08478  0.14846  1.0000
  H   H1795     1.0  0.46938  0.05824  0.05092  1.0000
  H   H1796     1.0  0.35989  0.13235  0.04742  1.0000
  H   H1797     1.0  0.46427  0.05026  0.06398  1.0000
  N   N77       1.0  0.41211  0.05539  0.21657  1.0000
  C   C1047     1.0  0.40074  0.06216  0.21917  1.0000
  C   C1048     1.0  0.41120  0.04363  0.21846  1.0000
  C   C1049     1.0  0.41696  0.05971  0.20462  1.0000
  C   C1050     1.0  0.41842  0.05676  0.22395  1.0000
  C   C1051     1.0  0.39954  0.07470  0.21712  1.0000
  H   H1798     1.0  0.44301  0.16582  0.00535  1.0000
  C   C1052     1.0  0.42617  0.05171  0.19865  1.0000
  H   H1799     1.0  0.41537  0.11800  0.06272  1.0000
  H   H1800     1.0  0.39571  0.06088  0.21422  1.0000
  H   H1801     1.0  0.46507  0.02232  0.07220  1.0000
  C   C1053     1.0  0.41183  0.07336  0.15086  1.0000
  H   H1802     1.0  0.40600  0.04307  0.21328  1.0000
  H   H1803     1.0  0.41065  0.06246  0.19963  1.0000
  H   H1804     1.0  0.42010  0.06713  0.20366  1.0000
  H   H1805     1.0  0.41926  0.06541  0.22204  1.0000
  H   H1806     1.0  0.36012  0.23695  0.00181  1.0000
  H   H1807     1.0  0.40298  0.07836  0.20849  1.0000
  H   H1808     1.0  0.46887  0.38771  0.00288  1.0000
  C   C1054     1.0  0.30418  0.46864  0.98783  1.0000
  N   N78       1.0  0.33421  0.41733  0.03124  1.0000
  H   H1809     1.0  0.44513  0.06655  0.14881  1.0000
  H   H1810     1.0  0.46665  0.16529  0.02774  1.0000
  H   H1811     1.0  0.43282  0.04772  0.20302  1.0000
  H   H1812     1.0  0.42975  0.05621  0.19042  1.0000
  H   H1813     1.0  0.42294  0.04535  0.19721  1.0000
  H   H1814     1.0  0.43588  0.05401  0.21684  1.0000
  H   H1815     1.0  0.33869  0.12087  0.06455  1.0000
  C   C1055     1.0  0.43655  0.06736  0.14856  1.0000
  H   H1816     1.0  0.41067  0.26338  0.04605  1.0000
  H   H1817     1.0  0.43738  0.06219  0.04401  1.0000
  C   C1056     1.0  0.43133  0.25789  0.03380  1.0000
  C   C1057     1.0  0.41999  0.24619  0.04762  1.0000
  C   C1058     1.0  0.46868  0.08256  0.16021  1.0000
  C   C1059     1.0  0.39255  0.25601  0.00208  1.0000
  C   C1060     1.0  0.44165  0.25893  0.02474  1.0000
  C   C1061     1.0  0.40930  0.25496  0.04769  1.0000
  C   C1062     1.0  0.44393  0.23719  0.04674  1.0000
  C   C1063     1.0  0.34503  0.42037  0.02868  1.0000
  H   H1818     1.0  0.34777  0.09877  0.04662  1.0000
  H   H1819     1.0  0.43236  0.26014  0.04105  1.0000
  H   H1820     1.0  0.42474  0.26463  0.03090  1.0000
  C   C1064     1.0  0.34083  0.12486  0.05568  1.0000
  H   H1821     1.0  0.39415  0.36677  0.98706  1.0000
  C   C1065     1.0  0.40981  0.10020  0.07992  1.0000
  H   H1822     1.0  0.40389  0.25349  0.05596  1.0000
  H   H1823     1.0  0.42218  0.08633  0.16472  1.0000
  H   H1824     1.0  0.47381  0.17594  0.04732  1.0000
  H   H1825     1.0  0.33070  0.14064  0.05858  1.0000
  H   H1826     1.0  0.44256  0.26757  0.02254  1.0000
  H   H1827     1.0  0.44900  0.25381  0.02769  1.0000
  H   H1828     1.0  0.44127  0.25682  0.01718  1.0000
  H   H1829     1.0  0.40485  0.25459  0.04177  1.0000
  C   C1066     1.0  0.42830  0.20471  0.02433  1.0000
  H   H1830     1.0  0.43257  0.15550  0.02218  1.0000
  S   S314      1.0  0.30226  0.44845  0.03092  1.0000
  C   C1067     1.0  0.46113  0.08129  0.04579  1.0000
  H   H1831     1.0  0.44297  0.08218  0.12970  1.0000
  H   H1832     1.0  0.44920  0.21460  0.02561  1.0000
  H   H1833     1.0  0.43101  0.04146  0.22213  1.0000
  S   S315      1.0  0.41307  0.29771  0.00687  1.0000
  C   C1068     1.0  0.41041  0.17021  0.01103  1.0000
  H   H1834     1.0  0.41545  0.23664  0.02259  1.0000
  C   C1069     1.0  0.42845  0.16035  0.01537  1.0000
  H   H1835     1.0  0.41798  0.23793  0.05051  1.0000
  C   C1070     1.0  0.44281  0.21368  0.02245  1.0000
  H   H1836     1.0  0.44524  0.09485  0.13026  1.0000
  S   S316      1.0  0.31118  0.47698  0.01778  1.0000
  C   C1071     1.0  0.43452  0.16959  0.00889  1.0000
  S   S317      1.0  0.44228  0.99486  0.18032  1.0000
  C   C1072     1.0  0.42666  0.30683  0.01940  1.0000
  H   H1837     1.0  0.44773  0.34353  0.03352  1.0000
  C   C1073     1.0  0.41194  0.99020  0.14401  1.0000
  C   C1074     1.0  0.40708  0.01256  0.15538  1.0000
  H   H1838     1.0  0.44747  0.06442  0.06693  1.0000
  C   C1075     1.0  0.41061  0.16402  0.00242  1.0000
  C   C1076     1.0  0.43778  0.23753  0.03805  1.0000
  H   H1839     1.0  0.43602  0.00585  0.14497  1.0000
  H   H1840     1.0  0.43092  0.17493  0.00194  1.0000
  H   H1841     1.0  0.46390  0.24578  0.98852  1.0000
  H   H1842     1.0  0.42348  0.24700  0.05416  1.0000
  H   H1843     1.0  0.44762  0.99483  0.14373  1.0000
  H   H1844     1.0  0.43007  0.15466  0.00987  1.0000
  H   H1845     1.0  0.41739  0.25384  0.02542  1.0000
  H   H1846     1.0  0.47073  0.05363  0.14077  1.0000
  H   H1847     1.0  0.38347  0.39903  0.99081  1.0000
  S   S318      1.0  0.40944  0.27749  0.99177  1.0000
  H   H1848     1.0  0.37578  0.01994  0.15813  1.0000
  H   H1849     1.0  0.28320  0.44236  0.03003  1.0000
  C   C1077     1.0  0.46182  0.05655  0.05681  1.0000
  H   H1850     1.0  0.48080  0.37513  0.99024  1.0000
  H   H1851     1.0  0.43531  0.08141  0.06191  1.0000
  C   C1078     1.0  0.37391  0.01512  0.16639  1.0000
  C   C1079     1.0  0.42658  0.02856  0.09337  1.0000
  H   H1852     1.0  0.45353  0.01141  0.10875  1.0000
  H   H1853     1.0  0.44736  0.00731  0.13343  1.0000
  H   H1854     1.0  0.45741  0.05288  0.05314  1.0000
  S   S319      1.0  0.25241  0.47225  0.03998  1.0000
  H   H1855     1.0  0.34538  0.42773  0.02185  1.0000
  H   H1856     1.0  0.26688  0.47721  0.99426  1.0000
  C   C1080     1.0  0.34403  0.02616  0.21790  1.0000
  H   H1857     1.0  0.45195  0.09453  0.06085  1.0000
  H   H1858     1.0  0.37218  0.26216  0.01675  1.0000
  H   H1859     1.0  0.43823  0.28058  0.99638  1.0000
  H   H1860     1.0  0.41939  0.02913  0.09020  1.0000
  H   H1861     1.0  0.41801  0.30802  0.02047  1.0000
  C   C1081     1.0  0.45460  0.06691  0.06079  1.0000
  H   H1862     1.0  0.42203  0.24878  0.99129  1.0000
  H   H1863     1.0  0.35158  0.21941  0.00426  1.0000
  H   H1864     1.0  0.40045  0.00559  0.12425  1.0000
  H   H1865     1.0  0.44366  0.23709  0.03005  1.0000
  H   H1866     1.0  0.42880  0.07285  0.23210  1.0000
  C   C1082     1.0  0.43299  0.34110  0.04624  1.0000
  C   C1083     1.0  0.46132  0.16311  0.03592  1.0000
  H   H1867     1.0  0.45510  0.27157  0.00251  1.0000
  H   H1868     1.0  0.40420  0.15920  0.00541  1.0000
  C   C1084     1.0  0.45188  0.01402  0.09206  1.0000
  S   S320      1.0  0.37911  0.21713  0.01381  1.0000
  C   C1085     1.0  0.44239  0.08505  0.05715  1.0000
  N   N79       1.0  0.44727  0.02023  0.14861  1.0000
  H   H1869     1.0  0.46467  0.08900  0.22917  1.0000
  H   H1870     1.0  0.45916  0.06905  0.06566  1.0000
  Fe  Fe144     1.0  0.40437  0.28570  0.00595  1.0000
  C   C1086     1.0  0.42345  0.24623  0.02777  1.0000
  H   H1871     1.0  0.48120  0.02576  0.18177  1.0000
  C   C1087     1.0  0.46047  0.08202  0.23209  1.0000
  C   C1088     1.0  0.33386  0.40736  0.04059  1.0000
  H   H1872     1.0  0.44151  0.44228  0.99290  1.0000
  C   C1089     1.0  0.42603  0.21159  0.01448  1.0000
  H   H1873     1.0  0.40428  0.01996  0.15899  1.0000
  H   H1874     1.0  0.32526  0.41236  0.02240  1.0000
  Fe  Fe145     1.0  0.46110  0.23190  0.01091  1.0000
  H   H1875     1.0  0.42982  0.24572  0.02014  1.0000
  C   C1090     1.0  0.47292  0.27577  0.98775  1.0000
  C   C1091     1.0  0.45835  0.02396  0.06799  1.0000
  H   H1876     1.0  0.43148  0.33710  0.05514  1.0000
  H   H1877     1.0  0.36677  0.99809  0.19611  1.0000
  S   S321      1.0  0.47524  0.42097  0.02653  1.0000
  H   H1878     1.0  0.32784  0.42541  0.05025  1.0000
  H   H1879     1.0  0.41802  0.99979  0.12813  1.0000
  H   H1880     1.0  0.44955  0.33972  0.04720  1.0000
  H   H1881     1.0  0.36495  0.31940  0.99101  1.0000
  H   H1882     1.0  0.43103  0.35013  0.04584  1.0000
  C   C1092     1.0  0.32174  0.42918  0.04518  1.0000
  C   C1093     1.0  0.44296  0.31388  0.01151  1.0000
  C   C1094     1.0  0.43167  0.21988  0.00896  1.0000
  S   S322      1.0  0.46479  0.12932  0.04591  1.0000
  C   C1095     1.0  0.48294  0.31314  0.04727  1.0000
  H   H1883     1.0  0.43530  0.22953  0.04047  1.0000
  H   H1884     1.0  0.43917  0.09196  0.05079  1.0000
  N   N80       1.0  0.40490  0.01089  0.13654  1.0000
  C   C1096     1.0  0.43189  0.31507  0.01253  1.0000
  H   H1885     1.0  0.35302  0.26504  0.01873  1.0000
  H   H1886     1.0  0.46713  0.07549  0.04098  1.0000
  H   H1887     1.0  0.45160  0.38874  0.99203  1.0000
  C   C1097     1.0  0.40836  0.02082  0.12854  1.0000
  C   C1098     1.0  0.44962  0.40689  0.00870  1.0000
  S   S323      1.0  0.45769  0.08589  0.10306  1.0000
  C   C1099     1.0  0.43989  0.22109  0.01305  1.0000
  H   H1888     1.0  0.44839  0.32946  0.04116  1.0000
  H   H1889     1.0  0.33466  0.40888  0.04825  1.0000
  H   H1890     1.0  0.42341  0.22845  0.03221  1.0000
  H   H1891     1.0  0.44953  0.17398  0.02644  1.0000
  H   H1892     1.0  0.45000  0.03135  0.15685  1.0000
  S   S324      1.0  0.45639  0.04816  0.22498  1.0000
  H   H1893     1.0  0.46780  0.10419  0.00084  1.0000
  Fe  Fe146     1.0  0.44912  0.07208  0.11104  1.0000
  C   C1100     1.0  0.43057  0.00735  0.08087  1.0000
  C   C1101     1.0  0.47556  0.15553  0.04645  1.0000
  C   C1102     1.0  0.41792  0.23653  0.03013  1.0000
  H   H1894     1.0  0.46817  0.01042  0.15584  1.0000
  H   H1895     1.0  0.41044  0.23722  0.03669  1.0000
  H   H1896     1.0  0.43212  0.09435  0.12940  1.0000
  H   H1897     1.0  0.48408  0.37366  0.03447  1.0000
  H   H1898     1.0  0.40916  0.99220  0.09241  1.0000
  H   H1899     1.0  0.42729  0.32241  0.00813  1.0000
  C   C1103     1.0  0.38651  0.01733  0.13047  1.0000
  C   C1104     1.0  0.41752  0.02469  0.13055  1.0000
  H   H1900     1.0  0.45947  0.19357  0.00887  1.0000
  S   S325      1.0  0.45854  0.06161  0.09893  1.0000
  S   S326      1.0  0.45953  0.06373  0.12323  1.0000
  H   H1901     1.0  0.40144  0.02807  0.12852  1.0000
  H   H1902     1.0  0.38070  0.01393  0.12835  1.0000
  H   H1903     1.0  0.40462  0.37433  0.99517  1.0000
  N   N81       1.0  0.37251  0.25763  0.00181  1.0000
  C   C1105     1.0  0.47774  0.01009  0.10413  1.0000
  H   H1904     1.0  0.42960  0.00938  0.16214  1.0000
  H   H1905     1.0  0.47228  0.36078  0.03750  1.0000
  H   H1906     1.0  0.45588  0.35067  0.00829  1.0000
  H   H1907     1.0  0.42473  0.13980  0.02372  1.0000
  H   H1908     1.0  0.43396  0.19906  0.99787  1.0000
  Fe  Fe147     1.0  0.46408  0.04916  0.20691  1.0000
  H   H1909     1.0  0.33936  0.40624  0.02003  1.0000
  Fe  Fe148     1.0  0.39640  0.21777  0.00628  1.0000
  S   S327      1.0  0.46981  0.03395  0.19998  1.0000
  S   S328      1.0  0.46528  0.17220  0.00420  1.0000
  H   H1910     1.0  0.46170  0.10057  0.07975  1.0000
  H   H1911     1.0  0.42513  0.01555  0.07908  1.0000
  C   C1106     1.0  0.44211  0.28552  0.99923  1.0000
  H   H1912     1.0  0.41544  0.14398  0.01461  1.0000
  C   C1107     1.0  0.43795  0.41180  0.01422  1.0000
  S   S329      1.0  0.46796  0.22341  0.02580  1.0000
  H   H1913     1.0  0.47634  0.37405  0.00826  1.0000
  H   H1914     1.0  0.44369  0.42818  0.99199  1.0000
  Fe  Fe149     1.0  0.46564  0.32116  0.00655  1.0000
  H   H1915     1.0  0.36658  0.00246  0.13570  1.0000
  C   C1108     1.0  0.46075  0.18615  0.03974  1.0000
  C   C1109     1.0  0.45106  0.01554  0.07320  1.0000
  H   H1916     1.0  0.28184  0.47856  0.01518  1.0000
  H   H1917     1.0  0.24356  0.42416  0.00054  1.0000
  C   C1110     1.0  0.46514  0.10231  0.07103  1.0000
  S   S330      1.0  0.46911  0.12243  0.01610  1.0000
  H   H1918     1.0  0.40906  0.42261  0.03189  1.0000
  C   C1111     1.0  0.45360  0.15352  0.06037  1.0000
  H   H1919     1.0  0.37418  0.23692  0.99688  1.0000
  C   C1112     1.0  0.39666  0.00814  0.13224  1.0000
  S   S331      1.0  0.47839  0.05656  0.19728  1.0000
  C   C1113     1.0  0.38330  0.25022  0.00357  1.0000
  Fe  Fe150     1.0  0.46813  0.07485  0.09175  1.0000
  C   C1114     1.0  0.46747  0.11557  0.05344  1.0000
  H   H1920     1.0  0.40632  0.00544  0.16246  1.0000
  H   H1921     1.0  0.43225  0.12119  0.99925  1.0000
  C   C1115     1.0  0.47648  0.01676  0.11145  1.0000
  C   C1116     1.0  0.47536  0.09166  0.14142  1.0000
  C   C1117     1.0  0.44232  0.19599  0.99346  1.0000
  H   H1922     1.0  0.34376  0.42279  0.00707  1.0000
  H   H1923     1.0  0.45088  0.43227  0.99966  1.0000
  H   H1924     1.0  0.42520  0.01840  0.13025  1.0000
  H   H1925     1.0  0.41851  0.15855  0.99993  1.0000
  S   S332      1.0  0.47468  0.05079  0.17586  1.0000
  H   H1926     1.0  0.47833  0.15562  0.05379  1.0000
  H   H1927     1.0  0.45219  0.04209  0.12617  1.0000
  S   S333      1.0  0.46640  0.31925  0.02389  1.0000
  C   C1118     1.0  0.47155  0.31966  0.05160  1.0000
  S   S334      1.0  0.40378  0.12012  0.99119  1.0000
  H   H1928     1.0  0.46670  0.38192  0.01715  1.0000
  H   H1929     1.0  0.40724  0.99106  0.15237  1.0000
  S   S335      1.0  0.44362  0.13532  0.00271  1.0000
  S   S336      1.0  0.44936  0.32432  0.00298  1.0000
  H   H1930     1.0  0.48492  0.05949  0.12820  1.0000
  S   S337      1.0  0.46615  0.24761  0.00852  1.0000
  H   H1931     1.0  0.41498  0.02762  0.13829  1.0000
  H   H1932     1.0  0.24373  0.47216  0.99083  1.0000
  C   C1119     1.0  0.47943  0.36058  0.03092  1.0000
  Fe  Fe151     1.0  0.48126  0.30616  0.02035  1.0000
  Fe  Fe152     1.0  0.46839  0.13317  0.02728  1.0000
  Fe  Fe153     1.0  0.46918  0.15368  0.00854  1.0000
  C   C1120     1.0  0.23786  0.44144  0.00036  1.0000
  H   H1933     1.0  0.43316  0.00644  0.09663  1.0000
  H   H1934     1.0  0.41398  0.05547  0.23267  1.0000
  C   C1121     1.0  0.27416  0.47648  0.99740  1.0000
  C   C1122     1.0  0.46837  0.37990  0.00903  1.0000
  H   H1935     1.0  0.41144  0.13725  0.02856  1.0000
  C   C1123     1.0  0.36522  0.00939  0.22844  1.0000
  H   H1936     1.0  0.37979  0.26853  0.98751  1.0000
  H   H1937     1.0  0.48074  0.08962  0.05052  1.0000
  H   H1938     1.0  0.45198  0.08067  0.20987  1.0000
  H   H1939     1.0  0.28108  0.47644  0.99021  1.0000
  H   H1940     1.0  0.46225  0.02320  0.05939  1.0000
  C   C1124     1.0  0.46668  0.07657  0.14481  1.0000
  H   H1941     1.0  0.44563  0.17539  0.04027  1.0000
  C   C1125     1.0  0.33338  0.41404  0.02127  1.0000
  H   H1942     1.0  0.46799  0.02289  0.15911  1.0000
  H   H1943     1.0  0.25953  0.46039  0.98842  1.0000
  H   H1944     1.0  0.34810  0.41663  0.04546  1.0000
  H   H1945     1.0  0.45981  0.36706  0.01545  1.0000
  C   C1126     1.0  0.28241  0.48459  0.00717  1.0000
  H   H1946     1.0  0.41922  0.03192  0.12389  1.0000
  H   H1947     1.0  0.32682  0.43472  0.02761  1.0000
  H   H1948     1.0  0.44336  0.44131  0.01805  1.0000
  C   C1127     1.0  0.48434  0.19179  0.01297  1.0000
  Fe  Fe154     1.0  0.46825  0.06447  0.18458  1.0000
  H   H1949     1.0  0.46975  0.20451  0.01308  1.0000
  H   H1950     1.0  0.43027  0.44012  0.01017  1.0000
  H   H1951     1.0  0.45371  0.03256  0.06767  1.0000
  H   H1952     1.0  0.39355  0.00102  0.13795  1.0000
  C   C1128     1.0  0.47867  0.02589  0.08899  1.0000
  C   C1129     1.0  0.43688  0.02737  0.08414  1.0000
  S   S338      1.0  0.37666  0.99756  0.15712  1.0000
  H   H1953     1.0  0.33261  0.41995  0.00401  1.0000
  C   C1130     1.0  0.43363  0.43211  0.00762  1.0000
  H   H1954     1.0  0.44393  0.99880  0.08861  1.0000
  H   H1955     1.0  0.46699  0.07456  0.23082  1.0000
  H   H1956     1.0  0.46713  0.09466  0.03341  1.0000
  H   H1957     1.0  0.45641  0.00722  0.07308  1.0000
  H   H1958     1.0  0.39237  0.00101  0.06343  1.0000
  H   H1959     1.0  0.45393  0.10735  0.99351  1.0000
  H   H1960     1.0  0.46131  0.06912  0.16193  1.0000
  H   H1961     1.0  0.36411  0.99441  0.12119  1.0000
  H   H1962     1.0  0.47135  0.35705  0.00267  1.0000
  Fe  Fe155     1.0  0.47724  0.33119  0.01695  1.0000
  H   H1963     1.0  0.47796  0.00144  0.10718  1.0000
  C   C1131     1.0  0.43518  0.02427  0.15206  1.0000
  H   H1964     1.0  0.47119  0.00212  0.22310  1.0000
  H   H1965     1.0  0.45141  0.38015  0.01156  1.0000
  H   H1966     1.0  0.43103  0.02462  0.14557  1.0000
  C   C1132     1.0  0.47897  0.01462  0.09286  1.0000
  H   H1967     1.0  0.38833  0.99880  0.22103  1.0000
  C   C1133     1.0  0.47362  0.19627  0.01192  1.0000
  H   H1968     1.0  0.35898  0.19730  0.98778  1.0000
  H   H1969     1.0  0.46065  0.07014  0.21751  1.0000
  H   H1970     1.0  0.34299  0.03341  0.21100  1.0000
  N   N82       1.0  0.45973  0.37204  0.99808  1.0000
  H   H1971     1.0  0.45960  0.12226  0.98945  1.0000
  H   H1972     1.0  0.42440  0.99865  0.20005  1.0000
  H   H1973     1.0  0.38227  0.99354  0.11992  1.0000
  C   C1134     1.0  0.46970  0.36333  0.99515  1.0000
  H   H1974     1.0  0.43178  0.34099  0.99288  1.0000
  C   C1135     1.0  0.47446  0.04996  0.23068  1.0000
  C   C1136     1.0  0.41618  0.14331  0.02304  1.0000
  H   H1975     1.0  0.43303  0.01692  0.16986  1.0000
  C   C1137     1.0  0.35233  0.02726  0.22367  1.0000
  C   C1138     1.0  0.47731  0.26628  0.02511  1.0000
  C   C1139     1.0  0.47373  0.10701  0.04831  1.0000
  C   C1140     1.0  0.47727  0.03259  0.09632  1.0000
  H   H1976     1.0  0.44638  0.02507  0.13146  1.0000
  C   C1141     1.0  0.34811  0.42326  0.03795  1.0000
  H   H1977     1.0  0.42085  0.02196  0.16497  1.0000
  H   H1978     1.0  0.45345  0.10044  0.21783  1.0000
  C   C1142     1.0  0.46947  0.17545  0.04129  1.0000
  H   H1979     1.0  0.31752  0.42606  0.03174  1.0000
  H   H1980     1.0  0.43400  0.03024  0.07631  1.0000
  C   C1143     1.0  0.45766  0.07921  0.21532  1.0000
  H   H1981     1.0  0.45958  0.02261  0.13352  1.0000
  C   C1144     1.0  0.44958  0.03868  0.13509  1.0000
  H   H1982     1.0  0.32000  0.43818  0.04460  1.0000
  Fe  Fe156     1.0  0.48302  0.98936  0.16971  1.0000
  H   H1983     1.0  0.39677  0.05959  0.22792  1.0000
  H   H1984     1.0  0.27843  0.45866  0.99978  1.0000
  C   C1145     1.0  0.40354  0.99603  0.20223  1.0000
  H   H1985     1.0  0.47865  0.33090  0.06146  1.0000
  H   H1986     1.0  0.32339  0.39660  0.05148  1.0000
  C   C1146     1.0  0.46523  0.07541  0.15622  1.0000
  C   C1147     1.0  0.47357  0.09078  0.15275  1.0000
  C   C1148     1.0  0.47566  0.25873  0.03522  1.0000
  H   H1987     1.0  0.43520  0.00479  0.07311  1.0000
  C   C1149     1.0  0.47515  0.10513  0.99428  1.0000
  H   H1988     1.0  0.39075  0.07862  0.21877  1.0000
  Fe  Fe157     1.0  0.46979  0.05434  0.11046  1.0000
  H   H1989     1.0  0.46493  0.09298  0.20441  1.0000
  H   H1990     1.0  0.46881  0.02280  0.14519  1.0000
  S   S339      1.0  0.40084  0.22647  0.98874  1.0000
  N   N83       1.0  0.46146  0.28191  0.98717  1.0000
  C   C1150     1.0  0.48327  0.17470  0.00940  1.0000
  C   C1151     1.0  0.40664  0.03808  0.23041  1.0000
  Fe  Fe158     1.0  0.24075  0.46840  0.03240  1.0000
  H   H1991     1.0  0.46731  0.04411  0.15336  1.0000
  C   C1152     1.0  0.37035  0.99818  0.17888  1.0000
  H   H1992     1.0  0.33015  0.43086  0.01086  1.0000
  H   H1993     1.0  0.35170  0.41362  0.02581  1.0000
  C   C1153     1.0  0.45933  0.37464  0.00881  1.0000
  Fe  Fe159     1.0  0.48173  0.13120  0.00440  1.0000
  H   H1994     1.0  0.45313  0.42209  0.01534  1.0000
  H   H1995     1.0  0.34297  0.43117  0.03982  1.0000
  C   C1154     1.0  0.38652  0.11772  0.98461  1.0000
  H   H1996     1.0  0.31399  0.42668  0.04966  1.0000
  H   H1997     1.0  0.31604  0.40921  0.04457  1.0000
  H   H1998     1.0  0.35654  0.42450  0.03506  1.0000
  H   H1999     1.0  0.37597  0.02311  0.23205  1.0000
  H   H2000     1.0  0.28986  0.48094  0.00170  1.0000
  H   H2001     1.0  0.26280  0.47818  0.01732  1.0000
  S   S340      1.0  0.47561  0.22478  0.99944  1.0000
  H   H2002     1.0  0.47247  0.99143  0.20941  1.0000
  H   H2003     1.0  0.45793  0.00615  0.09148  1.0000
  S   S341      1.0  0.47012  0.14466  0.99579  1.0000
  H   H2004     1.0  0.39067  0.26147  0.00790  1.0000
  C   C1155     1.0  0.40710  0.37410  0.98660  1.0000
  H   H2005     1.0  0.40915  0.17008  0.99474  1.0000
  H   H2006     1.0  0.45056  0.17105  0.05542  1.0000
  C   C1156     1.0  0.44684  0.01354  0.10435  1.0000
  H   H2007     1.0  0.27147  0.47840  0.04061  1.0000
  H   H2008     1.0  0.37119  0.01347  0.22182  1.0000
  C   C1157     1.0  0.48193  0.35310  0.02416  1.0000
  H   H2009     1.0  0.44244  0.02255  0.22768  1.0000
  S   S342      1.0  0.47716  0.39769  0.02041  1.0000
  H   H2010     1.0  0.47605  0.11377  0.99184  1.0000
  C   C1158     1.0  0.44958  0.16936  0.03504  1.0000
  H   H2011     1.0  0.45677  0.28387  0.00417  1.0000
  S   S343      1.0  0.48090  0.00644  0.08340  1.0000
  C   C1159     1.0  0.39084  0.19529  0.98709  1.0000
  C   C1160     1.0  0.36600  0.24235  0.99793  1.0000
  Fe  Fe160     1.0  0.48120  0.23991  0.99783  1.0000
  S   S344      1.0  0.47300  0.07980  0.07310  1.0000
  H   H2012     1.0  0.34669  0.01890  0.21423  1.0000
  H   H2013     1.0  0.39240  0.00229  0.19111  1.0000
  C   C1161     1.0  0.42395  0.34475  0.99038  1.0000
  H   H2014     1.0  0.35598  0.25528  0.00558  1.0000
  H   H2015     1.0  0.46550  0.31631  0.04980  1.0000
  H   H2016     1.0  0.44588  0.01689  0.06729  1.0000
  C   C1162     1.0  0.47874  0.27979  0.99410  1.0000
  C   C1163     1.0  0.45593  0.10329  0.98655  1.0000
  H   H2017     1.0  0.26926  0.46313  0.01135  1.0000
  H   H2018     1.0  0.46469  0.19322  0.03769  1.0000
  C   C1164     1.0  0.47674  0.41231  0.98910  1.0000
  H   H2019     1.0  0.37928  0.20438  0.99807  1.0000
  H   H2020     1.0  0.44052  0.29416  0.99458  1.0000
  H   H2021     1.0  0.45185  0.43355  0.02737  1.0000
  H   H2022     1.0  0.40306  0.07688  0.22282  1.0000
  S   S345      1.0  0.47524  0.33417  0.99975  1.0000
  S   S346      1.0  0.46681  0.08166  0.17441  1.0000
  H   H2023     1.0  0.45329  0.41277  0.00172  1.0000
  H   H2024     1.0  0.37488  0.31790  0.99893  1.0000
  H   H2025     1.0  0.35870  0.00446  0.21699  1.0000
  C   C1165     1.0  0.47631  0.02800  0.10755  1.0000
  H   H2026     1.0  0.43050  0.08567  0.22303  1.0000
  H   H2027     1.0  0.43761  0.43514  0.03217  1.0000
  H   H2028     1.0  0.47416  0.28011  0.00258  1.0000
  H   H2029     1.0  0.30510  0.46568  0.99619  1.0000
  H   H2030     1.0  0.46148  0.16533  0.06192  1.0000
  H   H2031     1.0  0.39674  0.99308  0.23098  1.0000
  H   H2032     1.0  0.47928  0.01275  0.17230  1.0000
  C   C1166     1.0  0.44807  0.20568  0.98821  1.0000
  Fe  Fe161     1.0  0.47789  0.98929  0.08971  1.0000
  H   H2033     1.0  0.37806  0.00192  0.06499  1.0000
  C   C1167     1.0  0.42948  0.01767  0.16287  1.0000
  H   H2034     1.0  0.28349  0.46339  0.00854  1.0000
  Fe  Fe162     1.0  0.48332  0.04203  0.18935  1.0000
  H   H2035     1.0  0.48220  0.10038  0.99797  1.0000
  C   C1168     1.0  0.47135  0.09373  0.06589  1.0000
  N   N84       1.0  0.37152  0.20619  0.98478  1.0000
  C   C1169     1.0  0.42616  0.98930  0.17486  1.0000
  H   H2036     1.0  0.44668  0.18976  0.99947  1.0000
  H   H2037     1.0  0.47437  0.03919  0.14113  1.0000
  H   H2038     1.0  0.47682  0.26424  0.01778  1.0000
  C   C1170     1.0  0.46739  0.08409  0.20797  1.0000
  H   H2039     1.0  0.45226  0.30661  0.99076  1.0000
  H   H2040     1.0  0.43224  0.04840  0.23140  1.0000
  H   H2041     1.0  0.47861  0.05006  0.22221  1.0000
  H   H2042     1.0  0.43801  0.32440  0.98747  1.0000
  H   H2043     1.0  0.46575  0.38642  0.98786  1.0000
  H   H2044     1.0  0.47722  0.04126  0.09323  1.0000
  H   H2045     1.0  0.33594  0.02616  0.22349  1.0000
  C   C1171     1.0  0.43967  0.10153  0.23110  1.0000
  H   H2046     1.0  0.43796  0.28546  0.00793  1.0000
  H   H2047     1.0  0.30924  0.48299  0.06207  1.0000
  C   C1172     1.0  0.43490  0.07723  0.22613  1.0000
  Fe  Fe163     1.0  0.48084  0.41399  0.01161  1.0000
  H   H2048     1.0  0.41434  0.31193  0.98449  1.0000
  H   H2049     1.0  0.46376  0.29800  0.99613  1.0000
  H   H2050     1.0  0.44223  0.09690  0.21579  1.0000
  C   C1173     1.0  0.44706  0.09567  0.22200  1.0000
  H   H2051     1.0  0.35627  0.26739  0.98996  1.0000
  H   H2052     1.0  0.41990  0.32473  0.99115  1.0000
  H   H2053     1.0  0.44853  0.16001  0.98711  1.0000
  H   H2054     1.0  0.47509  0.25563  0.05250  1.0000
  H   H2055     1.0  0.47397  0.08262  0.21234  1.0000
  H   H2056     1.0  0.41760  0.34061  0.99616  1.0000
  C   C1174     1.0  0.47886  0.27136  0.04410  1.0000
  H   H2057     1.0  0.47018  0.32848  0.04751  1.0000
  C   C1175     1.0  0.36897  0.32385  0.99429  1.0000
  H   H2058     1.0  0.48352  0.15610  0.02892  1.0000
  H   H2059     1.0  0.35258  0.20566  0.00350  1.0000
  H   H2060     1.0  0.38646  0.99536  0.20434  1.0000
  C   C1176     1.0  0.36457  0.07661  0.23231  1.0000
  N   N85       1.0  0.45203  0.08364  0.22555  1.0000
  H   H2061     1.0  0.37728  0.17892  0.98748  1.0000
  C   C1177     1.0  0.35735  0.21200  0.00178  1.0000
  N   N86       1.0  0.35567  0.01781  0.23287  1.0000
  H   H2062     1.0  0.43631  0.11017  0.22727  1.0000
  C   C1178     1.0  0.37387  0.26323  0.98982  1.0000
  H   H2063     1.0  0.47942  0.09788  0.13575  1.0000
  S   S347      1.0  0.48388  0.29123  0.03398  1.0000
  H   H2064     1.0  0.36620  0.03585  0.22841  1.0000
  H   H2065     1.0  0.36320  0.20914  0.00719  1.0000
  C   C1179     1.0  0.46065  0.30179  0.98857  1.0000
  C   C1180     1.0  0.48613  0.36786  0.02925  1.0000
  C   C1181     1.0  0.47428  0.99331  0.22479  1.0000
  C   C1182     1.0  0.36364  0.98937  0.12975  1.0000
  C   C1183     1.0  0.37442  0.33242  0.98523  1.0000
  H   H2066     1.0  0.43839  0.07269  0.21942  1.0000
  H   H2067     1.0  0.38872  0.18740  0.99194  1.0000
  H   H2068     1.0  0.39602  0.40963  0.98951  1.0000
  N   N87       1.0  0.27267  0.48605  0.00253  1.0000
  C   C1184     1.0  0.47636  0.26139  0.04468  1.0000
  H   H2069     1.0  0.39477  0.26072  0.99357  1.0000
  H   H2070     1.0  0.42859  0.02172  0.23014  1.0000
  C   C1185     1.0  0.48045  0.27896  0.03410  1.0000
  H   H2071     1.0  0.46978  0.31857  0.06065  1.0000
  H   H2072     1.0  0.43849  0.00943  0.23296  1.0000
  C   C1186     1.0  0.44356  0.07713  0.23207  1.0000
  C   C1187     1.0  0.23946  0.43202  0.99638  1.0000
  H   H2073     1.0  0.48214  0.32270  0.07392  1.0000
  C   C1188     1.0  0.36763  0.19560  0.98827  1.0000
  H   H2074     1.0  0.44149  0.19188  0.98748  1.0000
  C   C1189     1.0  0.48431  0.04482  0.14872  1.0000
  H   H2075     1.0  0.48067  0.28788  0.98963  1.0000
  H   H2076     1.0  0.39767  0.19598  0.99009  1.0000
  H   H2077     1.0  0.35811  0.99521  0.23033  1.0000
  H   H2078     1.0  0.48355  0.99558  0.14235  1.0000
  H   H2079     1.0  0.48100  0.28225  0.01682  1.0000
  H   H2080     1.0  0.37057  0.99545  0.22057  1.0000
  C   C1190     1.0  0.38135  0.20512  0.98911  1.0000
  H   H2081     1.0  0.45720  0.26784  0.98484  1.0000
  H   H2082     1.0  0.36955  0.98982  0.18035  1.0000
  H   H2083     1.0  0.47684  0.09161  0.98700  1.0000
  H   H2084     1.0  0.37765  0.25723  0.98444  1.0000
  H   H2085     1.0  0.48249  0.05117  0.15358  1.0000
  C   C1191     1.0  0.48572  0.40352  0.98997  1.0000
  C   C1192     1.0  0.36266  0.21504  0.98942  1.0000
  H   H2086     1.0  0.48192  0.99312  0.13014  1.0000
  C   C1193     1.0  0.36364  0.27067  0.98599  1.0000
  H   H2087     1.0  0.44188  0.21354  0.98732  1.0000
  H   H2088     1.0  0.47317  0.26688  0.99142  1.0000
  H   H2089     1.0  0.48629  0.03682  0.15458  1.0000
  C   C1194     1.0  0.43614  0.01824  0.23329  1.0000
  C   C1195     1.0  0.39201  0.99111  0.22622  1.0000
  H   H2090     1.0  0.38457  0.21275  0.98570  1.0000
  C   C1196     1.0  0.48558  0.32591  0.06512  1.0000
  C   C1197     1.0  0.46368  0.04892  0.23416  1.0000
  H   H2091     1.0  0.48498  0.33448  0.04399  1.0000
  H   H2092     1.0  0.29002  0.48830  0.05275  1.0000
  S   S348      1.0  0.32881  0.48760  0.02931  1.0000
  H   H2093     1.0  0.43451  0.16413  0.98675  1.0000
  H   H2094     1.0  0.37246  0.29273  0.98613  1.0000
  H   H2095     1.0  0.48662  0.27391  0.99477  1.0000
  H   H2096     1.0  0.30386  0.48780  0.04627  1.0000
  H   H2097     1.0  0.30754  0.48766  0.07424  1.0000
  C   C1198     1.0  0.40875  0.99819  0.30190  1.0000
  S   S349      1.0  0.45283  0.05705  0.39006  1.0000
  Fe  Fe164     1.0  0.39192  0.06695  0.34696  1.0000
  S   S350      1.0  0.39359  0.07220  0.36147  1.0000
  S   S351      1.0  0.38339  0.07745  0.33344  1.0000
  Fe  Fe165     1.0  0.40727  0.04491  0.35171  1.0000
  S   S352      1.0  0.41042  0.04795  0.36648  1.0000
  S   S353      1.0  0.41504  0.02993  0.34472  1.0000
  Fe  Fe166     1.0  0.39241  0.05486  0.37055  1.0000
  S   S354      1.0  0.38478  0.04839  0.38829  1.0000
  Fe  Fe167     1.0  0.41138  0.06487  0.35641  1.0000
  S   S355      1.0  0.42547  0.07275  0.35339  1.0000
  S   S356      1.0  0.38922  0.05028  0.35646  1.0000
  S   S357      1.0  0.40977  0.06114  0.34126  1.0000
  Fe  Fe168     1.0  0.38688  0.05430  0.28337  1.0000
  S   S358      1.0  0.40427  0.04814  0.27572  1.0000
  S   S359      1.0  0.38011  0.05005  0.30158  1.0000
  Fe  Fe169     1.0  0.38025  0.06210  0.26159  1.0000
  S   S360      1.0  0.39693  0.05682  0.25191  1.0000
  S   S361      1.0  0.36599  0.06962  0.25375  1.0000
  Fe  Fe170     1.0  0.39775  0.04171  0.26527  1.0000
  S   S362      1.0  0.40692  0.02572  0.26094  1.0000
  Fe  Fe171     1.0  0.40225  0.06378  0.26292  1.0000
  S   S363      1.0  0.41646  0.07169  0.25501  1.0000
  S   S364      1.0  0.38051  0.04625  0.27406  1.0000
  S   S365      1.0  0.38536  0.07070  0.27151  1.0000
  S   S366      1.0  0.43675  0.07441  0.29242  1.0000
  Fe  Fe172     1.0  0.32929  0.05208  0.42766  1.0000
  S   S367      1.0  0.31847  0.04245  0.42555  1.0000
  S   S368      1.0  0.33649  0.06453  0.41342  1.0000
  Fe  Fe173     1.0  0.32915  0.04026  0.45141  1.0000
  S   S369      1.0  0.31875  0.02936  0.45124  1.0000
  S   S370      1.0  0.33663  0.03649  0.46602  1.0000
  Fe  Fe174     1.0  0.32892  0.02797  0.43456  1.0000
  S   S371      1.0  0.33673  0.01199  0.42932  1.0000
  Fe  Fe175     1.0  0.30901  0.04468  0.44241  1.0000
  S   S372      1.0  0.29110  0.04602  0.44961  1.0000
  S   S373      1.0  0.34031  0.03735  0.43553  1.0000
  S   S374      1.0  0.31877  0.05581  0.44378  1.0000
  C   C1199     1.0  0.37132  0.03341  0.37605  1.0000
  C   C1200     1.0  0.38140  0.99926  0.29532  1.0000
  H   H2098     1.0  0.33096  0.07757  0.31085  1.0000
  H   H2099     1.0  0.26341  0.07811  0.46262  1.0000
  C   C1201     1.0  0.39032  0.02131  0.29734  1.0000
  S   S375      1.0  0.25418  0.05754  0.42331  1.0000
  C   C1202     1.0  0.47985  0.05101  0.23815  1.0000
  Fe  Fe176     1.0  0.24462  0.04441  0.42794  1.0000
  C   C1203     1.0  0.28237  0.04798  0.44079  1.0000
  C   C1204     1.0  0.28165  0.05713  0.43203  1.0000
  C   C1205     1.0  0.27313  0.05990  0.42652  1.0000
  C   C1206     1.0  0.26535  0.05347  0.42966  1.0000
  C   C1207     1.0  0.26628  0.04413  0.43821  1.0000
  C   C1208     1.0  0.27473  0.04142  0.44377  1.0000
  H   H2100     1.0  0.28738  0.06237  0.42981  1.0000
  H   H2101     1.0  0.27245  0.06714  0.41993  1.0000
  H   H2102     1.0  0.26030  0.03916  0.44079  1.0000
  H   H2103     1.0  0.27513  0.03442  0.45063  1.0000
  H   H2104     1.0  0.39020  0.01386  0.37686  1.0000
  C   C1209     1.0  0.31015  0.00719  0.42300  1.0000
  C   C1210     1.0  0.31716  0.01206  0.42553  1.0000
  C   C1211     1.0  0.32789  0.00645  0.42567  1.0000
  C   C1212     1.0  0.24313  0.01981  0.46954  1.0000
  H   H2105     1.0  0.47064  0.02357  0.27224  1.0000
  H   H2106     1.0  0.30181  0.01147  0.42306  1.0000
  H   H2107     1.0  0.31420  0.02008  0.42752  1.0000
  C   C1213     1.0  0.24376  0.05752  0.46094  1.0000
  C   C1214     1.0  0.39898  0.01851  0.25810  1.0000
  C   C1215     1.0  0.40395  0.00841  0.25522  1.0000
  C   C1216     1.0  0.23858  0.06518  0.45143  1.0000
  C   C1217     1.0  0.23788  0.00694  0.40904  1.0000
  C   C1218     1.0  0.38779  0.02243  0.25915  1.0000
  H   H2108     1.0  0.41261  0.00535  0.25432  1.0000
  H   H2109     1.0  0.38391  0.03028  0.26126  1.0000
  C   C1219     1.0  0.42213  0.07324  0.26501  1.0000
  C   C1220     1.0  0.43333  0.06977  0.26419  1.0000
  C   C1221     1.0  0.43793  0.07059  0.27236  1.0000
  C   C1222     1.0  0.43135  0.07494  0.28133  1.0000
  C   C1223     1.0  0.42020  0.07884  0.28188  1.0000
  C   C1224     1.0  0.41556  0.07777  0.27385  1.0000
  H   H2110     1.0  0.43838  0.06609  0.25746  1.0000
  H   H2111     1.0  0.44657  0.06783  0.27172  1.0000
  H   H2112     1.0  0.41511  0.08243  0.28867  1.0000
  H   H2113     1.0  0.40691  0.08056  0.27445  1.0000
  C   C1225     1.0  0.35908  0.02250  0.24046  1.0000
  H   H2114     1.0  0.24909  0.05038  0.45755  1.0000
  C   C1226     1.0  0.24319  0.07257  0.46969  1.0000
  H   H2115     1.0  0.46658  0.01848  0.39388  1.0000
  H   H2116     1.0  0.46913  0.01104  0.37514  1.0000
  C   C1227     1.0  0.37146  0.05355  0.39498  1.0000
  C   C1228     1.0  0.36797  0.04862  0.40601  1.0000
  C   C1229     1.0  0.35727  0.05188  0.41159  1.0000
  C   C1230     1.0  0.34995  0.06028  0.40631  1.0000
  C   C1231     1.0  0.35352  0.06547  0.39534  1.0000
  C   C1232     1.0  0.36424  0.06204  0.38962  1.0000
  H   H2117     1.0  0.37355  0.04211  0.41022  1.0000
  H   H2118     1.0  0.35476  0.04800  0.42005  1.0000
  H   H2119     1.0  0.34794  0.07206  0.39120  1.0000
  H   H2120     1.0  0.36689  0.06593  0.38111  1.0000
  C   C1233     1.0  0.38208  0.07007  0.32458  1.0000
  C   C1234     1.0  0.37980  0.05961  0.32870  1.0000
  C   C1235     1.0  0.37901  0.05368  0.32155  1.0000
  C   C1236     1.0  0.38082  0.05801  0.31019  1.0000
  C   C1237     1.0  0.38309  0.06848  0.30602  1.0000
  C   C1238     1.0  0.38353  0.07458  0.31324  1.0000
  H   H2121     1.0  0.37854  0.05614  0.33743  1.0000
  H   H2122     1.0  0.37718  0.04561  0.32482  1.0000
  H   H2123     1.0  0.38448  0.07189  0.29727  1.0000
  H   H2124     1.0  0.38530  0.08267  0.31002  1.0000
  C   C1239     1.0  0.44510  0.06173  0.37998  1.0000
  C   C1240     1.0  0.43473  0.05960  0.38242  1.0000
  C   C1241     1.0  0.42867  0.06283  0.37426  1.0000
  C   C1242     1.0  0.43284  0.06852  0.36376  1.0000
  C   C1243     1.0  0.44310  0.07086  0.36143  1.0000
  C   C1244     1.0  0.44930  0.06733  0.36946  1.0000
  H   H2125     1.0  0.43143  0.05534  0.39058  1.0000
  H   H2126     1.0  0.42069  0.06112  0.37616  1.0000
  H   H2127     1.0  0.44626  0.07544  0.35341  1.0000
  H   H2128     1.0  0.45726  0.06909  0.36757  1.0000
  C   C1245     1.0  0.39413  0.00530  0.36379  1.0000
  C   C1246     1.0  0.40022  0.00457  0.35322  1.0000
  C   C1247     1.0  0.40695  0.01191  0.34748  1.0000
  C   C1248     1.0  0.40731  0.02022  0.35218  1.0000
  C   C1249     1.0  0.40121  0.02097  0.36275  1.0000
  C   C1250     1.0  0.39471  0.01344  0.36860  1.0000
  H   H2129     1.0  0.34471  0.06728  0.31707  1.0000
  H   H2130     1.0  0.41160  0.01129  0.33932  1.0000
  H   H2131     1.0  0.40157  0.02730  0.36648  1.0000
  H   H2132     1.0  0.41628  0.00567  0.27516  1.0000
  H   H2133     1.0  0.27112  0.06423  0.46655  1.0000
  H   H2134     1.0  0.35792  0.05886  0.31340  1.0000
  C   C1251     1.0  0.46021  0.02994  0.36170  1.0000
  H   H2135     1.0  0.33912  0.01935  0.24214  1.0000
  S   S376      1.0  0.47722  0.07366  0.37737  1.0000
  H   H2136     1.0  0.35206  0.02823  0.24449  1.0000
  C   C1252     1.0  0.44728  0.00462  0.29556  1.0000
  C   C1253     1.0  0.40493  0.99532  0.28574  1.0000
  C   C1254     1.0  0.44347  0.99350  0.35574  1.0000
  H   H2137     1.0  0.34802  0.00763  0.25662  1.0000
  S   S377      1.0  0.24424  0.01769  0.40721  1.0000
  H   H2138     1.0  0.35899  0.00745  0.39690  1.0000
  C   C1255     1.0  0.45535  0.99870  0.30138  1.0000
  C   C1256     1.0  0.45803  0.01565  0.30341  1.0000
  H   H2139     1.0  0.32160  0.00141  0.37378  1.0000
  H   H2140     1.0  0.33854  0.02428  0.39058  1.0000
  S   S378      1.0  0.25070  0.01281  0.45918  1.0000
  H   H2141     1.0  0.39821  0.99978  0.31827  1.0000
  C   C1257     1.0  0.40551  0.00237  0.31260  1.0000
  H   H2142     1.0  0.26712  0.00810  0.41540  1.0000
  C   C1258     1.0  0.48136  0.06189  0.32553  1.0000
  H   H2143     1.0  0.33894  0.01016  0.39685  1.0000
  H   H2144     1.0  0.46844  0.08665  0.33099  1.0000
  H   H2145     1.0  0.45590  0.02685  0.35742  1.0000
  H   H2146     1.0  0.34244  0.99282  0.37301  1.0000
  C   C1259     1.0  0.46069  0.00419  0.30534  1.0000
  H   H2147     1.0  0.33457  0.04341  0.40153  1.0000
  S   S379      1.0  0.38582  0.99607  0.37103  1.0000
  H   H2148     1.0  0.32837  0.00478  0.45347  1.0000
  H   H2149     1.0  0.48152  0.01745  0.32116  1.0000
  N   N88       1.0  0.35738  0.06567  0.43743  1.0000
  C   C1260     1.0  0.35922  0.07236  0.42576  1.0000
  C   C1261     1.0  0.34574  0.06459  0.44062  1.0000
  C   C1262     1.0  0.36494  0.05448  0.43762  1.0000
  C   C1263     1.0  0.35983  0.07168  0.44454  1.0000
  C   C1264     1.0  0.37111  0.07261  0.41986  1.0000
  C   C1265     1.0  0.33715  0.07545  0.44088  1.0000
  C   C1266     1.0  0.36190  0.04495  0.44723  1.0000
  C   C1267     1.0  0.35727  0.06714  0.45707  1.0000
  H   H2150     1.0  0.35584  0.06936  0.42048  1.0000
  H   H2151     1.0  0.35482  0.08109  0.42536  1.0000
  H   H2152     1.0  0.34382  0.05912  0.44878  1.0000
  H   H2153     1.0  0.34418  0.06053  0.43487  1.0000
  H   H2154     1.0  0.36564  0.05164  0.43007  1.0000
  H   H2155     1.0  0.37330  0.05489  0.43752  1.0000
  H   H2156     1.0  0.36858  0.07182  0.44229  1.0000
  H   H2157     1.0  0.35579  0.08056  0.44292  1.0000
  H   H2158     1.0  0.37124  0.07819  0.41161  1.0000
  H   H2159     1.0  0.37518  0.07583  0.42429  1.0000
  H   H2160     1.0  0.37590  0.06443  0.41841  1.0000
  H   H2161     1.0  0.33793  0.07987  0.44669  1.0000
  H   H2162     1.0  0.33734  0.08088  0.43258  1.0000
  H   H2163     1.0  0.32897  0.07358  0.44379  1.0000
  H   H2164     1.0  0.35477  0.04248  0.44650  1.0000
  H   H2165     1.0  0.36035  0.04676  0.45541  1.0000
  H   H2166     1.0  0.36871  0.03762  0.44688  1.0000
  H   H2167     1.0  0.36437  0.06108  0.45976  1.0000
  H   H2168     1.0  0.35014  0.06341  0.46010  1.0000
  H   H2169     1.0  0.35517  0.07402  0.46134  1.0000
  N   N89       1.0  0.45703  0.02628  0.37403  1.0000
  C   C1268     1.0  0.46363  0.03082  0.37881  1.0000
  H   H2170     1.0  0.27221  0.99673  0.47370  1.0000
  H   H2171     1.0  0.42554  0.03029  0.26683  1.0000
  C   C1269     1.0  0.44515  0.03046  0.37862  1.0000
  C   C1270     1.0  0.46255  0.02722  0.39136  1.0000
  C   C1271     1.0  0.45847  0.04249  0.35717  1.0000
  N   N90       1.0  0.44284  0.99518  0.34394  1.0000
  C   C1272     1.0  0.43705  0.03100  0.37173  1.0000
  S   S380      1.0  0.37878  0.99704  0.25436  1.0000
  H   H2172     1.0  0.46135  0.03996  0.37702  1.0000
  H   H2173     1.0  0.33258  0.99955  0.38820  1.0000
  H   H2174     1.0  0.45492  0.07204  0.24835  1.0000
  H   H2175     1.0  0.47571  0.05711  0.32591  1.0000
  S   S381      1.0  0.47129  0.99493  0.27460  1.0000
  H   H2176     1.0  0.44254  0.02554  0.38701  1.0000
  H   H2177     1.0  0.44379  0.03899  0.37967  1.0000
  C   C1273     1.0  0.36851  0.06781  0.24026  1.0000
  H   H2178     1.0  0.25639  0.07222  0.44975  1.0000
  H   H2179     1.0  0.29626  0.05507  0.47490  1.0000
  H   H2180     1.0  0.45910  0.04435  0.34817  1.0000
  H   H2181     1.0  0.45041  0.04698  0.36089  1.0000
  H   H2182     1.0  0.46483  0.04579  0.35845  1.0000
  Fe  Fe177     1.0  0.24074  0.02539  0.42165  1.0000
  C   C1274     1.0  0.33026  0.05735  0.47042  1.0000
  Fe  Fe178     1.0  0.45306  0.06292  0.29150  1.0000
  H   H2183     1.0  0.42941  0.02917  0.37741  1.0000
  H   H2184     1.0  0.37282  0.01881  0.25897  1.0000
  H   H2185     1.0  0.43471  0.03952  0.36695  1.0000
  C   C1275     1.0  0.48292  0.06342  0.33534  1.0000
  Fe  Fe179     1.0  0.46513  0.03968  0.29844  1.0000
  S   S382      1.0  0.45720  0.04811  0.28422  1.0000
  C   C1276     1.0  0.35443  0.07381  0.30061  1.0000
  H   H2186     1.0  0.48566  0.02886  0.42921  1.0000
  H   H2187     1.0  0.44236  0.00436  0.32268  1.0000
  S   S383      1.0  0.44212  0.99781  0.28896  1.0000
  H   H2188     1.0  0.36265  0.01111  0.41529  1.0000
  H   H2189     1.0  0.40462  0.01138  0.31091  1.0000
  S   S384      1.0  0.48439  0.00528  0.35446  1.0000
  H   H2190     1.0  0.45002  0.04810  0.24793  1.0000
  H   H2191     1.0  0.36657  0.04194  0.37603  1.0000
  H   H2192     1.0  0.47739  0.02399  0.33847  1.0000
  H   H2193     1.0  0.39492  0.01531  0.28257  1.0000
  C   C1277     1.0  0.46041  0.08466  0.33240  1.0000
  H   H2194     1.0  0.40168  0.99420  0.25168  1.0000
  H   H2195     1.0  0.43757  0.99508  0.26432  1.0000
  H   H2196     1.0  0.45240  0.00271  0.24197  1.0000
  N   N91       1.0  0.34929  0.07058  0.29325  1.0000
  H   H2197     1.0  0.28508  0.04960  0.47554  1.0000
  C   C1278     1.0  0.44989  0.02156  0.29773  1.0000
  H   H2198     1.0  0.35587  0.99780  0.24835  1.0000
  H   H2199     1.0  0.36384  0.06757  0.28067  1.0000
  C   C1279     1.0  0.34403  0.01604  0.39171  1.0000
  H   H2200     1.0  0.45619  0.01972  0.23652  1.0000
  H   H2201     1.0  0.35115  0.05418  0.28063  1.0000
  H   H2202     1.0  0.27406  0.07185  0.45279  1.0000
  H   H2203     1.0  0.45958  0.04983  0.26105  1.0000
  H   H2204     1.0  0.32128  0.07956  0.30295  1.0000
  H   H2205     1.0  0.46104  0.07615  0.33737  1.0000
  H   H2206     1.0  0.43909  0.07992  0.23976  1.0000
  H   H2207     1.0  0.43422  0.99412  0.37233  1.0000
  H   H2208     1.0  0.39373  0.02855  0.29625  1.0000
  N   N92       1.0  0.44327  0.01578  0.25055  1.0000
  H   H2209     1.0  0.38635  0.00146  0.30875  1.0000
  H   H2210     1.0  0.48245  0.00980  0.25904  1.0000
  H   H2211     1.0  0.46337  0.08061  0.24820  1.0000
  C   C1280     1.0  0.34615  0.01282  0.23945  1.0000
  S   S385      1.0  0.47813  0.99560  0.24367  1.0000
  H   H2212     1.0  0.47017  0.99488  0.33100  1.0000
  C   C1281     1.0  0.38650  0.00572  0.25512  1.0000
  C   C1282     1.0  0.25399  0.05407  0.47511  1.0000
  H   H2213     1.0  0.25975  0.03919  0.46810  1.0000
  C   C1283     1.0  0.38152  0.01600  0.25770  1.0000
  C   C1284     1.0  0.44439  0.01607  0.29392  1.0000
  C   C1285     1.0  0.33875  0.00416  0.46381  1.0000
  H   H2214     1.0  0.35860  0.05386  0.29628  1.0000
  H   H2215     1.0  0.37958  0.00774  0.29037  1.0000
  N   N93       1.0  0.40040  0.00141  0.29498  1.0000
  H   H2216     1.0  0.33815  0.02955  0.40794  1.0000
  S   S386      1.0  0.46482  0.02251  0.30826  1.0000
  C   C1286     1.0  0.35001  0.05833  0.29636  1.0000
  C   C1287     1.0  0.43839  0.00718  0.33971  1.0000
  C   C1288     1.0  0.36713  0.02299  0.39987  1.0000
  H   H2217     1.0  0.39942  0.99786  0.27991  1.0000
  C   C1289     1.0  0.34589  0.05364  0.28901  1.0000
  C   C1290     1.0  0.46016  0.01391  0.37732  1.0000
  H   H2218     1.0  0.32468  0.07318  0.47488  1.0000
  H   H2219     1.0  0.33737  0.05761  0.28853  1.0000
  H   H2220     1.0  0.27690  0.00741  0.42285  1.0000
  H   H2221     1.0  0.44788  0.03037  0.29632  1.0000
  H   H2222     1.0  0.26203  0.99782  0.40762  1.0000
  H   H2223     1.0  0.46709  0.99955  0.30963  1.0000
  C   C1291     1.0  0.43449  0.02890  0.26397  1.0000
  H   H2224     1.0  0.37473  0.03282  0.36734  1.0000
  C   C1292     1.0  0.29331  0.04736  0.47727  1.0000
  H   H2225     1.0  0.34921  0.01426  0.40648  1.0000
  S   S387      1.0  0.48139  0.05285  0.25814  1.0000
  Fe  Fe180     1.0  0.47018  0.05861  0.38347  1.0000
  H   H2226     1.0  0.47241  0.02861  0.37497  1.0000
  C   C1293     1.0  0.35747  0.08511  0.27727  1.0000
  H   H2227     1.0  0.39950  0.99856  0.34933  1.0000
  S   S388      1.0  0.48015  0.05043  0.36978  1.0000
  H   H2228     1.0  0.33965  0.00115  0.47245  1.0000
  H   H2229     1.0  0.31575  0.00936  0.38411  1.0000
  H   H2230     1.0  0.43973  0.02521  0.36621  1.0000
  H   H2231     1.0  0.38255  0.02464  0.29457  1.0000
  S   S389      1.0  0.45951  0.05394  0.30666  1.0000
  C   C1294     1.0  0.45840  0.04878  0.24518  1.0000
  C   C1295     1.0  0.46380  0.04976  0.25265  1.0000
  H   H2232     1.0  0.37733  0.05094  0.24349  1.0000
  H   H2233     1.0  0.32890  0.06601  0.30695  1.0000
  H   H2234     1.0  0.33470  0.07580  0.28688  1.0000
  C   C1296     1.0  0.39773  0.00204  0.25375  1.0000
  H   H2235     1.0  0.44294  0.01246  0.34122  1.0000
  H   H2236     1.0  0.29845  0.04172  0.47188  1.0000
  H   H2237     1.0  0.33747  0.08605  0.29160  1.0000
  H   H2238     1.0  0.34149  0.99937  0.25284  1.0000
  H   H2239     1.0  0.35147  0.08273  0.30060  1.0000
  C   C1297     1.0  0.45527  0.00737  0.37246  1.0000
  C   C1298     1.0  0.35315  0.06745  0.31273  1.0000
  H   H2240     1.0  0.45725  0.02616  0.25717  1.0000
  H   H2241     1.0  0.36231  0.08591  0.26869  1.0000
  H   H2242     1.0  0.44638  0.00863  0.37550  1.0000
  C   C1299     1.0  0.27078  0.00320  0.42247  1.0000
  C   C1300     1.0  0.45180  0.02230  0.24438  1.0000
  H   H2243     1.0  0.35649  0.07139  0.31725  1.0000
  C   C1301     1.0  0.43257  0.99591  0.36400  1.0000
  H   H2244     1.0  0.28353  0.99207  0.41422  1.0000
  H   H2245     1.0  0.27032  0.04602  0.46706  1.0000
  C   C1302     1.0  0.48610  0.03317  0.42052  1.0000
  H   H2246     1.0  0.45954  0.00672  0.32891  1.0000
  Fe  Fe181     1.0  0.47283  0.05339  0.27581  1.0000
  H   H2247     1.0  0.43042  0.02883  0.24472  1.0000
  H   H2248     1.0  0.48345  0.00708  0.27862  1.0000
  C   C1303     1.0  0.41611  0.99690  0.27861  1.0000
  H   H2249     1.0  0.46892  0.02633  0.35872  1.0000
  H   H2250     1.0  0.45478  0.00076  0.25510  1.0000
  C   C1304     1.0  0.25939  0.06577  0.45659  1.0000
  H   H2251     1.0  0.43284  0.01234  0.26666  1.0000
  H   H2252     1.0  0.31098  0.99743  0.38547  1.0000
  S   S390      1.0  0.48121  0.04371  0.28954  1.0000
  H   H2253     1.0  0.44090  0.01816  0.32351  1.0000
  H   H2254     1.0  0.48008  0.03124  0.31329  1.0000
  H   H2255     1.0  0.37026  0.02014  0.41611  1.0000
  C   C1305     1.0  0.31837  0.00085  0.38272  1.0000
  C   C1306     1.0  0.32965  0.00015  0.46179  1.0000
  H   H2256     1.0  0.47847  0.05982  0.34326  1.0000
  H   H2257     1.0  0.24745  0.07512  0.47455  1.0000
  C   C1307     1.0  0.35086  0.03589  0.39382  1.0000
  S   S391      1.0  0.46809  0.06889  0.28211  1.0000
  H   H2258     1.0  0.35628  0.02525  0.41592  1.0000
  H   H2259     1.0  0.44951  0.08649  0.24752  1.0000
  H   H2260     1.0  0.38366  0.99329  0.28994  1.0000
  H   H2261     1.0  0.41218  0.99865  0.31709  1.0000
  H   H2262     1.0  0.46713  0.02994  0.33077  1.0000
  H   H2263     1.0  0.35175  0.07192  0.27569  1.0000
  N   N94       1.0  0.41572  0.04583  0.30847  1.0000
  C   C1308     1.0  0.40862  0.03833  0.30888  1.0000
  C   C1309     1.0  0.41849  0.05197  0.29671  1.0000
  C   C1310     1.0  0.40933  0.05375  0.31581  1.0000
  C   C1311     1.0  0.42561  0.03885  0.31259  1.0000
  C   C1312     1.0  0.40374  0.03215  0.32043  1.0000
  C   C1313     1.0  0.42554  0.04504  0.28833  1.0000
  C   C1314     1.0  0.41201  0.06520  0.31287  1.0000
  C   C1315     1.0  0.43413  0.04488  0.31259  1.0000
  H   H2264     1.0  0.40174  0.04306  0.30490  1.0000
  H   H2265     1.0  0.41312  0.03185  0.30421  1.0000
  H   H2266     1.0  0.42301  0.05823  0.29590  1.0000
  H   H2267     1.0  0.41094  0.05665  0.29380  1.0000
  H   H2268     1.0  0.40062  0.05553  0.31583  1.0000
  H   H2269     1.0  0.40989  0.05001  0.32451  1.0000
  H   H2270     1.0  0.42325  0.03452  0.32127  1.0000
  H   H2271     1.0  0.42963  0.03201  0.30827  1.0000
  H   H2272     1.0  0.41007  0.02574  0.32407  1.0000
  H   H2273     1.0  0.39932  0.03764  0.32619  1.0000
  H   H2274     1.0  0.39777  0.02795  0.31973  1.0000
  H   H2275     1.0  0.43382  0.04175  0.28977  1.0000
  H   H2276     1.0  0.42204  0.03831  0.28813  1.0000
  H   H2277     1.0  0.42633  0.05046  0.27998  1.0000
  H   H2278     1.0  0.40705  0.06983  0.31924  1.0000
  H   H2279     1.0  0.40965  0.07016  0.30512  1.0000
  H   H2280     1.0  0.42062  0.06481  0.31239  1.0000
  H   H2281     1.0  0.43180  0.04843  0.31999  1.0000
  H   H2282     1.0  0.43561  0.05137  0.30512  1.0000
  H   H2283     1.0  0.44206  0.03896  0.31261  1.0000
  N   N95       1.0  0.35857  0.02483  0.39348  1.0000
  C   C1316     1.0  0.47692  0.02448  0.27591  1.0000
  C   C1317     1.0  0.43378  0.01989  0.24508  1.0000
  H   H2284     1.0  0.47309  0.02480  0.28459  1.0000
  H   H2285     1.0  0.42698  0.01594  0.24998  1.0000
  H   H2286     1.0  0.46676  0.03213  0.39387  1.0000
  H   H2287     1.0  0.36338  0.07259  0.29742  1.0000
  C   C1318     1.0  0.33781  0.07708  0.29346  1.0000
  H   H2288     1.0  0.36213  0.08718  0.28204  1.0000
  C   C1319     1.0  0.31382  0.99663  0.42085  1.0000
  H   H2289     1.0  0.32690  0.06010  0.46317  1.0000
  C   C1320     1.0  0.35571  0.07324  0.28160  1.0000
  H   H2290     1.0  0.26411  0.05880  0.45274  1.0000
  C   C1321     1.0  0.33165  0.99607  0.42313  1.0000
  H   H2291     1.0  0.34975  0.09128  0.27695  1.0000
  H   H2292     1.0  0.43825  0.02067  0.28933  1.0000
  N   N96       1.0  0.44704  0.08369  0.32163  1.0000
  C   C1322     1.0  0.44713  0.07183  0.32745  1.0000
  C   C1323     1.0  0.45786  0.08581  0.32120  1.0000
  C   C1324     1.0  0.44555  0.08516  0.31014  1.0000
  C   C1325     1.0  0.43772  0.09078  0.32806  1.0000
  C   C1326     1.0  0.43775  0.06719  0.32684  1.0000
  C   C1327     1.0  0.33554  0.04635  0.47344  1.0000
  C   C1328     1.0  0.44948  0.09477  0.30127  1.0000
  C   C1329     1.0  0.43656  0.10332  0.32431  1.0000
  H   H2293     1.0  0.45483  0.06634  0.32418  1.0000
  H   H2294     1.0  0.44684  0.07057  0.33634  1.0000
  H   H2295     1.0  0.45879  0.09414  0.31643  1.0000
  H   H2296     1.0  0.46453  0.08015  0.31670  1.0000
  H   H2297     1.0  0.45006  0.07773  0.30681  1.0000
  H   H2298     1.0  0.43688  0.08602  0.31020  1.0000
  H   H2299     1.0  0.42986  0.08929  0.32791  1.0000
  H   H2300     1.0  0.43772  0.08843  0.33699  1.0000
  H   H2301     1.0  0.43812  0.06664  0.31838  1.0000
  H   H2302     1.0  0.43836  0.05872  0.33200  1.0000
  H   H2303     1.0  0.42969  0.07203  0.33009  1.0000
  C   C1330     1.0  0.47451  0.05103  0.24913  1.0000
  C   C1331     1.0  0.46195  0.99902  0.33487  1.0000
  H   H2304     1.0  0.41621  0.00120  0.29718  1.0000
  H   H2305     1.0  0.44681  0.09540  0.29368  1.0000
  H   H2306     1.0  0.45847  0.09320  0.29906  1.0000
  H   H2307     1.0  0.44612  0.10280  0.30362  1.0000
  H   H2308     1.0  0.43167  0.10679  0.31792  1.0000
  H   H2309     1.0  0.44436  0.10592  0.32134  1.0000
  H   H2310     1.0  0.43235  0.10713  0.33148  1.0000
  H   H2311     1.0  0.43784  0.03027  0.27030  1.0000
  H   H2312     1.0  0.43627  0.03534  0.25652  1.0000
  H   H2313     1.0  0.35841  0.02627  0.37646  1.0000
  H   H2314     1.0  0.34551  0.05572  0.30489  1.0000
  H   H2315     1.0  0.43351  0.99812  0.25135  1.0000
  H   H2316     1.0  0.34620  0.04475  0.29260  1.0000
  H   H2317     1.0  0.45858  0.99846  0.37533  1.0000
  H   H2318     1.0  0.34390  0.03949  0.41030  1.0000
  H   H2319     1.0  0.31422  0.99925  0.45145  1.0000
  C   C1332     1.0  0.44825  0.00384  0.25044  1.0000
  S   S392      1.0  0.48165  0.05010  0.39455  1.0000
  H   H2320     1.0  0.36985  0.03208  0.24134  1.0000
  C   C1333     1.0  0.26735  0.07023  0.46001  1.0000
  H   H2321     1.0  0.34711  0.03902  0.38653  1.0000
  C   C1334     1.0  0.32942  0.07476  0.30426  1.0000
  C   C1335     1.0  0.34153  0.03693  0.40404  1.0000
  S   S393      1.0  0.25436  0.02735  0.42758  1.0000
  H   H2322     1.0  0.45775  0.01103  0.38638  1.0000
  H   H2323     1.0  0.47601  0.03807  0.33076  1.0000
  H   H2324     1.0  0.45757  0.00907  0.36338  1.0000
  C   C1336     1.0  0.36431  0.02478  0.38167  1.0000
  H   H2325     1.0  0.42915  0.01245  0.32673  1.0000
  H   H2326     1.0  0.36967  0.01655  0.38091  1.0000
  H   H2327     1.0  0.44847  0.99879  0.35640  1.0000
  H   H2328     1.0  0.46411  0.01289  0.25412  1.0000
  H   H2329     1.0  0.45441  0.09048  0.33715  1.0000
  H   H2330     1.0  0.35539  0.04225  0.39296  1.0000
  H   H2331     1.0  0.37833  0.03190  0.37983  1.0000
  H   H2332     1.0  0.33667  0.01329  0.46226  1.0000
  H   H2333     1.0  0.40602  0.01646  0.28697  1.0000
  H   H2334     1.0  0.26456  0.00333  0.43022  1.0000
  C   C1337     1.0  0.45669  0.08030  0.24471  1.0000
  C   C1338     1.0  0.39828  0.01359  0.29000  1.0000
  H   H2335     1.0  0.38854  0.01774  0.30623  1.0000
  H   H2336     1.0  0.34662  0.00183  0.45817  1.0000
  C   C1339     1.0  0.35296  0.01535  0.39759  1.0000
  H   H2337     1.0  0.32200  0.00318  0.46746  1.0000
  H   H2338     1.0  0.36197  0.01592  0.24725  1.0000
  C   C1340     1.0  0.32692  0.99414  0.38951  1.0000
  Fe  Fe182     1.0  0.24422  0.02283  0.44438  1.0000
  C   C1341     1.0  0.36371  0.01972  0.41249  1.0000
  C   C1342     1.0  0.37436  0.05782  0.23733  1.0000
  C   C1343     1.0  0.32898  0.06474  0.47707  1.0000
  H   H2339     1.0  0.34759  0.01372  0.38365  1.0000
  H   H2340     1.0  0.37048  0.03044  0.39792  1.0000
  H   H2341     1.0  0.37419  0.01637  0.39740  1.0000
  H   H2342     1.0  0.42264  0.99289  0.28319  1.0000
  C   C1344     1.0  0.24806  0.02103  0.47721  1.0000
  C   C1345     1.0  0.44047  0.99589  0.25533  1.0000
  N   N97       1.0  0.25008  0.06249  0.46558  1.0000
  H   H2343     1.0  0.48258  0.04209  0.42014  1.0000
  H   H2344     1.0  0.44812  0.03116  0.24179  1.0000
  H   H2345     1.0  0.48202  0.02413  0.25518  1.0000
  H   H2346     1.0  0.45399  0.02882  0.39589  1.0000
  H   H2347     1.0  0.31246  0.03119  0.47895  1.0000
  C   C1346     1.0  0.48312  0.02561  0.32052  1.0000
  H   H2348     1.0  0.44579  0.01308  0.26703  1.0000
  H   H2349     1.0  0.42829  0.00467  0.36226  1.0000
  C   C1347     1.0  0.34812  0.00390  0.24986  1.0000
  H   H2350     1.0  0.43003  0.00972  0.34441  1.0000
  H   H2351     1.0  0.41797  0.99290  0.27159  1.0000
  C   C1348     1.0  0.47564  0.02966  0.33076  1.0000
  H   H2352     1.0  0.48091  0.02977  0.41749  1.0000
  C   C1349     1.0  0.43929  0.01699  0.26230  1.0000
  H   H2353     1.0  0.37381  0.99768  0.30127  1.0000
  C   C1350     1.0  0.43540  0.98870  0.34300  1.0000
  C   C1351     1.0  0.26263  0.04388  0.47221  1.0000
  H   H2354     1.0  0.24710  0.05091  0.48113  1.0000
  H   H2355     1.0  0.25644  0.01703  0.47719  1.0000
  C   C1352     1.0  0.39026  0.99754  0.30168  1.0000
  H   H2356     1.0  0.24450  0.06518  0.44345  1.0000
  C   C1353     1.0  0.43769  0.01062  0.32748  1.0000
  C   C1354     1.0  0.46053  0.02149  0.25055  1.0000
  Fe  Fe183     1.0  0.47498  0.05869  0.29673  1.0000
  H   H2357     1.0  0.39228  0.98861  0.30547  1.0000
  H   H2358     1.0  0.47939  0.03234  0.27178  1.0000
  H   H2359     1.0  0.46262  0.00107  0.34234  1.0000
  H   H2360     1.0  0.46720  0.02514  0.24470  1.0000
  H   H2361     1.0  0.24190  0.07979  0.46279  1.0000
  H   H2362     1.0  0.45763  0.98987  0.30273  1.0000
  H   H2363     1.0  0.25372  0.99578  0.47870  1.0000
  H   H2364     1.0  0.32269  0.99315  0.39833  1.0000
  H   H2365     1.0  0.23945  0.00903  0.39167  1.0000
  H   H2366     1.0  0.44425  0.10195  0.23687  1.0000
  H   H2367     1.0  0.42684  0.99196  0.34690  1.0000
  H   H2368     1.0  0.42711  0.99058  0.36449  1.0000
  H   H2369     1.0  0.31221  0.04866  0.48063  1.0000
  H   H2370     1.0  0.25733  0.05781  0.47982  1.0000
  H   H2371     1.0  0.26457  0.03822  0.47992  1.0000
  C   C1355     1.0  0.45409  0.99133  0.33742  1.0000
  H   H2372     1.0  0.27465  0.99064  0.40175  1.0000
  H   H2373     1.0  0.41150  0.03804  0.23615  1.0000
  C   C1356     1.0  0.33969  0.04285  0.48297  1.0000
  H   H2374     1.0  0.44750  0.06839  0.23479  1.0000
  C   C1357     1.0  0.32461  0.99115  0.42080  1.0000
  H   H2375     1.0  0.43263  0.09780  0.23560  1.0000
  S   S394      1.0  0.48628  0.06497  0.30250  1.0000
  H   H2376     1.0  0.28404  0.98969  0.45972  1.0000
  H   H2377     1.0  0.36977  0.00460  0.23494  1.0000
  H   H2378     1.0  0.34253  0.99026  0.40149  1.0000
  C   C1358     1.0  0.36831  0.02872  0.23509  1.0000
  H   H2379     1.0  0.33994  0.99170  0.42322  1.0000
  H   H2380     1.0  0.41133  0.98908  0.30423  1.0000
  H   H2381     1.0  0.26279  0.98919  0.46179  1.0000
  H   H2382     1.0  0.45388  0.98986  0.32945  1.0000
  H   H2383     1.0  0.43532  0.98962  0.33426  1.0000
  H   H2384     1.0  0.32362  0.99191  0.48340  1.0000
  H   H2385     1.0  0.36000  0.08430  0.23453  1.0000
  H   H2386     1.0  0.33754  0.99060  0.44496  1.0000
  C   C1359     1.0  0.27642  0.99137  0.42122  1.0000
  H   H2387     1.0  0.25395  0.99397  0.42670  1.0000
  H   H2388     1.0  0.23744  0.05381  0.46741  1.0000
  C   C1360     1.0  0.31604  0.99013  0.45331  1.0000
  S   S395      1.0  0.30493  0.98996  0.41873  1.0000
  C   C1361     1.0  0.26721  0.98938  0.40815  1.0000
  C   C1362     1.0  0.23669  0.00429  0.39978  1.0000
  C   C1363     1.0  0.24239  0.02813  0.48433  1.0000
  Fe  Fe184     1.0  0.32820  0.05967  0.51357  1.0000
  S   S396      1.0  0.31766  0.06450  0.52930  1.0000
  H   H2389     1.0  0.24635  0.98961  0.53656  1.0000
  Fe  Fe185     1.0  0.33465  0.03604  0.52451  1.0000
  S   S397      1.0  0.32471  0.03855  0.54087  1.0000
  S   S398      1.0  0.34410  0.01958  0.52153  1.0000
  Fe  Fe186     1.0  0.31183  0.04907  0.53198  1.0000
  S   S399      1.0  0.29499  0.04581  0.53888  1.0000
  Fe  Fe187     1.0  0.33149  0.05357  0.53714  1.0000
  S   S400      1.0  0.33604  0.05372  0.55280  1.0000
  S   S401      1.0  0.32124  0.04513  0.51586  1.0000
  S   S402      1.0  0.34248  0.05017  0.52114  1.0000
  S   S403      1.0  0.47329  0.99893  0.58042  1.0000
  C   C1364     1.0  0.27567  0.99028  0.52579  1.0000
  Fe  Fe188     1.0  0.38456  0.05725  0.57569  1.0000
  S   S404      1.0  0.38026  0.04341  0.58980  1.0000
  S   S405      1.0  0.37644  0.06549  0.56123  1.0000
  Fe  Fe189     1.0  0.40555  0.05613  0.58239  1.0000
  S   S406      1.0  0.40306  0.04201  0.59665  1.0000
  S   S407      1.0  0.42057  0.06302  0.57756  1.0000
  Fe  Fe190     1.0  0.39789  0.03540  0.58529  1.0000
  S   S408      1.0  0.40497  0.01788  0.58413  1.0000
  Fe  Fe191     1.0  0.38586  0.05139  0.59989  1.0000
  S   S409      1.0  0.37739  0.05215  0.61743  1.0000
  S   S410      1.0  0.40191  0.04861  0.57066  1.0000
  S   S411      1.0  0.38858  0.06612  0.58624  1.0000
  Fe  Fe192     1.0  0.46936  0.04883  0.60456  1.0000
  S   S412      1.0  0.47901  0.03902  0.61717  1.0000
  S   S413      1.0  0.45187  0.04749  0.61070  1.0000
  H   H2390     1.0  0.37679  0.99544  0.60909  1.0000
  H   H2391     1.0  0.44981  0.00406  0.58211  1.0000
  H   H2392     1.0  0.47710  0.99072  0.63800  1.0000
  C   C1365     1.0  0.43339  0.08697  0.71654  1.0000
  S   S414      1.0  0.24739  0.01233  0.53099  1.0000
  H   H2393     1.0  0.38780  0.01957  0.55369  1.0000
  H   H2394     1.0  0.43257  0.00076  0.58167  1.0000
  C   C1366     1.0  0.43102  0.06574  0.73211  1.0000
  S   S415      1.0  0.47625  0.06374  0.60101  1.0000
  Fe  Fe193     1.0  0.39791  0.07192  0.65674  1.0000
  S   S416      1.0  0.40379  0.05404  0.66341  1.0000
  S   S417      1.0  0.39925  0.07649  0.63840  1.0000
  Fe  Fe194     1.0  0.39455  0.07763  0.67896  1.0000
  S   S418      1.0  0.40028  0.06021  0.68727  1.0000
  S   S419      1.0  0.38821  0.09068  0.68892  1.0000
  Fe  Fe195     1.0  0.41316  0.05963  0.67187  1.0000
  S   S420      1.0  0.43046  0.05116  0.67143  1.0000
  Fe  Fe196     1.0  0.39030  0.05638  0.67809  1.0000
  S   S421      1.0  0.38016  0.04396  0.68679  1.0000
  S   S422      1.0  0.40840  0.07746  0.66420  1.0000
  S   S423      1.0  0.38343  0.07388  0.67075  1.0000
  H   H2395     1.0  0.36015  0.00015  0.70527  1.0000
  S   S424      1.0  0.46354  0.03548  0.69847  1.0000
  H   H2396     1.0  0.37726  0.06339  0.73423  1.0000
  C   C1367     1.0  0.46903  0.01087  0.63697  1.0000
  S   S425      1.0  0.46815  0.04003  0.72033  1.0000
  H   H2397     1.0  0.42977  0.04986  0.71100  1.0000
  C   C1368     1.0  0.43114  0.08510  0.72916  1.0000
  H   H2398     1.0  0.46241  0.00658  0.64192  1.0000
  Fe  Fe197     1.0  0.46400  0.04999  0.70428  1.0000
  S   S426      1.0  0.44991  0.06440  0.70306  1.0000
  H   H2399     1.0  0.26075  0.08178  0.54276  1.0000
  H   H2400     1.0  0.24167  0.08674  0.51477  1.0000
  S   S427      1.0  0.41006  0.99829  0.67958  1.0000
  H   H2401     1.0  0.35880  0.02346  0.72719  1.0000
  H   H2402     1.0  0.29382  0.02285  0.51967  1.0000
  H   H2403     1.0  0.35301  0.03155  0.55396  1.0000
  S   S428      1.0  0.48108  0.05052  0.69508  1.0000
  H   H2404     1.0  0.32098  0.02250  0.52963  1.0000
  C   C1369     1.0  0.46417  0.00237  0.71373  1.0000
  C   C1370     1.0  0.48467  0.01315  0.58161  1.0000
  S   S429      1.0  0.31087  0.99411  0.51905  1.0000
  H   H2405     1.0  0.40026  0.02066  0.65966  1.0000
  H   H2406     1.0  0.38041  0.06865  0.70380  1.0000
  C   C1371     1.0  0.24041  0.05692  0.55148  1.0000
  H   H2407     1.0  0.39307  0.05984  0.71249  1.0000
  H   H2408     1.0  0.43734  0.05208  0.64687  1.0000
  C   C1372     1.0  0.25524  0.07821  0.52973  1.0000
  C   C1373     1.0  0.41940  0.99204  0.70550  1.0000
  H   H2409     1.0  0.36235  0.01932  0.55889  1.0000
  H   H2410     1.0  0.47921  0.99085  0.60147  1.0000
  C   C1374     1.0  0.32015  0.02181  0.49211  1.0000
  H   H2411     1.0  0.31837  0.01769  0.50088  1.0000
  H   H2412     1.0  0.30480  0.02226  0.48896  1.0000
  C   C1375     1.0  0.27885  0.04348  0.53092  1.0000
  H   H2413     1.0  0.28672  0.02685  0.50893  1.0000
  H   H2414     1.0  0.42386  0.00997  0.61141  1.0000
  C   C1376     1.0  0.43490  0.01114  0.71920  1.0000
  C   C1377     1.0  0.38847  0.03104  0.68571  1.0000
  C   C1378     1.0  0.38383  0.02216  0.68717  1.0000
  C   C1379     1.0  0.39048  0.01191  0.68579  1.0000
  C   C1380     1.0  0.40173  0.01064  0.68259  1.0000
  C   C1381     1.0  0.40637  0.01946  0.68140  1.0000
  C   C1382     1.0  0.39974  0.02964  0.68298  1.0000
  H   H2415     1.0  0.37511  0.02322  0.68928  1.0000
  H   H2416     1.0  0.38688  0.00501  0.68731  1.0000
  H   H2417     1.0  0.41509  0.01849  0.67899  1.0000
  H   H2418     1.0  0.40340  0.03643  0.68197  1.0000
  C   C1383     1.0  0.39214  0.08879  0.70137  1.0000
  C   C1384     1.0  0.38644  0.09610  0.70823  1.0000
  H   H2419     1.0  0.38000  0.10283  0.70570  1.0000
  C   C1385     1.0  0.43598  0.05716  0.67846  1.0000
  C   C1386     1.0  0.44716  0.05450  0.67763  1.0000
  C   C1387     1.0  0.45154  0.05796  0.68438  1.0000
  C   C1388     1.0  0.44472  0.06356  0.69238  1.0000
  C   C1389     1.0  0.43360  0.06697  0.69268  1.0000
  C   C1390     1.0  0.42923  0.06383  0.68563  1.0000
  H   H2420     1.0  0.45244  0.04939  0.67210  1.0000
  H   H2421     1.0  0.46020  0.05583  0.68372  1.0000
  H   H2422     1.0  0.42830  0.07148  0.69874  1.0000
  H   H2423     1.0  0.42060  0.06610  0.68614  1.0000
  H   H2424     1.0  0.37975  0.04097  0.64425  1.0000
  H   H2425     1.0  0.39923  0.02562  0.61961  1.0000
  H   H2426     1.0  0.38091  0.07449  0.72356  1.0000
  H   H2427     1.0  0.42797  0.01351  0.70516  1.0000
  C   C1391     1.0  0.46845  0.00594  0.70256  1.0000
  C   C1392     1.0  0.40087  0.01995  0.65116  1.0000
  H   H2428     1.0  0.41360  0.00516  0.65318  1.0000
  S   S430      1.0  0.40091  0.08535  0.73410  1.0000
  H   H2429     1.0  0.33636  0.00249  0.54133  1.0000
  C   C1393     1.0  0.44292  0.00610  0.58902  1.0000
  H   H2430     1.0  0.42363  0.99743  0.70726  1.0000
  H   H2431     1.0  0.35855  0.99141  0.61800  1.0000
  S   S431      1.0  0.48139  0.04212  0.59081  1.0000
  H   H2432     1.0  0.23969  0.09051  0.54012  1.0000
  H   H2433     1.0  0.43990  0.05258  0.63258  1.0000
  H   H2434     1.0  0.48033  0.06556  0.64850  1.0000
  S   S432      1.0  0.32950  0.06976  0.49617  1.0000
  S   S433      1.0  0.46270  0.01060  0.72296  1.0000
  C   C1394     1.0  0.42684  0.06529  0.63837  1.0000
  C   C1395     1.0  0.42947  0.05807  0.58662  1.0000
  C   C1396     1.0  0.44011  0.05964  0.58295  1.0000
  C   C1397     1.0  0.44716  0.05622  0.59021  1.0000
  C   C1398     1.0  0.44352  0.05136  0.60121  1.0000
  C   C1399     1.0  0.43290  0.04977  0.60488  1.0000
  C   C1400     1.0  0.42591  0.05308  0.59760  1.0000
  H   H2435     1.0  0.44289  0.06356  0.57447  1.0000
  H   H2436     1.0  0.45536  0.05749  0.58734  1.0000
  H   H2437     1.0  0.43002  0.04611  0.61341  1.0000
  H   H2438     1.0  0.41766  0.05212  0.60059  1.0000
  C   C1401     1.0  0.38365  0.05838  0.62365  1.0000
  C   C1402     1.0  0.39454  0.05889  0.61959  1.0000
  C   C1403     1.0  0.39946  0.06395  0.62452  1.0000
  C   C1404     1.0  0.39347  0.06864  0.63349  1.0000
  C   C1405     1.0  0.38267  0.06782  0.63780  1.0000
  C   C1406     1.0  0.37777  0.06271  0.63286  1.0000
  H   H2439     1.0  0.39917  0.05548  0.61257  1.0000
  H   H2440     1.0  0.40788  0.06432  0.62129  1.0000
  H   H2441     1.0  0.37799  0.07147  0.64468  1.0000
  H   H2442     1.0  0.36934  0.06231  0.63607  1.0000
  C   C1407     1.0  0.38156  0.00385  0.57499  1.0000
  C   C1408     1.0  0.37904  0.01494  0.57533  1.0000
  C   C1409     1.0  0.38659  0.01948  0.57733  1.0000
  C   C1410     1.0  0.39640  0.01278  0.57961  1.0000
  C   C1411     1.0  0.39908  0.00176  0.57889  1.0000
  C   C1412     1.0  0.39173  0.99736  0.57637  1.0000
  H   H2443     1.0  0.37113  0.01991  0.57443  1.0000
  H   H2444     1.0  0.38463  0.02806  0.57745  1.0000
  H   H2445     1.0  0.40674  0.99656  0.58047  1.0000
  C   C1413     1.0  0.40549  0.00766  0.65112  1.0000
  H   H2446     1.0  0.26130  0.99351  0.54389  1.0000
  H   H2447     1.0  0.38934  0.04961  0.72484  1.0000
  H   H2448     1.0  0.29968  0.01704  0.50785  1.0000
  C   C1414     1.0  0.35561  0.02619  0.71128  1.0000
  H   H2449     1.0  0.25293  0.08688  0.52525  1.0000
  H   H2450     1.0  0.40513  0.99321  0.71944  1.0000
  C   C1415     1.0  0.33810  0.05011  0.48976  1.0000
  H   H2451     1.0  0.36142  0.08278  0.72387  1.0000
  H   H2452     1.0  0.27721  0.01596  0.53649  1.0000
  H   H2453     1.0  0.45614  0.08308  0.61330  1.0000
  C   C1416     1.0  0.36536  0.06190  0.55893  1.0000
  C   C1417     1.0  0.36258  0.06606  0.54861  1.0000
  C   C1418     1.0  0.35371  0.06356  0.54652  1.0000
  C   C1419     1.0  0.34740  0.05702  0.55482  1.0000
  C   C1420     1.0  0.35020  0.05285  0.56512  1.0000
  C   C1421     1.0  0.35922  0.05514  0.56713  1.0000
  H   H2454     1.0  0.36727  0.07133  0.54224  1.0000
  H   H2455     1.0  0.35161  0.06686  0.53858  1.0000
  H   H2456     1.0  0.34536  0.04779  0.57158  1.0000
  H   H2457     1.0  0.36124  0.05193  0.57511  1.0000
  H   H2458     1.0  0.32439  0.01526  0.48746  1.0000
  H   H2459     1.0  0.40512  0.07461  0.69935  1.0000
  H   H2460     1.0  0.29291  0.06375  0.51993  1.0000
  C   C1422     1.0  0.47113  0.01403  0.65807  1.0000
  C   C1423     1.0  0.30976  0.02827  0.48798  1.0000
  H   H2461     1.0  0.39086  0.01449  0.63695  1.0000
  N   N98       1.0  0.43896  0.01841  0.58751  1.0000
  H   H2462     1.0  0.27837  0.03632  0.53759  1.0000
  H   H2463     1.0  0.42184  0.02106  0.59493  1.0000
  H   H2464     1.0  0.45816  0.06516  0.65501  1.0000
  Fe  Fe198     1.0  0.46931  0.02552  0.71355  1.0000
  C   C1424     1.0  0.36052  0.99045  0.53550  1.0000
  H   H2465     1.0  0.44536  0.01622  0.69595  1.0000
  H   H2466     1.0  0.36337  0.98881  0.60457  1.0000
  C   C1425     1.0  0.33843  0.00396  0.51529  1.0000
  C   C1426     1.0  0.33482  0.01274  0.52056  1.0000
  C   C1427     1.0  0.32380  0.01584  0.52534  1.0000
  H   H2467     1.0  0.36341  0.06446  0.70161  1.0000
  C   C1428     1.0  0.40725  0.99558  0.71037  1.0000
  N   N99       1.0  0.36703  0.01122  0.61203  1.0000
  C   C1429     1.0  0.35715  0.01959  0.60905  1.0000
  C   C1430     1.0  0.36470  0.00700  0.62431  1.0000
  C   C1431     1.0  0.36966  0.00166  0.60662  1.0000
  C   C1432     1.0  0.37655  0.01666  0.60813  1.0000
  C   C1433     1.0  0.35562  0.99980  0.72315  1.0000
  C   C1434     1.0  0.36441  0.01507  0.63117  1.0000
  C   C1435     1.0  0.33790  0.01468  0.55566  1.0000
  C   C1436     1.0  0.38734  0.00949  0.61097  1.0000
  H   H2468     1.0  0.34966  0.01640  0.61304  1.0000
  H   H2469     1.0  0.35593  0.02706  0.61225  1.0000
  H   H2470     1.0  0.37064  0.99933  0.62676  1.0000
  H   H2471     1.0  0.35675  0.00455  0.62727  1.0000
  H   H2472     1.0  0.47915  0.99123  0.56028  1.0000
  C   C1437     1.0  0.46956  0.01141  0.62478  1.0000
  H   H2473     1.0  0.27002  0.08264  0.52967  1.0000
  H   H2474     1.0  0.37473  0.02452  0.61084  1.0000
  H   H2475     1.0  0.42729  0.02119  0.61391  1.0000
  H   H2476     1.0  0.27275  0.01186  0.52681  1.0000
  H   H2477     1.0  0.47098  0.99783  0.65696  1.0000
  H   H2478     1.0  0.36212  0.01118  0.64002  1.0000
  H   H2479     1.0  0.37248  0.01686  0.62981  1.0000
  H   H2480     1.0  0.35834  0.02285  0.62951  1.0000
  Fe  Fe199     1.0  0.48527  0.03936  0.71076  1.0000
  C   C1438     1.0  0.33258  0.06103  0.48695  1.0000
  H   H2481     1.0  0.44638  0.00238  0.59638  1.0000
  H   H2482     1.0  0.48041  0.05360  0.66717  1.0000
  H   H2483     1.0  0.38632  0.00448  0.61944  1.0000
  H   H2484     1.0  0.39269  0.01492  0.61054  1.0000
  H   H2485     1.0  0.35369  0.00617  0.53925  1.0000
  C   C1439     1.0  0.37263  0.00631  0.71520  1.0000
  H   H2486     1.0  0.45341  0.03936  0.64630  1.0000
  H   H2487     1.0  0.34771  0.00067  0.72916  1.0000
  C   C1440     1.0  0.44772  0.07120  0.73207  1.0000
  C   C1441     1.0  0.30373  0.05740  0.49353  1.0000
  C   C1442     1.0  0.38999  0.05827  0.72148  1.0000
  H   H2488     1.0  0.38675  0.01358  0.70793  1.0000
  H   H2489     1.0  0.34294  0.01847  0.54794  1.0000
  H   H2490     1.0  0.43115  0.09592  0.71300  1.0000
  H   H2491     1.0  0.37687  0.02081  0.71749  1.0000
  C   C1443     1.0  0.27386  0.00949  0.53537  1.0000
  H   H2492     1.0  0.36183  0.03120  0.70873  1.0000
  C   C1444     1.0  0.33680  0.99559  0.54862  1.0000
  C   C1445     1.0  0.23878  0.07351  0.52939  1.0000
  C   C1446     1.0  0.24919  0.06271  0.54340  1.0000
  C   C1447     1.0  0.37496  0.04773  0.71492  1.0000
  H   H2493     1.0  0.43938  0.07735  0.64435  1.0000
  H   H2494     1.0  0.43354  0.06618  0.72313  1.0000
  H   H2495     1.0  0.36155  0.02362  0.54462  1.0000
  N   N100      1.0  0.36993  0.06680  0.72026  1.0000
  S   S434      1.0  0.38344  0.99169  0.67664  1.0000
  H   H2496     1.0  0.25928  0.99819  0.50425  1.0000
  H   H2497     1.0  0.45739  0.98962  0.72602  1.0000
  Fe  Fe200     1.0  0.24952  0.05136  0.51194  1.0000
  C   C1448     1.0  0.45345  0.02041  0.59653  1.0000
  H   H2498     1.0  0.28142  0.99482  0.50810  1.0000
  H   H2499     1.0  0.38610  0.01011  0.53514  1.0000
  H   H2500     1.0  0.40034  0.00253  0.65753  1.0000
  C   C1449     1.0  0.42949  0.02179  0.59650  1.0000
  N   N101      1.0  0.37989  0.03177  0.54152  1.0000
  C   C1450     1.0  0.38566  0.04079  0.54020  1.0000
  C   C1451     1.0  0.37774  0.03261  0.53048  1.0000
  C   C1452     1.0  0.38739  0.02091  0.54498  1.0000
  C   C1453     1.0  0.36961  0.03354  0.55016  1.0000
  C   C1454     1.0  0.39007  0.04055  0.55014  1.0000
  C   C1455     1.0  0.37001  0.04329  0.52604  1.0000
  H   H2501     1.0  0.40649  0.00573  0.64307  1.0000
  H   H2502     1.0  0.39266  0.04068  0.53300  1.0000
  H   H2503     1.0  0.38022  0.04906  0.53849  1.0000
  H   H2504     1.0  0.37426  0.02578  0.53046  1.0000
  H   H2505     1.0  0.38550  0.03179  0.52421  1.0000
  H   H2506     1.0  0.39583  0.02096  0.54014  1.0000
  H   H2507     1.0  0.40988  0.07246  0.71723  1.0000
  H   H2508     1.0  0.35291  0.07501  0.72246  1.0000
  H   H2509     1.0  0.36526  0.04225  0.54863  1.0000
  H   H2510     1.0  0.39370  0.04781  0.54823  1.0000
  H   H2511     1.0  0.38359  0.04123  0.55764  1.0000
  H   H2512     1.0  0.39657  0.03318  0.55190  1.0000
  H   H2513     1.0  0.36197  0.04458  0.53175  1.0000
  H   H2514     1.0  0.26879  0.06945  0.53797  1.0000
  H   H2515     1.0  0.24636  0.02932  0.48993  1.0000
  H   H2516     1.0  0.46166  0.01613  0.62274  1.0000
  H   H2517     1.0  0.39055  0.00317  0.54753  1.0000
  H   H2518     1.0  0.44780  0.02374  0.60353  1.0000
  H   H2519     1.0  0.36464  0.01873  0.66120  1.0000
  H   H2520     1.0  0.45488  0.02157  0.57936  1.0000
  H   H2521     1.0  0.33777  0.99989  0.56831  1.0000
  H   H2522     1.0  0.43842  0.03936  0.57044  1.0000
  H   H2523     1.0  0.46295  0.01779  0.65635  1.0000
  H   H2524     1.0  0.42811  0.03689  0.56567  1.0000
  H   H2525     1.0  0.34693  0.00161  0.51152  1.0000
  C   C1456     1.0  0.40056  0.08018  0.70467  1.0000
  C   C1457     1.0  0.40322  0.07894  0.71482  1.0000
  C   C1458     1.0  0.28005  0.06194  0.51370  1.0000
  C   C1459     1.0  0.43162  0.03509  0.57299  1.0000
  H   H2526     1.0  0.47159  0.01329  0.69967  1.0000
  C   C1460     1.0  0.40009  0.02671  0.62748  1.0000
  C   C1461     1.0  0.27193  0.04642  0.52359  1.0000
  H   H2527     1.0  0.42474  0.07140  0.64353  1.0000
  H   H2528     1.0  0.42071  0.06014  0.64166  1.0000
  H   H2529     1.0  0.47621  0.02021  0.65510  1.0000
  H   H2530     1.0  0.38330  0.01037  0.65545  1.0000
  H   H2531     1.0  0.43981  0.07781  0.62576  1.0000
  N   N102      1.0  0.39010  0.02478  0.64792  1.0000
  H   H2532     1.0  0.44566  0.03266  0.58492  1.0000
  H   H2533     1.0  0.39155  0.00402  0.60511  1.0000
  C   C1462     1.0  0.48384  0.99451  0.63760  1.0000
  H   H2534     1.0  0.34105  0.04720  0.49727  1.0000
  H   H2535     1.0  0.29557  0.04118  0.50933  1.0000
  H   H2536     1.0  0.45551  0.04808  0.65383  1.0000
  H   H2537     1.0  0.37838  0.01925  0.59905  1.0000
  C   C1463     1.0  0.47655  0.00364  0.65337  1.0000
  H   H2538     1.0  0.48321  0.01768  0.57361  1.0000
  H   H2539     1.0  0.36863  0.02490  0.64701  1.0000
  H   H2540     1.0  0.30837  0.03210  0.50874  1.0000
  H   H2541     1.0  0.26586  0.00962  0.54112  1.0000
  H   H2542     1.0  0.42845  0.01909  0.57698  1.0000
  H   H2543     1.0  0.46051  0.02430  0.59429  1.0000
  C   C1464     1.0  0.46516  0.99017  0.69855  1.0000
  C   C1465     1.0  0.48255  0.99793  0.59717  1.0000
  H   H2544     1.0  0.43783  0.01024  0.60973  1.0000
  H   H2545     1.0  0.42830  0.08308  0.71393  1.0000
  H   H2546     1.0  0.42837  0.03064  0.59637  1.0000
  H   H2547     1.0  0.45000  0.02803  0.68724  1.0000
  H   H2548     1.0  0.30800  0.01233  0.52887  1.0000
  H   H2549     1.0  0.44835  0.06720  0.61910  1.0000
  H   H2550     1.0  0.44150  0.06446  0.65364  1.0000
  N   N103      1.0  0.30317  0.03775  0.49324  1.0000
  H   H2551     1.0  0.25462  0.06274  0.54857  1.0000
  H   H2552     1.0  0.37283  0.08100  0.70731  1.0000
  H   H2553     1.0  0.47578  0.01574  0.61903  1.0000
  S   S435      1.0  0.24298  0.04415  0.52961  1.0000
  C   C1466     1.0  0.36053  0.99546  0.60918  1.0000
  H   H2554     1.0  0.36699  0.07679  0.69294  1.0000
  H   H2555     1.0  0.37222  0.00423  0.59755  1.0000
  H   H2556     1.0  0.34709  0.01910  0.72744  1.0000
  H   H2557     1.0  0.46469  0.07299  0.62137  1.0000
  C   C1467     1.0  0.39058  0.02322  0.63669  1.0000
  H   H2558     1.0  0.43828  0.00279  0.71749  1.0000
  H   H2559     1.0  0.35064  0.00346  0.56289  1.0000
  C   C1468     1.0  0.39737  0.08623  0.72171  1.0000
  H   H2560     1.0  0.28681  0.04785  0.49442  1.0000
  H   H2561     1.0  0.45496  0.08421  0.62694  1.0000
  H   H2562     1.0  0.35601  0.07777  0.70451  1.0000
  H   H2563     1.0  0.45067  0.07879  0.73088  1.0000
  H   H2564     1.0  0.28677  0.00109  0.51536  1.0000
  H   H2565     1.0  0.38540  0.00763  0.72214  1.0000
  H   H2566     1.0  0.31710  0.04366  0.49292  1.0000
  C   C1469     1.0  0.34340  0.00279  0.56049  1.0000
  H   H2567     1.0  0.48240  0.99087  0.54617  1.0000
  H   H2568     1.0  0.46616  0.01952  0.63801  1.0000
  C   C1470     1.0  0.37925  0.06617  0.72517  1.0000
  C   C1471     1.0  0.36986  0.02416  0.65529  1.0000
  H   H2569     1.0  0.42517  0.03868  0.57935  1.0000
  C   C1472     1.0  0.32007  0.00131  0.51960  1.0000
  N   N104      1.0  0.34651  0.99471  0.55312  1.0000
  H   H2570     1.0  0.38468  0.10066  0.72347  1.0000
  C   C1473     1.0  0.31644  0.01009  0.52491  1.0000
  H   H2571     1.0  0.40806  0.02159  0.62889  1.0000
  N   N105      1.0  0.42614  0.02971  0.70787  1.0000
  C   C1474     1.0  0.41793  0.03437  0.70072  1.0000
  C   C1475     1.0  0.43696  0.03186  0.70107  1.0000
  C   C1476     1.0  0.42305  0.03503  0.71755  1.0000
  C   C1477     1.0  0.42659  0.01759  0.71205  1.0000
  C   C1478     1.0  0.40602  0.03424  0.70668  1.0000
  C   C1479     1.0  0.44262  0.02504  0.69223  1.0000
  C   C1480     1.0  0.42180  0.04761  0.71474  1.0000
  H   H2572     1.0  0.33384  0.99194  0.51018  1.0000
  H   H2573     1.0  0.41832  0.04296  0.69623  1.0000
  H   H2574     1.0  0.41983  0.02978  0.69411  1.0000
  H   H2575     1.0  0.44271  0.03064  0.70635  1.0000
  H   H2576     1.0  0.43613  0.04063  0.69676  1.0000
  H   H2577     1.0  0.41540  0.03316  0.72308  1.0000
  H   H2578     1.0  0.42920  0.03155  0.72272  1.0000
  H   H2579     1.0  0.32983  0.01519  0.55424  1.0000
  C   C1481     1.0  0.48320  0.05000  0.66003  1.0000
  H   H2580     1.0  0.40306  0.03924  0.71297  1.0000
  H   H2581     1.0  0.40076  0.03793  0.70066  1.0000
  H   H2582     1.0  0.40470  0.02580  0.71037  1.0000
  H   H2583     1.0  0.47095  0.00314  0.62310  1.0000
  H   H2584     1.0  0.45905  0.05112  0.62872  1.0000
  C   C1482     1.0  0.26408  0.07795  0.53554  1.0000
  H   H2585     1.0  0.47003  0.01169  0.66715  1.0000
  C   C1483     1.0  0.38076  0.01253  0.71582  1.0000
  H   H2586     1.0  0.33652  0.01987  0.56163  1.0000
  H   H2587     1.0  0.25923  0.07344  0.52322  1.0000
  H   H2588     1.0  0.40492  0.00468  0.70807  1.0000
  C   C1484     1.0  0.38483  0.01044  0.54386  1.0000
  H   H2589     1.0  0.39362  0.04103  0.64189  1.0000
  H   H2590     1.0  0.43744  0.02598  0.68648  1.0000
  H   H2591     1.0  0.25188  0.00096  0.49391  1.0000
  H   H2592     1.0  0.35759  0.01696  0.59278  1.0000
  C   C1485     1.0  0.36009  0.07427  0.72573  1.0000
  N   N106      1.0  0.36222  0.00730  0.72382  1.0000
  H   H2593     1.0  0.41606  0.05199  0.70930  1.0000
  H   H2594     1.0  0.36858  0.04269  0.51822  1.0000
  C   C1486     1.0  0.44754  0.07154  0.62567  1.0000
  H   H2595     1.0  0.34703  0.00900  0.70990  1.0000
  H   H2596     1.0  0.30230  0.05612  0.50253  1.0000
  H   H2597     1.0  0.39390  0.98887  0.57568  1.0000
  H   H2598     1.0  0.34961  0.02981  0.59562  1.0000
  H   H2599     1.0  0.28840  0.03508  0.49121  1.0000
  H   H2600     1.0  0.45666  0.01145  0.59902  1.0000
  C   C1487     1.0  0.35567  0.01898  0.72300  1.0000
  H   H2601     1.0  0.48356  0.02139  0.63714  1.0000
  H   H2602     1.0  0.26592  0.00222  0.49025  1.0000
  C   C1488     1.0  0.30956  0.04659  0.48972  1.0000
  N   N107      1.0  0.47939  0.00542  0.64101  1.0000
  C   C1489     1.0  0.48059  0.00371  0.58683  1.0000
  H   H2603     1.0  0.37348  0.05063  0.52415  1.0000
  H   H2604     1.0  0.46680  0.04053  0.64559  1.0000
  H   H2605     1.0  0.28981  0.99905  0.53221  1.0000
  C   C1490     1.0  0.36134  0.02649  0.55191  1.0000
  H   H2606     1.0  0.37687  0.99751  0.71573  1.0000
  C   C1491     1.0  0.37233  0.07235  0.70825  1.0000
  C   C1492     1.0  0.45533  0.07159  0.64811  1.0000
  H   H2607     1.0  0.46222  0.07248  0.64102  1.0000
  C   C1493     1.0  0.43441  0.99966  0.58979  1.0000
  C   C1494     1.0  0.46878  0.99997  0.69499  1.0000
  C   C1495     1.0  0.38906  0.09485  0.71832  1.0000
  H   H2608     1.0  0.37121  0.00915  0.70677  1.0000
  N   N108      1.0  0.40404  0.09075  0.59450  1.0000
  C   C1496     1.0  0.40282  0.09014  0.58348  1.0000
  C   C1497     1.0  0.39528  0.08591  0.60313  1.0000
  C   C1498     1.0  0.41490  0.08359  0.59622  1.0000
  C   C1499     1.0  0.40333  0.10258  0.59447  1.0000
  C   C1500     1.0  0.41155  0.09388  0.57341  1.0000
  C   C1501     1.0  0.38357  0.09114  0.60163  1.0000
  C   C1502     1.0  0.41826  0.08337  0.60673  1.0000
  C   C1503     1.0  0.39922  0.10598  0.60568  1.0000
  H   H2609     1.0  0.40272  0.08158  0.58348  1.0000
  H   H2610     1.0  0.39495  0.09530  0.58169  1.0000
  H   H2611     1.0  0.39550  0.08622  0.61151  1.0000
  H   H2612     1.0  0.39661  0.07702  0.60329  1.0000
  H   H2613     1.0  0.41520  0.07496  0.59619  1.0000
  H   H2614     1.0  0.42161  0.08611  0.58942  1.0000
  H   H2615     1.0  0.41139  0.10472  0.59075  1.0000
  H   H2616     1.0  0.39785  0.10829  0.58916  1.0000
  H   H2617     1.0  0.40879  0.09474  0.56582  1.0000
  H   H2618     1.0  0.41299  0.10194  0.57323  1.0000
  H   H2619     1.0  0.41929  0.08762  0.57293  1.0000
  H   H2620     1.0  0.38196  0.10023  0.59922  1.0000
  H   H2621     1.0  0.38176  0.08795  0.59541  1.0000
  H   H2622     1.0  0.37781  0.08877  0.60950  1.0000
  H   H2623     1.0  0.42553  0.07662  0.60769  1.0000
  H   H2624     1.0  0.41197  0.08175  0.61428  1.0000
  H   H2625     1.0  0.42065  0.09111  0.60607  1.0000
  H   H2626     1.0  0.39048  0.10608  0.60903  1.0000
  H   H2627     1.0  0.40013  0.11451  0.60453  1.0000
  H   H2628     1.0  0.40374  0.10075  0.61197  1.0000
  H   H2629     1.0  0.28044  0.06919  0.50713  1.0000
  C   C1504     1.0  0.44826  0.02354  0.58651  1.0000
  H   H2630     1.0  0.38309  0.02804  0.63379  1.0000
  S   S436      1.0  0.26332  0.06005  0.50626  1.0000
  C   C1505     1.0  0.38716  0.03693  0.64760  1.0000
  H   H2631     1.0  0.47201  0.00290  0.68636  1.0000
  H   H2632     1.0  0.24433  0.04833  0.55490  1.0000
  C   C1506     1.0  0.27243  0.05574  0.51504  1.0000
  H   H2633     1.0  0.26622  0.04148  0.52459  1.0000
  H   H2634     1.0  0.36693  0.03232  0.65746  1.0000
  S   S437      1.0  0.25042  0.03661  0.50578  1.0000
  H   H2635     1.0  0.25412  0.05724  0.53770  1.0000
  H   H2636     1.0  0.45060  0.06878  0.72399  1.0000
  Fe  Fe201     1.0  0.48094  0.03516  0.69041  1.0000
  H   H2637     1.0  0.40005  0.03550  0.62627  1.0000
  H   H2638     1.0  0.37008  0.04512  0.71079  1.0000
  H   H2639     1.0  0.35660  0.02172  0.70487  1.0000
  C   C1507     1.0  0.36411  0.07275  0.70164  1.0000
  H   H2640     1.0  0.37664  0.00932  0.54839  1.0000
  H   H2641     1.0  0.40707  0.02463  0.64590  1.0000
  C   C1508     1.0  0.45642  0.07821  0.62178  1.0000
  H   H2642     1.0  0.37887  0.03672  0.66506  1.0000
  C   C1509     1.0  0.44532  0.06936  0.64577  1.0000
  H   H2643     1.0  0.42220  0.08759  0.73211  1.0000
  H   H2644     1.0  0.34772  0.03222  0.71140  1.0000
  C   C1510     1.0  0.38174  0.01904  0.65619  1.0000
  Fe  Fe202     1.0  0.48656  0.05346  0.61306  1.0000
  H   H2645     1.0  0.46489  0.05818  0.63438  1.0000
  C   C1511     1.0  0.38533  0.04014  0.65864  1.0000
  C   C1512     1.0  0.43540  0.02251  0.57670  1.0000
  H   H2646     1.0  0.36396  0.02791  0.59216  1.0000
  C   C1513     1.0  0.28649  0.04965  0.52955  1.0000
  H   H2647     1.0  0.32913  0.99765  0.55473  1.0000
  H   H2648     1.0  0.38277  0.04923  0.65743  1.0000
  H   H2649     1.0  0.37146  0.03231  0.55828  1.0000
  H   H2650     1.0  0.35902  0.05658  0.72145  1.0000
  N   N109      1.0  0.24535  0.07412  0.53696  1.0000
  C   C1514     1.0  0.24287  0.99363  0.52946  1.0000
  H   H2651     1.0  0.38132  0.05114  0.70840  1.0000
  H   H2652     1.0  0.36275  0.99768  0.54749  1.0000
  H   H2653     1.0  0.44202  0.01966  0.56993  1.0000
  C   C1515     1.0  0.36744  0.05566  0.72228  1.0000
  H   H2654     1.0  0.38228  0.01848  0.66474  1.0000
  C   C1516     1.0  0.23773  0.01001  0.51589  1.0000
  C   C1517     1.0  0.28709  0.05889  0.52094  1.0000
  H   H2655     1.0  0.32594  0.02704  0.49076  1.0000
  C   C1518     1.0  0.45827  0.04519  0.64606  1.0000
  H   H2656     1.0  0.45285  0.07937  0.65103  1.0000
  C   C1519     1.0  0.42984  0.01530  0.60842  1.0000
  H   H2657     1.0  0.39289  0.03769  0.66169  1.0000
  C   C1520     1.0  0.29495  0.02467  0.51060  1.0000
  C   C1521     1.0  0.46062  0.99248  0.71737  1.0000
  C   C1522     1.0  0.30082  0.03426  0.50559  1.0000
  C   C1523     1.0  0.28454  0.99340  0.51560  1.0000
  H   H2658     1.0  0.44190  0.01490  0.71751  1.0000
  H   H2659     1.0  0.35460  0.99148  0.53048  1.0000
  Fe  Fe203     1.0  0.24253  0.03008  0.52313  1.0000
  H   H2660     1.0  0.42602  0.06949  0.62986  1.0000
  N   N110      1.0  0.44734  0.06350  0.63661  1.0000
  C   C1524     1.0  0.43819  0.05779  0.63866  1.0000
  C   C1525     1.0  0.45769  0.05477  0.63592  1.0000
  H   H2661     1.0  0.43106  0.01031  0.72807  1.0000
  C   C1526     1.0  0.33104  0.99835  0.51470  1.0000
  H   H2662     1.0  0.41863  0.01611  0.71722  1.0000
  H   H2663     1.0  0.34879  0.99451  0.71270  1.0000
  C   C1527     1.0  0.28180  0.99828  0.53773  1.0000
  H   H2664     1.0  0.28298  0.99721  0.54614  1.0000
  H   H2665     1.0  0.44207  0.08409  0.71289  1.0000
  C   C1528     1.0  0.48312  0.05675  0.64945  1.0000
  H   H2666     1.0  0.41853  0.05070  0.72242  1.0000
  H   H2667     1.0  0.39626  0.05937  0.72500  1.0000
  H   H2668     1.0  0.24327  0.08016  0.55152  1.0000
  C   C1529     1.0  0.35726  0.02367  0.59667  1.0000
  S   S438      1.0  0.37165  0.99796  0.57381  1.0000
  H   H2669     1.0  0.29602  0.06125  0.49081  1.0000
  H   H2670     1.0  0.36771  0.99320  0.52970  1.0000
  H   H2671     1.0  0.48643  0.01744  0.73390  1.0000
  H   H2672     1.0  0.48642  0.00614  0.55616  1.0000
  C   C1530     1.0  0.29256  0.04191  0.48957  1.0000
  H   H2673     1.0  0.43774  0.99072  0.59251  1.0000
  H   H2674     1.0  0.35311  0.00080  0.60654  1.0000
  C   C1531     1.0  0.35288  0.00117  0.71201  1.0000
  H   H2675     1.0  0.43458  0.09125  0.73077  1.0000
  C   C1532     1.0  0.35593  0.99767  0.54404  1.0000
  H   H2676     1.0  0.48374  0.99960  0.65700  1.0000
  H   H2677     1.0  0.44319  0.05023  0.73413  1.0000
  H   H2678     1.0  0.23763  0.01856  0.51216  1.0000
  H   H2679     1.0  0.42006  0.99436  0.69653  1.0000
  C   C1533     1.0  0.24235  0.00483  0.52503  1.0000
  H   H2680     1.0  0.34382  0.03437  0.48535  1.0000
  H   H2681     1.0  0.40238  0.99237  0.70676  1.0000
  S   S439      1.0  0.38752  0.98991  0.64603  1.0000
  C   C1534     1.0  0.23928  0.08188  0.54452  1.0000
  H   H2682     1.0  0.26812  0.99671  0.52506  1.0000
  H   H2683     1.0  0.37902  0.04015  0.72003  1.0000
  H   H2684     1.0  0.35989  0.99113  0.72546  1.0000
  H   H2685     1.0  0.42677  0.00187  0.59577  1.0000
  H   H2686     1.0  0.24360  0.06761  0.52410  1.0000
  C   C1535     1.0  0.26002  0.99736  0.49577  1.0000
  H   H2687     1.0  0.36752  0.05120  0.73092  1.0000
  H   H2688     1.0  0.30897  0.06344  0.49002  1.0000
  H   H2689     1.0  0.43635  0.99031  0.68664  1.0000
  H   H2690     1.0  0.42199  0.06802  0.73401  1.0000
  Fe  Fe204     1.0  0.39846  0.39591  0.93288  1.0000
  S   S440      1.0  0.40159  0.37781  0.93374  1.0000
  S   S441      1.0  0.41061  0.40621  0.92332  1.0000
  Fe  Fe205     1.0  0.37490  0.39760  0.94525  1.0000
  S   S442      1.0  0.37591  0.37960  0.94735  1.0000
  S   S443      1.0  0.35902  0.40798  0.95260  1.0000
  Fe  Fe206     1.0  0.39211  0.37723  0.95108  1.0000
  S   S444      1.0  0.39701  0.36411  0.96520  1.0000
  Fe  Fe207     1.0  0.38520  0.38160  0.92992  1.0000
  S   S445      1.0  0.38115  0.37603  0.91696  1.0000
  S   S446      1.0  0.39036  0.39503  0.95066  1.0000
  S   S447      1.0  0.38284  0.39989  0.92739  1.0000
  Fe  Fe208     1.0  0.38813  0.28717  0.92541  1.0000
  S   S448      1.0  0.39498  0.28137  0.94043  1.0000
  S   S449      1.0  0.38711  0.27449  0.91719  1.0000
  Fe  Fe209     1.0  0.38861  0.31126  0.92319  1.0000
  S   S450      1.0  0.39578  0.30736  0.93787  1.0000
  S   S451      1.0  0.38643  0.32771  0.91142  1.0000
  Fe  Fe210     1.0  0.40623  0.29259  0.93149  1.0000
  S   S452      1.0  0.42410  0.28627  0.92959  1.0000
  Fe  Fe211     1.0  0.38371  0.29657  0.94540  1.0000
  S   S453      1.0  0.37454  0.29624  0.96282  1.0000
  S   S454      1.0  0.40022  0.29745  0.91606  1.0000
  S   S455      1.0  0.37569  0.30150  0.93109  1.0000
  Fe  Fe212     1.0  0.41312  0.19470  0.94694  1.0000
  S   S456      1.0  0.39527  0.19618  0.95124  1.0000
  S   S457      1.0  0.42108  0.18960  0.96130  1.0000
  Fe  Fe213     1.0  0.41328  0.20317  0.92284  1.0000
  S   S458      1.0  0.39523  0.20591  0.92529  1.0000
  S   S459      1.0  0.42346  0.20732  0.90603  1.0000
  Fe  Fe214     1.0  0.39471  0.21266  0.93966  1.0000
  S   S460      1.0  0.38416  0.22708  0.94677  1.0000
  Fe  Fe215     1.0  0.39777  0.18921  0.93658  1.0000
  S   S461      1.0  0.38912  0.17578  0.93878  1.0000
  S   S462      1.0  0.41255  0.21147  0.93602  1.0000
  S   S463      1.0  0.41587  0.18609  0.93332  1.0000
  Fe  Fe216     1.0  0.39397  0.11161  0.94033  1.0000
  S   S464      1.0  0.38829  0.11921  0.92450  1.0000
  S   S465      1.0  0.38244  0.11255  0.95675  1.0000
  Fe  Fe217     1.0  0.41665  0.10231  0.92863  1.0000
  S   S466      1.0  0.41297  0.10895  0.91192  1.0000
  S   S467      1.0  0.43347  0.09293  0.92992  1.0000
  Fe  Fe218     1.0  0.40433  0.12427  0.91830  1.0000
  S   S468      1.0  0.40810  0.14068  0.90886  1.0000
  Fe  Fe219     1.0  0.39747  0.10321  0.91951  1.0000
  S   S469      1.0  0.39186  0.09111  0.91380  1.0000
  S   S470      1.0  0.40921  0.11798  0.93447  1.0000
  S   S471      1.0  0.40192  0.09532  0.93589  1.0000
  S   S472      1.0  0.44850  0.12211  0.95163  1.0000
  H   H2691     1.0  0.43996  0.08701  0.80396  1.0000
  H   H2692     1.0  0.39482  0.04647  0.81019  1.0000
  C   C1536     1.0  0.37419  0.21037  0.97249  1.0000
  H   H2693     1.0  0.40081  0.02803  0.82999  1.0000
  C   C1537     1.0  0.34695  0.39267  0.93939  1.0000
  H   H2694     1.0  0.41009  0.02112  0.80942  1.0000
  H   H2695     1.0  0.34919  0.39290  0.94694  1.0000
  N   N111      1.0  0.47214  0.02887  0.85010  1.0000
  H   H2696     1.0  0.40435  0.02049  0.79888  1.0000
  S   S473      1.0  0.38575  0.98970  0.75820  1.0000
  C   C1538     1.0  0.47767  0.06829  0.82851  1.0000
  S   S474      1.0  0.47579  0.06616  0.80890  1.0000
  H   H2697     1.0  0.46104  0.99948  0.74667  1.0000
  C   C1539     1.0  0.47320  0.01694  0.85026  1.0000
  S   S475      1.0  0.38123  0.00498  0.84639  1.0000
  Fe  Fe220     1.0  0.47737  0.21607  0.93356  1.0000
  Fe  Fe221     1.0  0.38733  0.05298  0.86349  1.0000
  S   S476      1.0  0.40219  0.04974  0.85027  1.0000
  S   S477      1.0  0.37991  0.03879  0.87377  1.0000
  Fe  Fe222     1.0  0.38893  0.07629  0.86180  1.0000
  S   S478      1.0  0.40384  0.07487  0.84836  1.0000
  S   S479      1.0  0.38405  0.09246  0.86722  1.0000
  Fe  Fe223     1.0  0.39555  0.06660  0.84116  1.0000
  S   S480      1.0  0.40038  0.07094  0.82264  1.0000
  Fe  Fe224     1.0  0.40918  0.05822  0.85848  1.0000
  S   S481      1.0  0.42552  0.05078  0.86232  1.0000
  S   S482      1.0  0.37989  0.06938  0.85378  1.0000
  S   S483      1.0  0.39496  0.06017  0.87245  1.0000
  S   S484      1.0  0.46971  0.05779  0.86659  1.0000
  S   S485      1.0  0.46316  0.06669  0.88931  1.0000
  Fe  Fe225     1.0  0.46389  0.07400  0.87150  1.0000
  S   S486      1.0  0.44877  0.08512  0.86663  1.0000
  H   H2698     1.0  0.43755  0.25838  0.88220  1.0000
  H   H2699     1.0  0.43537  0.34000  0.95877  1.0000
  C   C1540     1.0  0.48125  0.10933  0.90091  1.0000
  H   H2700     1.0  0.39643  0.00694  0.80996  1.0000
  Fe  Fe226     1.0  0.40672  0.05033  0.76220  1.0000
  S   S487      1.0  0.40166  0.06780  0.76409  1.0000
  S   S488      1.0  0.42173  0.03824  0.76600  1.0000
  Fe  Fe227     1.0  0.38679  0.05161  0.75450  1.0000
  S   S489      1.0  0.37955  0.06903  0.75631  1.0000
  H   H2701     1.0  0.34236  0.45082  0.98118  1.0000
  Fe  Fe228     1.0  0.39641  0.07155  0.74818  1.0000
  H   H2702     1.0  0.39269  0.33544  0.96063  1.0000
  Fe  Fe229     1.0  0.38546  0.06362  0.77216  1.0000
  S   S490      1.0  0.37584  0.06666  0.78889  1.0000
  H   H2703     1.0  0.25139  0.47792  0.93794  1.0000
  S   S491      1.0  0.39091  0.04590  0.77105  1.0000
  Fe  Fe230     1.0  0.47696  0.05507  0.79778  1.0000
  S   S492      1.0  0.46102  0.05059  0.80071  1.0000
  H   H2704     1.0  0.35941  0.45645  0.97802  1.0000
  Fe  Fe231     1.0  0.46307  0.05534  0.78251  1.0000
  S   S493      1.0  0.44838  0.06575  0.77639  1.0000
  C   C1541     1.0  0.44884  0.18956  0.89273  1.0000
  S   S494      1.0  0.47848  0.11531  0.93424  1.0000
  C   C1542     1.0  0.25087  0.47803  0.92150  1.0000
  C   C1543     1.0  0.42908  0.04484  0.77040  1.0000
  C   C1544     1.0  0.42376  0.05368  0.77545  1.0000
  C   C1545     1.0  0.42973  0.05999  0.77746  1.0000
  C   C1546     1.0  0.44104  0.05732  0.77461  1.0000
  S   S495      1.0  0.46156  0.03672  0.89253  1.0000
  H   H2705     1.0  0.42995  0.04875  0.73503  1.0000
  H   H2706     1.0  0.41505  0.05563  0.77788  1.0000
  H   H2707     1.0  0.42559  0.06697  0.78117  1.0000
  H   H2708     1.0  0.39159  0.11587  0.83408  1.0000
  H   H2709     1.0  0.34889  0.46786  0.97432  1.0000
  H   H2710     1.0  0.45480  0.01729  0.89343  1.0000
  C   C1547     1.0  0.39348  0.03869  0.81612  1.0000
  H   H2711     1.0  0.41448  0.01823  0.73958  1.0000
  C   C1548     1.0  0.26549  0.48364  0.95993  1.0000
  C   C1549     1.0  0.48079  0.18920  0.93382  1.0000
  Fe  Fe232     1.0  0.48645  0.04360  0.77850  1.0000
  C   C1550     1.0  0.38764  0.03037  0.74441  1.0000
  C   C1551     1.0  0.39881  0.02886  0.74322  1.0000
  H   H2712     1.0  0.42211  0.07486  0.74936  1.0000
  H   H2713     1.0  0.27306  0.47230  0.90127  1.0000
  C   C1552     1.0  0.38607  0.40409  0.98252  1.0000
  H   H2714     1.0  0.27228  0.48772  0.95846  1.0000
  C   C1553     1.0  0.33371  0.47692  0.96002  1.0000
  H   H2715     1.0  0.36984  0.03163  0.80766  1.0000
  H   H2716     1.0  0.47759  0.01214  0.77518  1.0000
  H   H2717     1.0  0.43740  0.01704  0.76479  1.0000
  H   H2718     1.0  0.43637  0.26490  0.94262  1.0000
  C   C1554     1.0  0.45865  0.17833  0.95657  1.0000
  H   H2719     1.0  0.42426  0.18212  0.90648  1.0000
  C   C1555     1.0  0.46439  0.16911  0.88706  1.0000
  H   H2720     1.0  0.45672  0.12409  0.90947  1.0000
  H   H2721     1.0  0.43670  0.42415  0.92770  1.0000
  H   H2722     1.0  0.36773  0.33948  0.98305  1.0000
  H   H2723     1.0  0.44685  0.25680  0.89065  1.0000
  H   H2724     1.0  0.46754  0.09043  0.97339  1.0000
  C   C1556     1.0  0.30076  0.47667  0.96652  1.0000
  C   C1557     1.0  0.39364  0.06875  0.81372  1.0000
  C   C1558     1.0  0.38308  0.06701  0.81724  1.0000
  C   C1559     1.0  0.37767  0.06636  0.80956  1.0000
  C   C1560     1.0  0.38288  0.06719  0.79841  1.0000
  C   C1561     1.0  0.39355  0.06856  0.79504  1.0000
  C   C1562     1.0  0.39886  0.06945  0.80264  1.0000
  H   H2725     1.0  0.37897  0.06649  0.82577  1.0000
  H   H2726     1.0  0.36942  0.06527  0.81223  1.0000
  H   H2727     1.0  0.39764  0.06925  0.78652  1.0000
  H   H2728     1.0  0.40702  0.07080  0.79985  1.0000
  C   C1563     1.0  0.43095  0.06075  0.86435  1.0000
  C   C1564     1.0  0.42803  0.07186  0.85928  1.0000
  C   C1565     1.0  0.43319  0.07955  0.86022  1.0000
  C   C1566     1.0  0.44115  0.07612  0.86641  1.0000
  C   C1567     1.0  0.44343  0.06519  0.87209  1.0000
  C   C1568     1.0  0.43854  0.05747  0.87090  1.0000
  H   H2729     1.0  0.42213  0.07452  0.85429  1.0000
  H   H2730     1.0  0.43127  0.08804  0.85592  1.0000
  H   H2731     1.0  0.44905  0.06261  0.87740  1.0000
  H   H2732     1.0  0.44063  0.04898  0.87514  1.0000
  C   C1569     1.0  0.38846  0.01140  0.81396  1.0000
  H   H2733     1.0  0.35248  0.99482  0.74569  1.0000
  C   C1570     1.0  0.38043  0.02931  0.86621  1.0000
  C   C1571     1.0  0.37973  0.01846  0.87158  1.0000
  C   C1572     1.0  0.38023  0.01081  0.86555  1.0000
  C   C1573     1.0  0.38109  0.01411  0.85419  1.0000
  C   C1574     1.0  0.38163  0.02500  0.84889  1.0000
  C   C1575     1.0  0.38152  0.03253  0.85484  1.0000
  H   H2734     1.0  0.37879  0.01598  0.88041  1.0000
  H   H2735     1.0  0.37966  0.00245  0.86971  1.0000
  H   H2736     1.0  0.38202  0.02767  0.84020  1.0000
  H   H2737     1.0  0.38190  0.04093  0.85068  1.0000
  H   H2738     1.0  0.45967  0.02071  0.84135  1.0000
  H   H2739     1.0  0.41844  0.03102  0.79156  1.0000
  C   C1576     1.0  0.47930  0.09873  0.96143  1.0000
  H   H2740     1.0  0.42401  0.42169  0.91805  1.0000
  H   H2741     1.0  0.35872  0.10683  0.84511  1.0000
  H   H2742     1.0  0.39523  0.01659  0.82425  1.0000
  C   C1577     1.0  0.48066  0.00305  0.88590  1.0000
  N   N112      1.0  0.35168  0.40001  0.91839  1.0000
  H   H2743     1.0  0.41133  0.04109  0.79946  1.0000
  C   C1578     1.0  0.34088  0.40799  0.91796  1.0000
  H   H2744     1.0  0.25312  0.47787  0.90449  1.0000
  H   H2745     1.0  0.41809  0.31894  0.94422  1.0000
  H   H2746     1.0  0.24928  0.48377  0.98210  1.0000
  C   C1579     1.0  0.48394  0.10653  0.89064  1.0000
  H   H2747     1.0  0.42033  0.29986  0.96229  1.0000
  H   H2748     1.0  0.38495  0.00524  0.82090  1.0000
  C   C1580     1.0  0.25612  0.47653  0.93002  1.0000
  H   H2749     1.0  0.44763  0.01863  0.78098  1.0000
  H   H2750     1.0  0.42831  0.07267  0.81084  1.0000
  H   H2751     1.0  0.39260  0.10835  0.81687  1.0000
  C   C1581     1.0  0.38362  0.02234  0.74252  1.0000
  H   H2752     1.0  0.33096  0.10375  0.93964  1.0000
  H   H2753     1.0  0.46504  0.99907  0.88960  1.0000
  C   C1582     1.0  0.39021  0.09177  0.90058  1.0000
  C   C1583     1.0  0.39066  0.10117  0.89211  1.0000
  C   C1584     1.0  0.38878  0.10133  0.88188  1.0000
  C   C1585     1.0  0.38674  0.09203  0.87998  1.0000
  C   C1586     1.0  0.38643  0.08263  0.88844  1.0000
  C   C1587     1.0  0.38802  0.08256  0.89871  1.0000
  H   H2754     1.0  0.39226  0.10834  0.89348  1.0000
  H   H2755     1.0  0.38898  0.10867  0.87540  1.0000
  H   H2756     1.0  0.38460  0.07552  0.88720  1.0000
  H   H2757     1.0  0.38747  0.07533  0.90527  1.0000
  C   C1588     1.0  0.38842  0.11300  0.96716  1.0000
  C   C1589     1.0  0.39969  0.11074  0.96569  1.0000
  C   C1590     1.0  0.40435  0.11237  0.97345  1.0000
  H   H2758     1.0  0.44297  0.15350  0.98006  1.0000
  H   H2759     1.0  0.47013  0.00410  0.76652  1.0000
  C   C1591     1.0  0.38185  0.11620  0.97679  1.0000
  H   H2760     1.0  0.40480  0.10805  0.95843  1.0000
  H   H2761     1.0  0.41306  0.11095  0.97207  1.0000
  H   H2762     1.0  0.33354  0.47827  0.95123  1.0000
  S   S496      1.0  0.23664  0.48221  0.92311  1.0000
  C   C1592     1.0  0.43820  0.09961  0.93702  1.0000
  C   C1593     1.0  0.44859  0.10172  0.93310  1.0000
  C   C1594     1.0  0.45174  0.10866  0.93757  1.0000
  C   C1595     1.0  0.44477  0.11298  0.94640  1.0000
  C   C1596     1.0  0.43468  0.11021  0.95085  1.0000
  C   C1597     1.0  0.43131  0.10370  0.94602  1.0000
  H   H2763     1.0  0.45403  0.09841  0.92628  1.0000
  H   H2764     1.0  0.45949  0.11077  0.93402  1.0000
  H   H2765     1.0  0.42933  0.11333  0.95781  1.0000
  H   H2766     1.0  0.42337  0.10185  0.94924  1.0000
  C   C1598     1.0  0.39401  0.16678  0.92965  1.0000
  C   C1599     1.0  0.38925  0.15780  0.93175  1.0000
  C   C1600     1.0  0.39359  0.14978  0.92543  1.0000
  C   C1601     1.0  0.40253  0.15086  0.91669  1.0000
  C   C1602     1.0  0.40715  0.16001  0.91435  1.0000
  C   C1603     1.0  0.40298  0.16790  0.92090  1.0000
  H   H2767     1.0  0.38234  0.15687  0.93852  1.0000
  H   H2768     1.0  0.38997  0.14277  0.92729  1.0000
  H   H2769     1.0  0.41406  0.16088  0.90759  1.0000
  H   H2770     1.0  0.40669  0.17481  0.91922  1.0000
  C   C1604     1.0  0.41598  0.20009  0.96869  1.0000
  C   C1605     1.0  0.40822  0.20932  0.96521  1.0000
  C   C1606     1.0  0.40389  0.21759  0.97117  1.0000
  H   H2771     1.0  0.44197  0.31971  0.97515  1.0000
  H   H2772     1.0  0.47348  0.34522  0.92359  1.0000
  C   C1607     1.0  0.41941  0.19915  0.97825  1.0000
  H   H2773     1.0  0.40523  0.21004  0.95809  1.0000
  H   H2774     1.0  0.39769  0.22454  0.96849  1.0000
  H   H2775     1.0  0.47159  0.22330  0.97716  1.0000
  H   H2776     1.0  0.38380  0.35388  0.95731  1.0000
  C   C1608     1.0  0.43271  0.21470  0.90606  1.0000
  C   C1609     1.0  0.43662  0.21320  0.91548  1.0000
  H   H2777     1.0  0.42700  0.04591  0.83686  1.0000
  H   H2778     1.0  0.46832  0.34540  0.95996  1.0000
  H   H2779     1.0  0.44927  0.19621  0.97046  1.0000
  C   C1610     1.0  0.43607  0.22230  0.89658  1.0000
  H   H2780     1.0  0.45462  0.19651  0.90317  1.0000
  H   H2781     1.0  0.47395  0.11879  0.96909  1.0000
  H   H2782     1.0  0.44219  0.07813  0.79489  1.0000
  H   H2783     1.0  0.43312  0.22342  0.88928  1.0000
  C   C1611     1.0  0.38411  0.29114  0.97098  1.0000
  H   H2784     1.0  0.38600  0.99220  0.80845  1.0000
  C   C1612     1.0  0.40714  0.21659  0.98080  1.0000
  H   H2785     1.0  0.48108  0.10701  0.95783  1.0000
  C   C1613     1.0  0.40279  0.28374  0.97254  1.0000
  C   C1614     1.0  0.39503  0.28789  0.96612  1.0000
  H   H2786     1.0  0.48091  0.15156  0.96515  1.0000
  H   H2787     1.0  0.45725  0.16185  0.90345  1.0000
  H   H2788     1.0  0.41126  0.28144  0.96875  1.0000
  H   H2789     1.0  0.39754  0.28870  0.95738  1.0000
  C   C1615     1.0  0.38691  0.26126  0.92560  1.0000
  C   C1616     1.0  0.38305  0.25978  0.93698  1.0000
  C   C1617     1.0  0.38236  0.24923  0.94345  1.0000
  C   C1618     1.0  0.38577  0.24009  0.93860  1.0000
  C   C1619     1.0  0.39003  0.24151  0.92729  1.0000
  C   C1620     1.0  0.39045  0.25210  0.92079  1.0000
  H   H2790     1.0  0.38019  0.26683  0.94073  1.0000
  H   H2791     1.0  0.37902  0.24817  0.95218  1.0000
  H   H2792     1.0  0.39266  0.23449  0.92350  1.0000
  H   H2793     1.0  0.39343  0.25319  0.91199  1.0000
  C   C1621     1.0  0.42894  0.28862  0.93977  1.0000
  N   N113      1.0  0.43711  0.06972  0.82368  1.0000
  H   H2794     1.0  0.40658  0.27946  0.90126  1.0000
  H   H2795     1.0  0.44832  0.07014  0.84008  1.0000
  C   C1622     1.0  0.42179  0.29328  0.94830  1.0000
  C   C1623     1.0  0.48216  0.01253  0.76652  1.0000
  H   H2796     1.0  0.41319  0.29508  0.94889  1.0000
  C   C1624     1.0  0.35357  0.42052  0.94441  1.0000
  C   C1625     1.0  0.35997  0.42550  0.93481  1.0000
  C   C1626     1.0  0.35543  0.43548  0.92839  1.0000
  C   C1627     1.0  0.34448  0.44055  0.93154  1.0000
  C   C1628     1.0  0.33809  0.43561  0.94118  1.0000
  C   C1629     1.0  0.34264  0.42561  0.94761  1.0000
  H   H2797     1.0  0.36844  0.42173  0.93238  1.0000
  H   H2798     1.0  0.36041  0.43931  0.92095  1.0000
  S   S497      1.0  0.46276  0.13816  0.92377  1.0000
  H   H2799     1.0  0.33765  0.42178  0.95503  1.0000
  C   C1630     1.0  0.40441  0.36947  0.97089  1.0000
  S   S498      1.0  0.46880  0.41144  0.92508  1.0000
  H   H2800     1.0  0.33233  0.43844  0.98357  1.0000
  C   C1631     1.0  0.44361  0.17947  0.91170  1.0000
  C   C1632     1.0  0.41954  0.37750  0.96903  1.0000
  C   C1633     1.0  0.41354  0.37339  0.96436  1.0000
  C   C1634     1.0  0.41717  0.32387  0.93591  1.0000
  H   H2801     1.0  0.47908  0.44234  0.95763  1.0000
  H   H2802     1.0  0.42674  0.38028  0.96407  1.0000
  H   H2803     1.0  0.41605  0.37310  0.95576  1.0000
  C   C1635     1.0  0.38271  0.36225  0.91637  1.0000
  C   C1636     1.0  0.38551  0.35317  0.92477  1.0000
  C   C1637     1.0  0.38647  0.34237  0.92363  1.0000
  C   C1638     1.0  0.38473  0.34076  0.91406  1.0000
  C   C1639     1.0  0.38198  0.34986  0.90579  1.0000
  C   C1640     1.0  0.38091  0.36050  0.90696  1.0000
  H   H2804     1.0  0.38686  0.35448  0.93210  1.0000
  H   H2805     1.0  0.38862  0.33535  0.93005  1.0000
  H   H2806     1.0  0.38068  0.34869  0.89837  1.0000
  H   H2807     1.0  0.37876  0.36743  0.90045  1.0000
  C   C1641     1.0  0.41915  0.40804  0.93059  1.0000
  C   C1642     1.0  0.42062  0.40101  0.94066  1.0000
  C   C1643     1.0  0.42508  0.41627  0.92587  1.0000
  H   H2808     1.0  0.41622  0.39451  0.94427  1.0000
  N   N114      1.0  0.46632  0.10536  0.97856  1.0000
  N   N115      1.0  0.41327  0.14685  0.95700  1.0000
  C   C1644     1.0  0.48238  0.08772  0.89946  1.0000
  H   H2809     1.0  0.44361  0.00512  0.75891  1.0000
  H   H2810     1.0  0.39674  0.01141  0.77796  1.0000
  C   C1645     1.0  0.40239  0.14789  0.95477  1.0000
  C   C1646     1.0  0.27370  0.47189  0.91776  1.0000
  C   C1647     1.0  0.42145  0.14606  0.93657  1.0000
  H   H2811     1.0  0.40841  0.32576  0.93593  1.0000
  C   C1648     1.0  0.39964  0.13709  0.95479  1.0000
  H   H2812     1.0  0.41525  0.99826  0.86670  1.0000
  H   H2813     1.0  0.41379  0.16353  0.94801  1.0000
  H   H2814     1.0  0.42338  0.13266  0.95049  1.0000
  H   H2815     1.0  0.48635  0.45042  0.96732  1.0000
  S   S499      1.0  0.48006  0.22862  0.94081  1.0000
  H   H2816     1.0  0.47306  0.24828  0.94845  1.0000
  H   H2817     1.0  0.43642  0.99121  0.77141  1.0000
  H   H2818     1.0  0.40136  0.15379  0.94695  1.0000
  H   H2819     1.0  0.47238  0.03279  0.74672  1.0000
  Fe  Fe233     1.0  0.46003  0.32841  0.93721  1.0000
  C   C1649     1.0  0.40657  0.16454  0.96470  1.0000
  H   H2820     1.0  0.41478  0.14347  0.93499  1.0000
  H   H2821     1.0  0.47311  0.19245  0.96294  1.0000
  Fe  Fe234     1.0  0.30795  0.48458  0.93129  1.0000
  S   S500      1.0  0.46756  0.39124  0.94733  1.0000
  C   C1650     1.0  0.43756  0.01301  0.75825  1.0000
  C   C1651     1.0  0.47886  0.10135  0.91045  1.0000
  H   H2822     1.0  0.40684  0.13043  0.95319  1.0000
  H   H2823     1.0  0.39520  0.13846  0.94825  1.0000
  C   C1652     1.0  0.37198  0.12425  0.83041  1.0000
  H   H2824     1.0  0.37868  0.12843  0.82561  1.0000
  H   H2825     1.0  0.37225  0.12192  0.83919  1.0000
  H   H2826     1.0  0.36418  0.13035  0.83006  1.0000
  H   H2827     1.0  0.47443  0.20898  0.98308  1.0000
  H   H2828     1.0  0.36196  0.07238  0.74260  1.0000
  C   C1653     1.0  0.47818  0.99943  0.74506  1.0000
  C   C1654     1.0  0.46355  0.01561  0.89104  1.0000
  H   H2829     1.0  0.35875  0.40531  0.90110  1.0000
  H   H2830     1.0  0.41141  0.33964  0.96500  1.0000
  H   H2831     1.0  0.38806  0.04334  0.79705  1.0000
  H   H2832     1.0  0.36492  0.41509  0.91686  1.0000
  Fe  Fe235     1.0  0.47967  0.39740  0.95156  1.0000
  H   H2833     1.0  0.29945  0.47980  0.95827  1.0000
  H   H2834     1.0  0.41678  0.27651  0.88917  1.0000
  H   H2835     1.0  0.43844  0.27001  0.88599  1.0000
  H   H2836     1.0  0.47065  0.07499  0.82790  1.0000
  C   C1655     1.0  0.24768  0.47227  0.97314  1.0000
  H   H2837     1.0  0.41935  0.00898  0.84989  1.0000
  H   H2838     1.0  0.42940  0.09026  0.74906  1.0000
  C   C1656     1.0  0.30662  0.47870  0.98173  1.0000
  H   H2839     1.0  0.42279  0.17725  0.89558  1.0000
  C   C1657     1.0  0.47861  0.24900  0.96229  1.0000
  S   S501      1.0  0.41064  0.99867  0.73679  1.0000
  H   H2840     1.0  0.37182  0.03981  0.81594  1.0000
  C   C1658     1.0  0.42964  0.06253  0.83128  1.0000
  H   H2841     1.0  0.38546  0.04103  0.82159  1.0000
  H   H2842     1.0  0.44565  0.05659  0.84271  1.0000
  C   C1659     1.0  0.44638  0.04814  0.77005  1.0000
  H   H2843     1.0  0.46555  0.30791  0.98362  1.0000
  C   C1660     1.0  0.45015  0.18782  0.95152  1.0000
  C   C1661     1.0  0.25708  0.47664  0.91114  1.0000
  C   C1662     1.0  0.46504  0.19445  0.97991  1.0000
  C   C1663     1.0  0.46823  0.99415  0.74977  1.0000
  C   C1664     1.0  0.44167  0.21333  0.96636  1.0000
  H   H2844     1.0  0.44974  0.36638  0.94317  1.0000
  H   H2845     1.0  0.40003  0.41988  0.94410  1.0000
  C   C1665     1.0  0.47291  0.40559  0.97535  1.0000
  C   C1666     1.0  0.35585  0.00198  0.74501  1.0000
  C   C1667     1.0  0.35648  0.07084  0.73836  1.0000
  H   H2846     1.0  0.45557  0.37052  0.91571  1.0000
  H   H2847     1.0  0.42657  0.36730  0.92460  1.0000
  H   H2848     1.0  0.46034  0.01405  0.75296  1.0000
  H   H2849     1.0  0.46026  0.04352  0.85359  1.0000
  C   C1668     1.0  0.46067  0.01271  0.80188  1.0000
  C   C1669     1.0  0.42792  0.18135  0.89788  1.0000
  H   H2850     1.0  0.48583  0.11265  0.88323  1.0000
  H   H2851     1.0  0.42625  0.98960  0.75326  1.0000
  H   H2852     1.0  0.48219  0.04692  0.73517  1.0000
  C   C1670     1.0  0.39073  0.01267  0.73991  1.0000
  N   N116      1.0  0.42813  0.33346  0.97564  1.0000
  H   H2853     1.0  0.37109  0.99509  0.73535  1.0000
  H   H2854     1.0  0.47366  0.01183  0.85866  1.0000
  C   C1671     1.0  0.46748  0.01743  0.74790  1.0000
  C   C1672     1.0  0.47111  0.24761  0.95722  1.0000
  H   H2855     1.0  0.40810  0.99558  0.77329  1.0000
  H   H2856     1.0  0.47197  0.16267  0.88751  1.0000
  C   C1673     1.0  0.40150  0.01292  0.76937  1.0000
  H   H2857     1.0  0.39730  0.42748  0.98141  1.0000
  N   N117      1.0  0.43549  0.07364  0.73528  1.0000
  H   H2858     1.0  0.46144  0.05782  0.73558  1.0000
  H   H2859     1.0  0.41640  0.01523  0.77859  1.0000
  H   H2860     1.0  0.32722  0.48346  0.96337  1.0000
  H   H2861     1.0  0.42913  0.00649  0.77969  1.0000
  H   H2862     1.0  0.44681  0.16179  0.91987  1.0000
  H   H2863     1.0  0.47792  0.08436  0.91714  1.0000
  H   H2864     1.0  0.47921  0.00169  0.73595  1.0000
  H   H2865     1.0  0.45796  0.01128  0.85461  1.0000
  H   H2866     1.0  0.45742  0.20268  0.88895  1.0000
  S   S502      1.0  0.44138  0.41341  0.94901  1.0000
  H   H2867     1.0  0.26567  0.48184  0.95202  1.0000
  C   C1674     1.0  0.41076  0.00282  0.76731  1.0000
  H   H2868     1.0  0.37123  0.08809  0.92609  1.0000
  H   H2869     1.0  0.48351  0.31751  0.97980  1.0000
  C   C1675     1.0  0.24412  0.47809  0.98281  1.0000
  H   H2870     1.0  0.45836  0.03406  0.74827  1.0000
  S   S503      1.0  0.29262  0.47836  0.93845  1.0000
  C   C1676     1.0  0.46392  0.01413  0.84714  1.0000
  H   H2871     1.0  0.47932  0.42844  0.95808  1.0000
  H   H2872     1.0  0.41860  0.34979  0.95609  1.0000
  H   H2873     1.0  0.48048  0.35270  0.97268  1.0000
  H   H2874     1.0  0.40629  0.14228  0.97445  1.0000
  H   H2875     1.0  0.46626  0.21544  0.96546  1.0000
  H   H2876     1.0  0.43943  0.16580  0.90060  1.0000
  H   H2877     1.0  0.34148  0.47816  0.96058  1.0000
  H   H2878     1.0  0.36908  0.21255  0.95734  1.0000
  H   H2879     1.0  0.43286  0.16767  0.91884  1.0000
  C   C1677     1.0  0.38407  0.43118  0.97364  1.0000
  H   H2880     1.0  0.39561  0.01398  0.76429  1.0000
  H   H2881     1.0  0.45520  0.03491  0.84889  1.0000
  H   H2882     1.0  0.46808  0.29457  0.97436  1.0000
  N   N118      1.0  0.41399  0.01320  0.87194  1.0000
  C   C1678     1.0  0.40923  0.00398  0.87163  1.0000
  C   C1679     1.0  0.41492  0.02075  0.86071  1.0000
  C   C1680     1.0  0.40628  0.01925  0.88045  1.0000
  C   C1681     1.0  0.42483  0.00810  0.87501  1.0000
  H   H2883     1.0  0.47826  0.27616  0.97942  1.0000
  C   C1682     1.0  0.42245  0.01552  0.85119  1.0000
  C   C1683     1.0  0.40733  0.03095  0.87980  1.0000
  C   C1684     1.0  0.43205  0.01585  0.87442  1.0000
  H   H2884     1.0  0.40228  0.00726  0.86746  1.0000
  S   S504      1.0  0.45092  0.99570  0.78106  1.0000
  H   H2885     1.0  0.41782  0.02810  0.86031  1.0000
  H   H2886     1.0  0.40674  0.02411  0.85873  1.0000
  H   H2887     1.0  0.39775  0.02019  0.87996  1.0000
  H   H2888     1.0  0.40694  0.01443  0.88889  1.0000
  H   H2889     1.0  0.42374  0.00311  0.88356  1.0000
  H   H2890     1.0  0.42979  0.00198  0.87005  1.0000
  H   H2891     1.0  0.48393  0.99214  0.81375  1.0000
  H   H2892     1.0  0.47961  0.19957  0.96841  1.0000
  H   H2893     1.0  0.48605  0.09323  0.96520  1.0000
  H   H2894     1.0  0.43085  0.01223  0.85242  1.0000
  H   H2895     1.0  0.48555  0.16193  0.93373  1.0000
  H   H2896     1.0  0.42282  0.02195  0.84346  1.0000
  H   H2897     1.0  0.40159  0.03401  0.88693  1.0000
  H   H2898     1.0  0.40489  0.03672  0.87239  1.0000
  H   H2899     1.0  0.41548  0.03141  0.88007  1.0000
  H   H2900     1.0  0.43067  0.01790  0.88252  1.0000
  H   H2901     1.0  0.43113  0.02351  0.86805  1.0000
  C   C1685     1.0  0.48035  0.02157  0.88696  1.0000
  N   N119      1.0  0.41809  0.25243  0.96466  1.0000
  C   C1686     1.0  0.48170  0.28413  0.90384  1.0000
  C   C1687     1.0  0.40772  0.25749  0.96061  1.0000
  C   C1688     1.0  0.42627  0.25936  0.95842  1.0000
  C   C1689     1.0  0.42251  0.24054  0.96395  1.0000
  H   H2902     1.0  0.36096  0.08088  0.91853  1.0000
  C   C1690     1.0  0.39861  0.25110  0.96569  1.0000
  C   C1691     1.0  0.47621  0.24801  0.97365  1.0000
  C   C1692     1.0  0.42254  0.23730  0.95333  1.0000
  H   H2903     1.0  0.39693  0.43041  0.95152  1.0000
  H   H2904     1.0  0.43664  0.33123  0.90270  1.0000
  H   H2905     1.0  0.40902  0.25881  0.95160  1.0000
  H   H2906     1.0  0.40437  0.26595  0.96214  1.0000
  H   H2907     1.0  0.42289  0.26807  0.95914  1.0000
  C   C1693     1.0  0.43113  0.07339  0.74737  1.0000
  H   H2908     1.0  0.43097  0.23792  0.96509  1.0000
  H   H2909     1.0  0.40285  0.98969  0.88143  1.0000
  H   H2910     1.0  0.42074  0.99065  0.79045  1.0000
  C   C1694     1.0  0.30448  0.48294  0.97125  1.0000
  H   H2911     1.0  0.45196  0.40004  0.92368  1.0000
  H   H2912     1.0  0.39160  0.25543  0.96180  1.0000
  H   H2913     1.0  0.40115  0.24269  0.96417  1.0000
  C   C1695     1.0  0.43447  0.05348  0.73734  1.0000
  H   H2914     1.0  0.45220  0.05745  0.82185  1.0000
  H   H2915     1.0  0.43539  0.25121  0.94472  1.0000
  C   C1696     1.0  0.43412  0.38022  0.91314  1.0000
  H   H2916     1.0  0.45986  0.37382  0.89106  1.0000
  H   H2917     1.0  0.41912  0.24407  0.94711  1.0000
  H   H2918     1.0  0.41791  0.23078  0.95534  1.0000
  N   N120      1.0  0.34024  0.45546  0.96441  1.0000
  H   H2919     1.0  0.46678  0.99640  0.81050  1.0000
  C   C1697     1.0  0.34674  0.45741  0.95271  1.0000
  C   C1698     1.0  0.33144  0.46555  0.96647  1.0000
  C   C1699     1.0  0.46778  0.21617  0.98138  1.0000
  H   H2920     1.0  0.44448  0.11563  0.97713  1.0000
  H   H2921     1.0  0.47790  0.43244  0.97059  1.0000
  H   H2922     1.0  0.47779  0.03817  0.85806  1.0000
  H   H2923     1.0  0.46554  0.17682  0.94960  1.0000
  H   H2924     1.0  0.32973  0.44824  0.95968  1.0000
  C   C1700     1.0  0.41320  0.41301  0.97045  1.0000
  H   H2925     1.0  0.35020  0.46479  0.95062  1.0000
  H   H2926     1.0  0.34139  0.45911  0.94685  1.0000
  H   H2927     1.0  0.37576  0.21881  0.97043  1.0000
  H   H2928     1.0  0.36286  0.44678  0.95430  1.0000
  C   C1701     1.0  0.47734  0.36056  0.92276  1.0000
  H   H2929     1.0  0.48524  0.03147  0.83584  1.0000
  H   H2930     1.0  0.35777  0.10730  0.94704  1.0000
  H   H2931     1.0  0.48464  0.02782  0.88619  1.0000
  H   H2932     1.0  0.37918  0.42930  0.98212  1.0000
  S   S505      1.0  0.31319  0.47573  0.91750  1.0000
  H   H2933     1.0  0.44630  0.34088  0.97791  1.0000
  H   H2934     1.0  0.46695  0.35973  0.95991  1.0000
  H   H2935     1.0  0.40201  0.03476  0.74493  1.0000
  C   C1702     1.0  0.47389  0.37046  0.92633  1.0000
  H   H2936     1.0  0.36472  0.27123  0.97707  1.0000
  H   H2937     1.0  0.46677  0.01927  0.73920  1.0000
  Fe  Fe236     1.0  0.47852  0.30969  0.94284  1.0000
  C   C1703     1.0  0.46933  0.00532  0.88883  1.0000
  C   C1704     1.0  0.33826  0.41779  0.92356  1.0000
  H   H2938     1.0  0.35598  0.40512  0.93098  1.0000
  H   H2939     1.0  0.33416  0.40358  0.92197  1.0000
  H   H2940     1.0  0.33396  0.42527  0.91851  1.0000
  H   H2941     1.0  0.33253  0.41634  0.93165  1.0000
  S   S506      1.0  0.47072  0.41498  0.94844  1.0000
  H   H2942     1.0  0.40898  0.17234  0.96377  1.0000
  H   H2943     1.0  0.43031  0.14287  0.94910  1.0000
  S   S507      1.0  0.46497  0.98948  0.87008  1.0000
  H   H2944     1.0  0.43866  0.21175  0.95989  1.0000
  H   H2945     1.0  0.40652  0.15995  0.97328  1.0000
  H   H2946     1.0  0.42297  0.15797  0.95682  1.0000
  S   S508      1.0  0.46333  0.24691  0.92626  1.0000
  H   H2947     1.0  0.35719  0.09530  0.91349  1.0000
  C   C1705     1.0  0.41620  0.37804  0.98011  1.0000
  S   S509      1.0  0.40324  0.05456  0.74546  1.0000
  Fe  Fe237     1.0  0.29850  0.46857  0.92547  1.0000
  H   H2948     1.0  0.44233  0.17440  0.88742  1.0000
  H   H2949     1.0  0.46134  0.18892  0.92141  1.0000
  C   C1706     1.0  0.41465  0.15821  0.95621  1.0000
  H   H2950     1.0  0.47893  0.07035  0.84397  1.0000
  Fe  Fe238     1.0  0.32176  0.46170  0.92888  1.0000
  C   C1707     1.0  0.47164  0.28059  0.92263  1.0000
  C   C1708     1.0  0.48235  0.06566  0.83764  1.0000
  H   H2951     1.0  0.42415  0.26254  0.94139  1.0000
  H   H2952     1.0  0.46229  0.03900  0.83131  1.0000
  H   H2953     1.0  0.27757  0.45227  0.98352  1.0000
  H   H2954     1.0  0.37467  0.10523  0.92492  1.0000
  H   H2955     1.0  0.43831  0.17077  0.92846  1.0000
  H   H2956     1.0  0.43600  0.37084  0.92982  1.0000
  H   H2957     1.0  0.40338  0.31908  0.96406  1.0000
  C   C1709     1.0  0.48420  0.26547  0.91495  1.0000
  C   C1710     1.0  0.36084  0.09947  0.94409  1.0000
  Fe  Fe239     1.0  0.46254  0.23281  0.92002  1.0000
  N   N121      1.0  0.44671  0.11112  0.89524  1.0000
  C   C1711     1.0  0.45035  0.11297  0.90449  1.0000
  C   C1712     1.0  0.44372  0.10007  0.89902  1.0000
  C   C1713     1.0  0.43676  0.12001  0.89343  1.0000
  C   C1714     1.0  0.45574  0.11179  0.88507  1.0000
  C   C1715     1.0  0.45283  0.12433  0.90281  1.0000
  C   C1716     1.0  0.45254  0.09029  0.90311  1.0000
  C   C1717     1.0  0.43081  0.11926  0.88511  1.0000
  C   C1718     1.0  0.45623  0.10523  0.87660  1.0000
  H   H2958     1.0  0.44411  0.11176  0.91229  1.0000
  H   H2959     1.0  0.45788  0.10688  0.90604  1.0000
  H   H2960     1.0  0.44147  0.09790  0.89242  1.0000
  H   H2961     1.0  0.43640  0.10026  0.90584  1.0000
  H   H2962     1.0  0.43072  0.12036  0.90136  1.0000
  H   H2963     1.0  0.43876  0.12826  0.89047  1.0000
  H   H2964     1.0  0.45553  0.12049  0.88060  1.0000
  H   H2965     1.0  0.46377  0.10880  0.88729  1.0000
  H   H2966     1.0  0.44532  0.13088  0.90348  1.0000
  H   H2967     1.0  0.46059  0.09019  0.89748  1.0000
  H   H2968     1.0  0.45320  0.09031  0.91143  1.0000
  H   H2969     1.0  0.45024  0.08249  0.90386  1.0000
  H   H2970     1.0  0.43550  0.12131  0.87658  1.0000
  H   H2971     1.0  0.42308  0.12557  0.88563  1.0000
  H   H2972     1.0  0.42856  0.11125  0.88683  1.0000
  H   H2973     1.0  0.45877  0.09624  0.87969  1.0000
  H   H2974     1.0  0.46248  0.10744  0.86911  1.0000
  H   H2975     1.0  0.44854  0.10693  0.87397  1.0000
  C   C1719     1.0  0.45160  0.20417  0.96875  1.0000
  H   H2976     1.0  0.36292  0.39194  0.92905  1.0000
  C   C1720     1.0  0.35484  0.39771  0.92925  1.0000
  H   H2977     1.0  0.46686  0.17679  0.88200  1.0000
  H   H2978     1.0  0.34414  0.38600  0.92305  1.0000
  C   C1721     1.0  0.46820  0.18580  0.92529  1.0000
  H   H2979     1.0  0.42890  0.39714  0.95391  1.0000
  H   H2980     1.0  0.34758  0.38389  0.93971  1.0000
  H   H2981     1.0  0.35900  0.00024  0.75255  1.0000
  C   C1722     1.0  0.44459  0.26981  0.90819  1.0000
  C   C1723     1.0  0.45976  0.99604  0.79756  1.0000
  S   S510      1.0  0.37866  0.04207  0.74847  1.0000
  N   N122      1.0  0.35906  0.10117  0.93267  1.0000
  H   H2982     1.0  0.42076  0.01988  0.75838  1.0000
  C   C1724     1.0  0.34731  0.10660  0.93284  1.0000
  H   H2983     1.0  0.45452  0.22235  0.97353  1.0000
  H   H2984     1.0  0.40366  0.40515  0.96013  1.0000
  H   H2985     1.0  0.48275  0.04599  0.75452  1.0000
  H   H2986     1.0  0.32915  0.46575  0.97536  1.0000
  C   C1725     1.0  0.36523  0.11235  0.91293  1.0000
  H   H2987     1.0  0.44040  0.01845  0.75029  1.0000
  C   C1726     1.0  0.44023  0.16927  0.92005  1.0000
  C   C1727     1.0  0.35412  0.46019  0.97199  1.0000
  C   C1728     1.0  0.47823  0.00528  0.76145  1.0000
  H   H2988     1.0  0.34554  0.11511  0.93417  1.0000
  H   H2989     1.0  0.42053  0.34124  0.89811  1.0000
  C   C1729     1.0  0.47653  0.03507  0.83877  1.0000
  H   H2990     1.0  0.37313  0.11789  0.97800  1.0000
  H   H2991     1.0  0.39575  0.15158  0.96100  1.0000
  C   C1730     1.0  0.45753  0.36463  0.93762  1.0000
  Fe  Fe240     1.0  0.47769  0.39393  0.93027  1.0000
  C   C1731     1.0  0.48571  0.17794  0.93557  1.0000
  C   C1732     1.0  0.47437  0.28806  0.91274  1.0000
  Fe  Fe241     1.0  0.45945  0.40894  0.94260  1.0000
  C   C1733     1.0  0.38092  0.29022  0.98233  1.0000
  H   H2992     1.0  0.32262  0.43742  0.97688  1.0000
  H   H2993     1.0  0.46318  0.41990  0.98138  1.0000
  H   H2994     1.0  0.39389  0.19507  0.97829  1.0000
  C   C1734     1.0  0.36597  0.10892  0.92507  1.0000
  C   C1735     1.0  0.27223  0.44915  0.98042  1.0000
  C   C1736     1.0  0.47874  0.02949  0.85766  1.0000
  N   N123      1.0  0.42394  0.06497  0.90333  1.0000
  C   C1737     1.0  0.42131  0.05562  0.90052  1.0000
  C   C1738     1.0  0.43584  0.06177  0.90351  1.0000
  C   C1739     1.0  0.42162  0.07513  0.89444  1.0000
  C   C1740     1.0  0.41683  0.06662  0.91433  1.0000
  C   C1741     1.0  0.40993  0.05778  0.89819  1.0000
  C   C1742     1.0  0.43931  0.05155  0.91230  1.0000
  C   C1743     1.0  0.42747  0.08437  0.89287  1.0000
  C   C1744     1.0  0.41916  0.07474  0.91961  1.0000
  H   H2995     1.0  0.42726  0.05321  0.89314  1.0000
  H   H2996     1.0  0.42197  0.04813  0.90725  1.0000
  H   H2997     1.0  0.43876  0.06848  0.90468  1.0000
  H   H2998     1.0  0.44076  0.06014  0.89543  1.0000
  H   H2999     1.0  0.42382  0.07295  0.88627  1.0000
  H   H3000     1.0  0.41278  0.07892  0.89578  1.0000
  H   H3001     1.0  0.40821  0.06970  0.91370  1.0000
  H   H3002     1.0  0.41678  0.05868  0.92046  1.0000
  H   H3003     1.0  0.40904  0.05030  0.89626  1.0000
  H   H3004     1.0  0.40340  0.05946  0.90542  1.0000
  H   H3005     1.0  0.40869  0.06454  0.89092  1.0000
  H   H3006     1.0  0.43844  0.04391  0.91072  1.0000
  H   H3007     1.0  0.44808  0.05045  0.91191  1.0000
  H   H3008     1.0  0.43493  0.05247  0.92073  1.0000
  H   H3009     1.0  0.43629  0.08180  0.88955  1.0000
  H   H3010     1.0  0.42608  0.08728  0.90045  1.0000
  H   H3011     1.0  0.42435  0.09152  0.88665  1.0000
  H   H3012     1.0  0.41453  0.08320  0.91692  1.0000
  H   H3013     1.0  0.42781  0.07485  0.91810  1.0000
  H   H3014     1.0  0.41660  0.07227  0.92869  1.0000
  H   H3015     1.0  0.43286  0.32703  0.96073  1.0000
  C   C1745     1.0  0.42396  0.31701  0.92736  1.0000
  C   C1746     1.0  0.45516  0.01899  0.79361  1.0000
  H   H3016     1.0  0.48380  0.99705  0.76281  1.0000
  H   H3017     1.0  0.45330  0.02786  0.79210  1.0000
  C   C1747     1.0  0.45435  0.00228  0.78924  1.0000
  C   C1748     1.0  0.45189  0.01376  0.78736  1.0000
  C   C1749     1.0  0.45853  0.24490  0.97477  1.0000
  C   C1750     1.0  0.42101  0.31590  0.97917  1.0000
  H   H3018     1.0  0.45857  0.12650  0.89490  1.0000
  H   H3019     1.0  0.42904  0.14244  0.93123  1.0000
  H   H3020     1.0  0.34532  0.42000  0.92464  1.0000
  C   C1751     1.0  0.40507  0.99674  0.88285  1.0000
  H   H3021     1.0  0.44636  0.21867  0.92287  1.0000
  H   H3022     1.0  0.45558  0.32818  0.97654  1.0000
  H   H3023     1.0  0.33844  0.39727  0.93975  1.0000
  H   H3024     1.0  0.43430  0.20708  0.92272  1.0000
  H   H3025     1.0  0.36835  0.39781  0.90931  1.0000
  H   H3026     1.0  0.42733  0.18968  0.89245  1.0000
  H   H3027     1.0  0.47513  0.15477  0.95343  1.0000
  Fe  Fe242     1.0  0.48096  0.41598  0.93142  1.0000
  H   H3028     1.0  0.34132  0.09159  0.94234  1.0000
  H   H3029     1.0  0.45271  0.28767  0.94571  1.0000
  H   H3030     1.0  0.32963  0.43944  0.94363  1.0000
  C   C1752     1.0  0.38960  0.02063  0.81860  1.0000
  C   C1753     1.0  0.42784  0.40242  0.94607  1.0000
  H   H3031     1.0  0.35602  0.42207  0.90734  1.0000
  H   H3032     1.0  0.44773  0.18587  0.94490  1.0000
  H   H3033     1.0  0.33825  0.10228  0.94985  1.0000
  C   C1754     1.0  0.46115  0.21487  0.97395  1.0000
  H   H3034     1.0  0.38291  0.01438  0.80822  1.0000
  H   H3035     1.0  0.44950  0.05606  0.74575  1.0000
  S   S511      1.0  0.45076  0.31739  0.93509  1.0000
  C   C1755     1.0  0.40188  0.42206  0.95096  1.0000
  H   H3036     1.0  0.48062  0.31101  0.96485  1.0000
  H   H3037     1.0  0.36974  0.04574  0.80240  1.0000
  C   C1756     1.0  0.40461  0.02612  0.80382  1.0000
  N   N124      1.0  0.44405  0.38507  0.90967  1.0000
  H   H3038     1.0  0.44521  0.23492  0.88940  1.0000
  C   C1757     1.0  0.39840  0.31340  0.96982  1.0000
  H   H3039     1.0  0.46735  0.00699  0.84315  1.0000
  H   H3040     1.0  0.27163  0.47236  0.93467  1.0000
  C   C1758     1.0  0.35095  0.38914  0.91684  1.0000
  H   H3041     1.0  0.35839  0.38272  0.91820  1.0000
  H   H3042     1.0  0.38165  0.02338  0.82400  1.0000
  H   H3043     1.0  0.46506  0.16388  0.97452  1.0000
  H   H3044     1.0  0.40437  0.10883  0.82756  1.0000
  H   H3045     1.0  0.43988  0.15396  0.96336  1.0000
  H   H3046     1.0  0.37826  0.10517  0.84602  1.0000
  H   H3047     1.0  0.42602  0.40087  0.90160  1.0000
  C   C1759     1.0  0.41553  0.25302  0.97661  1.0000
  N   N125      1.0  0.39342  0.03022  0.81023  1.0000
  C   C1760     1.0  0.41021  0.03504  0.79555  1.0000
  H   H3048     1.0  0.44071  0.36262  0.91950  1.0000
  C   C1761     1.0  0.40191  0.03538  0.82334  1.0000
  H   H3049     1.0  0.41996  0.24424  0.91765  1.0000
  H   H3050     1.0  0.42522  0.24811  0.92717  1.0000
  H   H3051     1.0  0.44012  0.06224  0.80986  1.0000
  H   H3052     1.0  0.42335  0.13273  0.98061  1.0000
  H   H3053     1.0  0.43966  0.25445  0.91516  1.0000
  H   H3054     1.0  0.38711  0.03013  0.79658  1.0000
  H   H3055     1.0  0.34079  0.43849  0.96454  1.0000
  H   H3056     1.0  0.42260  0.25810  0.89651  1.0000
  H   H3057     1.0  0.35949  0.46208  0.96379  1.0000
  C   C1762     1.0  0.41853  0.25023  0.92282  1.0000
  H   H3058     1.0  0.37454  0.33385  0.95211  1.0000
  C   C1763     1.0  0.47570  0.10071  0.98426  1.0000
  H   H3059     1.0  0.40579  0.03943  0.78891  1.0000
  H   H3060     1.0  0.41035  0.03404  0.81845  1.0000
  C   C1764     1.0  0.46827  0.09911  0.96970  1.0000
  H   H3061     1.0  0.45670  0.06618  0.74532  1.0000
  H   H3062     1.0  0.41005  0.26319  0.91209  1.0000
  H   H3063     1.0  0.43272  0.24965  0.90316  1.0000
  C   C1765     1.0  0.43304  0.05028  0.83074  1.0000
  C   C1766     1.0  0.38598  0.03551  0.80232  1.0000
  H   H3064     1.0  0.46214  0.15221  0.97250  1.0000
  H   H3065     1.0  0.43486  0.21363  0.97361  1.0000
  H   H3066     1.0  0.34007  0.41144  0.90929  1.0000
  C   C1767     1.0  0.44412  0.39020  0.91870  1.0000
  C   C1768     1.0  0.47216  0.19313  0.92847  1.0000
  S   S512      1.0  0.46688  0.16559  0.92416  1.0000
  C   C1769     1.0  0.39613  0.10781  0.83227  1.0000
  C   C1770     1.0  0.41682  0.26221  0.91606  1.0000
  C   C1771     1.0  0.42975  0.25838  0.89930  1.0000
  H   H3067     1.0  0.41101  0.24918  0.92916  1.0000
  H   H3068     1.0  0.40410  0.02078  0.76733  1.0000
  C   C1772     1.0  0.37374  0.03820  0.80761  1.0000
  H   H3069     1.0  0.40087  0.04224  0.82736  1.0000
  H   H3070     1.0  0.39209  0.33946  0.97265  1.0000
  H   H3071     1.0  0.37769  0.09038  0.80977  1.0000
  H   H3072     1.0  0.46103  0.39244  0.91406  1.0000
  H   H3073     1.0  0.46125  0.11979  0.96648  1.0000
  C   C1773     1.0  0.39627  0.42672  0.97345  1.0000
  C   C1774     1.0  0.45529  0.02997  0.86605  1.0000
  H   H3074     1.0  0.44636  0.03283  0.86727  1.0000
  C   C1775     1.0  0.43869  0.26114  0.88908  1.0000
  H   H3075     1.0  0.41332  0.28976  0.89233  1.0000
  C   C1776     1.0  0.41899  0.34080  0.95897  1.0000
  H   H3076     1.0  0.41353  0.13110  0.96836  1.0000
  C   C1777     1.0  0.47530  0.15793  0.96044  1.0000
  C   C1778     1.0  0.48616  0.01117  0.88503  1.0000
  N   N126      1.0  0.42660  0.26540  0.90766  1.0000
  C   C1779     1.0  0.41452  0.28080  0.89602  1.0000
  H   H3077     1.0  0.41365  0.26773  0.92200  1.0000
  H   H3078     1.0  0.37279  0.09252  0.95431  1.0000
  C   C1780     1.0  0.47025  0.41325  0.98190  1.0000
  H   H3079     1.0  0.48080  0.18510  0.97309  1.0000
  H   H3080     1.0  0.45956  0.38909  0.97190  1.0000
  C   C1781     1.0  0.44353  0.21967  0.91554  1.0000
  C   C1782     1.0  0.43345  0.08092  0.82640  1.0000
  C   C1783     1.0  0.36285  0.41509  0.90919  1.0000
  H   H3081     1.0  0.37000  0.41663  0.90250  1.0000
  C   C1784     1.0  0.46904  0.02378  0.89005  1.0000
  Fe  Fe243     1.0  0.46339  0.12713  0.94029  1.0000
  C   C1785     1.0  0.44310  0.07838  0.80307  1.0000
  C   C1786     1.0  0.36057  0.40407  0.90926  1.0000
  H   H3082     1.0  0.38754  0.32492  0.95379  1.0000
  C   C1787     1.0  0.42340  0.27749  0.90268  1.0000
  C   C1788     1.0  0.43559  0.26331  0.91362  1.0000
  H   H3083     1.0  0.45385  0.07088  0.82013  1.0000
  H   H3084     1.0  0.43036  0.28077  0.89708  1.0000
  H   H3085     1.0  0.42064  0.28227  0.90923  1.0000
  H   H3086     1.0  0.43223  0.26527  0.92188  1.0000
  H   H3087     1.0  0.44838  0.26906  0.89963  1.0000
  H   H3088     1.0  0.41505  0.42222  0.98154  1.0000
  C   C1789     1.0  0.43678  0.07042  0.81199  1.0000
  H   H3089     1.0  0.39762  0.00129  0.88759  1.0000
  C   C1790     1.0  0.43060  0.25938  0.94611  1.0000
  H   H3090     1.0  0.46170  0.18152  0.96196  1.0000
  H   H3091     1.0  0.42868  0.31011  0.98068  1.0000
  H   H3092     1.0  0.45112  0.26658  0.91287  1.0000
  H   H3093     1.0  0.44152  0.27861  0.90858  1.0000
  H   H3094     1.0  0.37595  0.35330  0.97100  1.0000
  H   H3095     1.0  0.40281  0.39888  0.98250  1.0000
  C   C1791     1.0  0.47954  0.09057  0.90972  1.0000
  C   C1792     1.0  0.41367  0.13965  0.96826  1.0000
  C   C1793     1.0  0.47513  0.19296  0.97048  1.0000
  C   C1794     1.0  0.44861  0.06506  0.82508  1.0000
  H   H3096     1.0  0.44627  0.16884  0.95054  1.0000
  H   H3097     1.0  0.44288  0.19038  0.95775  1.0000
  H   H3098     1.0  0.45380  0.19511  0.94762  1.0000
  C   C1795     1.0  0.34923  0.38913  0.90558  1.0000
  H   H3099     1.0  0.39825  0.16691  0.96320  1.0000
  H   H3100     1.0  0.35293  0.44395  0.97198  1.0000
  H   H3101     1.0  0.39568  0.25070  0.97461  1.0000
  N   N127      1.0  0.44759  0.17844  0.89989  1.0000
  C   C1796     1.0  0.36452  0.09894  0.84719  1.0000
  H   H3102     1.0  0.46581  0.28350  0.92946  1.0000
  C   C1797     1.0  0.33907  0.10060  0.94169  1.0000
  H   H3103     1.0  0.37328  0.31695  0.97333  1.0000
  H   H3104     1.0  0.45192  0.07591  0.80285  1.0000
  H   H3105     1.0  0.43763  0.17307  0.96785  1.0000
  H   H3106     1.0  0.47663  0.10343  0.91839  1.0000
  H   H3107     1.0  0.44504  0.17765  0.97451  1.0000
  S   S513      1.0  0.47080  0.29688  0.94171  1.0000
  H   H3108     1.0  0.44104  0.19566  0.89376  1.0000
  H   H3109     1.0  0.42379  0.14671  0.97419  1.0000
  H   H3110     1.0  0.37631  0.31948  0.95477  1.0000
  H   H3111     1.0  0.45371  0.29724  0.97802  1.0000
  H   H3112     1.0  0.34715  0.38125  0.90610  1.0000
  H   H3113     1.0  0.39439  0.13417  0.96281  1.0000
  H   H3114     1.0  0.24199  0.46684  0.97480  1.0000
  H   H3115     1.0  0.47891  0.16527  0.95742  1.0000
  H   H3116     1.0  0.34837  0.07601  0.74105  1.0000
  C   C1798     1.0  0.45269  0.16297  0.95458  1.0000
  H   H3117     1.0  0.46394  0.17217  0.90261  1.0000
  C   C1799     1.0  0.29921  0.46619  0.97230  1.0000
  C   C1800     1.0  0.47089  0.35270  0.92661  1.0000
  H   H3118     1.0  0.43922  0.99269  0.75160  1.0000
  H   H3119     1.0  0.40635  0.34191  0.90109  1.0000
  H   H3120     1.0  0.39458  0.30997  0.96535  1.0000
  C   C1801     1.0  0.44852  0.15230  0.95911  1.0000
  C   C1802     1.0  0.44574  0.10693  0.98163  1.0000
  H   H3121     1.0  0.45971  0.16182  0.94759  1.0000
  H   H3122     1.0  0.44566  0.28269  0.93244  1.0000
  S   S514      1.0  0.45273  0.24121  0.95777  1.0000
  H   H3123     1.0  0.37737  0.10155  0.94188  1.0000
  C   C1803     1.0  0.46272  0.00125  0.80401  1.0000
  H   H3124     1.0  0.35844  0.21777  0.96767  1.0000
  C   C1804     1.0  0.38044  0.09650  0.81224  1.0000
  H   H3125     1.0  0.43046  0.24146  0.98109  1.0000
  H   H3126     1.0  0.48449  0.00604  0.79678  1.0000
  H   H3127     1.0  0.46415  0.02756  0.75997  1.0000
  H   H3128     1.0  0.45092  0.18936  0.88387  1.0000
  N   N128      1.0  0.25923  0.46582  0.97113  1.0000
  C   C1805     1.0  0.44649  0.22762  0.90617  1.0000
  H   H3129     1.0  0.45898  0.05888  0.83683  1.0000
  C   C1806     1.0  0.34732  0.45205  0.97264  1.0000
  S   S515      1.0  0.46905  0.30234  0.91133  1.0000
  H   H3130     1.0  0.43665  0.18659  0.91260  1.0000
  S   S516      1.0  0.46363  0.31813  0.95327  1.0000
  C   C1807     1.0  0.44287  0.22882  0.89667  1.0000
  C   C1808     1.0  0.44410  0.28924  0.94646  1.0000
  C   C1809     1.0  0.42620  0.01161  0.75864  1.0000
  Fe  Fe244     1.0  0.47017  0.05061  0.88422  1.0000
  H   H3131     1.0  0.32165  0.45016  0.98015  1.0000
  H   H3132     1.0  0.46473  0.37456  0.97507  1.0000
  H   H3133     1.0  0.44323  0.38964  0.89254  1.0000
  C   C1810     1.0  0.42462  0.34464  0.97837  1.0000
  H   H3134     1.0  0.47582  0.02511  0.86619  1.0000
  S   S517      1.0  0.47832  0.06113  0.77952  1.0000
  C   C1811     1.0  0.45028  0.06257  0.83690  1.0000
  C   C1812     1.0  0.44492  0.17052  0.97142  1.0000
  S   S518      1.0  0.48609  0.38836  0.96662  1.0000
  C   C1813     1.0  0.44273  0.16142  0.98183  1.0000
  H   H3135     1.0  0.35571  0.06216  0.74127  1.0000
  C   C1814     1.0  0.43968  0.17448  0.89631  1.0000
  C   C1815     1.0  0.46390  0.27652  0.96868  1.0000
  H   H3136     1.0  0.45951  0.27334  0.96449  1.0000
  Fe  Fe245     1.0  0.48027  0.06865  0.88557  1.0000
  C   C1816     1.0  0.48203  0.06237  0.82017  1.0000
  N   N129      1.0  0.37898  0.10354  0.82953  1.0000
  H   H3137     1.0  0.43962  0.08593  0.82198  1.0000
  C   C1817     1.0  0.26756  0.47349  0.92815  1.0000
  H   H3138     1.0  0.46355  0.35008  0.97246  1.0000
  H   H3139     1.0  0.45720  0.02087  0.86823  1.0000
  H   H3140     1.0  0.44993  0.18132  0.91461  1.0000
  H   H3141     1.0  0.37944  0.41141  0.98129  1.0000
  C   C1818     1.0  0.35652  0.44810  0.94970  1.0000
  C   C1819     1.0  0.45554  0.36988  0.89922  1.0000
  C   C1820     1.0  0.42239  0.08776  0.82391  1.0000
  C   C1821     1.0  0.26127  0.46115  0.96112  1.0000
  N   N130      1.0  0.45502  0.16780  0.96274  1.0000
  H   H3142     1.0  0.43310  0.04911  0.82259  1.0000
  H   H3143     1.0  0.36239  0.09224  0.84505  1.0000
  H   H3144     1.0  0.39712  0.10179  0.84011  1.0000
  H   H3145     1.0  0.42026  0.15512  0.93400  1.0000
  H   H3146     1.0  0.36818  0.18410  0.97842  1.0000
  H   H3147     1.0  0.41084  0.33582  0.91843  1.0000
  H   H3148     1.0  0.43374  0.40819  0.90540  1.0000
  C   C1822     1.0  0.45711  0.19467  0.89487  1.0000
  H   H3149     1.0  0.43201  0.31333  0.92951  1.0000
  C   C1823     1.0  0.26839  0.47348  0.90932  1.0000
  H   H3150     1.0  0.47447  0.26363  0.93145  1.0000
  H   H3151     1.0  0.48167  0.34815  0.94531  1.0000
  H   H3152     1.0  0.43374  0.06523  0.75256  1.0000
  H   H3153     1.0  0.43979  0.30154  0.91846  1.0000
  C   C1824     1.0  0.42908  0.99197  0.76840  1.0000
  H   H3154     1.0  0.27548  0.46849  0.96655  1.0000
  Fe  Fe246     1.0  0.30286  0.46412  0.94785  1.0000
  H   H3155     1.0  0.45780  0.03310  0.87187  1.0000
  H   H3156     1.0  0.46025  0.36138  0.90172  1.0000
  H   H3157     1.0  0.43614  0.39551  0.92124  1.0000
  H   H3158     1.0  0.41800  0.23514  0.97089  1.0000
  H   H3159     1.0  0.42854  0.06298  0.83995  1.0000
  H   H3160     1.0  0.35679  0.38948  0.89914  1.0000
  S   S519      1.0  0.45410  0.23671  0.90619  1.0000
  H   H3161     1.0  0.44934  0.14847  0.95218  1.0000
  H   H3162     1.0  0.38707  0.39896  0.97658  1.0000
  H   H3163     1.0  0.46840  0.20179  0.92695  1.0000
  H   H3164     1.0  0.44387  0.22143  0.96312  1.0000
  C   C1825     1.0  0.43410  0.08182  0.75172  1.0000
  H   H3165     1.0  0.46542  0.18949  0.89371  1.0000
  Fe  Fe247     1.0  0.45554  0.30654  0.95041  1.0000
  C   C1826     1.0  0.26703  0.47309  0.96899  1.0000
  C   C1827     1.0  0.42239  0.14172  0.94867  1.0000
  H   H3166     1.0  0.39575  0.09499  0.82525  1.0000
  C   C1828     1.0  0.44037  0.04186  0.76802  1.0000
  H   H3167     1.0  0.45510  0.04619  0.76764  1.0000
  H   H3168     1.0  0.42137  0.06551  0.82962  1.0000
  C   C1829     1.0  0.25632  0.45118  0.96282  1.0000
  H   H3169     1.0  0.43292  0.08020  0.83526  1.0000
  C   C1830     1.0  0.37211  0.11464  0.82556  1.0000
  C   C1831     1.0  0.42581  0.29600  0.95587  1.0000
  H   H3170     1.0  0.42533  0.19199  0.98104  1.0000
  H   H3171     1.0  0.36089  0.08339  0.93678  1.0000
  S   S520      1.0  0.47187  0.13703  0.94525  1.0000
  H   H3172     1.0  0.37498  0.02337  0.74356  1.0000
  C   C1832     1.0  0.38696  0.33768  0.96811  1.0000
  C   C1833     1.0  0.42851  0.31392  0.90880  1.0000
  C   C1834     1.0  0.46089  0.35484  0.93390  1.0000
  S   S521      1.0  0.29677  0.45755  0.96563  1.0000
  C   C1835     1.0  0.45433  0.37642  0.90792  1.0000
  S   S522      1.0  0.31775  0.47117  0.94204  1.0000
  Fe  Fe248     1.0  0.46223  0.23531  0.94257  1.0000
  H   H3173     1.0  0.45966  0.16641  0.88286  1.0000
  C   C1836     1.0  0.41436  0.33617  0.90131  1.0000
  Fe  Fe249     1.0  0.47061  0.03417  0.79807  1.0000
  H   H3174     1.0  0.41137  0.26149  0.97767  1.0000
  H   H3175     1.0  0.42933  0.31758  0.89987  1.0000
  H   H3176     1.0  0.45768  0.20453  0.96082  1.0000
  H   H3177     1.0  0.45114  0.39668  0.89587  1.0000
  Fe  Fe250     1.0  0.47272  0.14716  0.92808  1.0000
  C   C1837     1.0  0.42097  0.00659  0.77876  1.0000
  H   H3178     1.0  0.40401  0.30630  0.97385  1.0000
  S   S523      1.0  0.45926  0.22186  0.93681  1.0000
  H   H3179     1.0  0.34250  0.39587  0.90303  1.0000
  S   S524      1.0  0.48050  0.22623  0.91635  1.0000
  C   C1838     1.0  0.48096  0.34830  0.96630  1.0000
  H   H3180     1.0  0.44042  0.29911  0.90548  1.0000
  C   C1839     1.0  0.35678  0.08879  0.92107  1.0000
  H   H3181     1.0  0.26684  0.47552  0.97660  1.0000
  C   C1840     1.0  0.43365  0.41074  0.94142  1.0000
  C   C1841     1.0  0.43233  0.41762  0.93126  1.0000
  C   C1842     1.0  0.37636  0.09980  0.84186  1.0000
  H   H3182     1.0  0.45191  0.12985  0.97922  1.0000
  C   C1843     1.0  0.41721  0.41371  0.98027  1.0000
  H   H3183     1.0  0.46760  0.40605  0.97019  1.0000
  H   H3184     1.0  0.42045  0.31702  0.97057  1.0000
  C   C1844     1.0  0.36553  0.21090  0.96631  1.0000
  H   H3185     1.0  0.37691  0.10466  0.80761  1.0000
  C   C1845     1.0  0.46401  0.37242  0.93384  1.0000
  H   H3186     1.0  0.46155  0.38014  0.90528  1.0000
  H   H3187     1.0  0.43442  0.40906  0.89131  1.0000
  H   H3188     1.0  0.36355  0.11419  0.82659  1.0000
  H   H3189     1.0  0.36636  0.33094  0.97038  1.0000
  N   N131      1.0  0.45647  0.20477  0.97772  1.0000
  H   H3190     1.0  0.24752  0.45286  0.96639  1.0000
  H   H3191     1.0  0.38165  0.09164  0.84439  1.0000
  H   H3192     1.0  0.43223  0.37850  0.90605  1.0000
  H   H3193     1.0  0.35623  0.09350  0.95009  1.0000
  C   C1846     1.0  0.33478  0.44619  0.96589  1.0000
  C   C1847     1.0  0.45262  0.39718  0.91617  1.0000
  C   C1848     1.0  0.43167  0.33974  0.91605  1.0000
  H   H3194     1.0  0.25746  0.44921  0.95473  1.0000
  C   C1849     1.0  0.43385  0.40340  0.89952  1.0000
  H   H3195     1.0  0.37479  0.11745  0.81653  1.0000
  H   H3196     1.0  0.36353  0.09683  0.85627  1.0000
  S   S525      1.0  0.48611  0.24831  0.98022  1.0000
  H   H3197     1.0  0.44148  0.32389  0.91447  1.0000
  H   H3198     1.0  0.43096  0.23376  0.94935  1.0000
  C   C1850     1.0  0.44359  0.39348  0.89906  1.0000
  S   S526      1.0  0.33910  0.45304  0.92325  1.0000
  H   H3199     1.0  0.46481  0.13221  0.97834  1.0000
  C   C1851     1.0  0.46404  0.16030  0.96809  1.0000
  H   H3200     1.0  0.48398  0.36770  0.95895  1.0000
  S   S527      1.0  0.30756  0.45362  0.93552  1.0000
  H   H3201     1.0  0.42357  0.09488  0.81693  1.0000
  S   S528      1.0  0.47127  0.03833  0.78005  1.0000
  C   C1852     1.0  0.37663  0.09526  0.82483  1.0000
  C   C1853     1.0  0.43452  0.36965  0.92228  1.0000
  S   S529      1.0  0.45193  0.34601  0.93754  1.0000
  H   H3202     1.0  0.40740  0.99928  0.78989  1.0000
  H   H3203     1.0  0.42214  0.30904  0.91105  1.0000
  H   H3204     1.0  0.44773  0.36896  0.89839  1.0000
  H   H3205     1.0  0.38054  0.18860  0.97492  1.0000
  H   H3206     1.0  0.41534  0.33070  0.89574  1.0000
  H   H3207     1.0  0.44441  0.03493  0.76427  1.0000
  C   C1854     1.0  0.42520  0.24953  0.98230  1.0000
  H   H3208     1.0  0.42308  0.34413  0.91741  1.0000
  H   H3209     1.0  0.41743  0.08313  0.82216  1.0000
  H   H3210     1.0  0.44099  0.04620  0.83288  1.0000
  H   H3211     1.0  0.36779  0.09559  0.82674  1.0000
  H   H3212     1.0  0.27633  0.44803  0.97200  1.0000
  H   H3213     1.0  0.43134  0.13576  0.96703  1.0000
  C   C1855     1.0  0.36235  0.09016  0.92946  1.0000
  C   C1856     1.0  0.44009  0.28637  0.93900  1.0000
  H   H3214     1.0  0.38249  0.44024  0.97060  1.0000
  C   C1857     1.0  0.39092  0.10353  0.82548  1.0000
  C   C1858     1.0  0.46017  0.12568  0.98060  1.0000
  H   H3215     1.0  0.47205  0.27102  0.96829  1.0000
  H   H3216     1.0  0.26040  0.44374  0.96805  1.0000
  H   H3217     1.0  0.44533  0.38384  0.92624  1.0000
  N   N132      1.0  0.42519  0.32273  0.91537  1.0000
  H   H3218     1.0  0.43605  0.34570  0.90976  1.0000
  H   H3219     1.0  0.44640  0.30963  0.90597  1.0000
  H   H3220     1.0  0.41129  0.99330  0.88786  1.0000
  H   H3221     1.0  0.48388  0.27070  0.94607  1.0000
  H   H3222     1.0  0.36416  0.11661  0.92813  1.0000
  H   H3223     1.0  0.42998  0.35019  0.97291  1.0000
  C   C1859     1.0  0.41595  0.99921  0.78944  1.0000
  H   H3224     1.0  0.41751  0.09121  0.83113  1.0000
  H   H3225     1.0  0.46104  0.38017  0.93630  1.0000
  H   H3226     1.0  0.27009  0.45871  0.95755  1.0000
  C   C1860     1.0  0.45835  0.38136  0.97800  1.0000
  H   H3227     1.0  0.43359  0.25668  0.96192  1.0000
  H   H3228     1.0  0.48094  0.01379  0.84475  1.0000
  C   C1861     1.0  0.43398  0.32914  0.91182  1.0000
  S   S530      1.0  0.48495  0.19810  0.93906  1.0000
  C   C1862     1.0  0.46064  0.03470  0.85411  1.0000
  C   C1863     1.0  0.37922  0.34866  0.96435  1.0000
  S   S531      1.0  0.47562  0.32092  0.92687  1.0000
  C   C1864     1.0  0.37459  0.32543  0.96940  1.0000
  H   H3229     1.0  0.41642  0.34874  0.97676  1.0000
  S   S532      1.0  0.44207  0.29974  0.96257  1.0000
  H   H3230     1.0  0.38040  0.08673  0.82865  1.0000
  H   H3231     1.0  0.38940  0.09473  0.80958  1.0000
  S   S533      1.0  0.46566  0.01899  0.80916  1.0000
  H   H3232     1.0  0.42678  0.38625  0.91621  1.0000
  C   C1865     1.0  0.46123  0.24515  0.96353  1.0000
  H   H3233     1.0  0.43462  0.33800  0.92371  1.0000
  H   H3234     1.0  0.45117  0.40466  0.90963  1.0000
  Fe  Fe251     1.0  0.47855  0.12711  0.91793  1.0000
  C   C1866     1.0  0.46573  0.11735  0.97318  1.0000
  C   C1867     1.0  0.45830  0.17023  0.89884  1.0000
  H   H3235     1.0  0.41909  0.33744  0.95197  1.0000
  C   C1868     1.0  0.43697  0.29423  0.95477  1.0000
  H   H3236     1.0  0.41980  0.33154  0.93477  1.0000
  H   H3237     1.0  0.37683  0.08779  0.94175  1.0000
  H   H3238     1.0  0.41999  0.31001  0.92906  1.0000
  N   N133      1.0  0.42177  0.00327  0.76829  1.0000
  N   N134      1.0  0.38152  0.32848  0.97511  1.0000
  H   H3239     1.0  0.36957  0.00885  0.73621  1.0000
  C   C1869     1.0  0.32745  0.44300  0.97732  1.0000
  C   C1870     1.0  0.40591  0.01939  0.74026  1.0000
  C   C1871     1.0  0.43940  0.30568  0.90986  1.0000
  H   H3240     1.0  0.40833  0.32445  0.91556  1.0000
  C   C1872     1.0  0.41439  0.32968  0.91323  1.0000
  C   C1873     1.0  0.39779  0.11611  0.98279  1.0000
  Fe  Fe252     1.0  0.46671  0.30863  0.92649  1.0000
  N   N135      1.0  0.47787  0.00918  0.74944  1.0000
  H   H3241     1.0  0.41113  0.00161  0.75906  1.0000
  C   C1874     1.0  0.42931  0.33494  0.96346  1.0000
  H   H3242     1.0  0.46457  0.28490  0.96394  1.0000
  H   H3243     1.0  0.41684  0.41884  0.96325  1.0000
  H   H3244     1.0  0.46162  0.18703  0.98186  1.0000
  H   H3245     1.0  0.44069  0.01160  0.87221  1.0000
  C   C1875     1.0  0.44808  0.33370  0.97417  1.0000
  C   C1876     1.0  0.45392  0.06232  0.74029  1.0000
  H   H3246     1.0  0.34820  0.08836  0.92470  1.0000
  C   C1877     1.0  0.47647  0.26930  0.92372  1.0000
  S   S534      1.0  0.48052  0.07732  0.86784  1.0000
  C   C1878     1.0  0.41975  0.32687  0.98227  1.0000
  H   H3247     1.0  0.42651  0.00961  0.75078  1.0000
  C   C1879     1.0  0.46602  0.24629  0.97981  1.0000
  S   S535      1.0  0.48659  0.03801  0.79659  1.0000
  C   C1880     1.0  0.45745  0.27654  0.98059  1.0000
  C   C1881     1.0  0.43890  0.32733  0.97844  1.0000
  C   C1882     1.0  0.40186  0.01118  0.73883  1.0000
  H   H3248     1.0  0.35422  0.44024  0.95081  1.0000
  H   H3249     1.0  0.48102  0.36594  0.94714  1.0000
  C   C1883     1.0  0.47289  0.17452  0.92731  1.0000
  S   S536      1.0  0.28798  0.46832  0.91460  1.0000
  H   H3250     1.0  0.47286  0.02733  0.82757  1.0000
  H   H3251     1.0  0.36914  0.10543  0.90874  1.0000
  N   N136      1.0  0.40106  0.41515  0.97183  1.0000
  H   H3252     1.0  0.37241  0.34759  0.96163  1.0000
  C   C1884     1.0  0.36528  0.00324  0.73489  1.0000
  H   H3253     1.0  0.41608  0.00226  0.79656  1.0000
  C   C1885     1.0  0.46934  0.35111  0.96437  1.0000
  C   C1886     1.0  0.37869  0.32607  0.95687  1.0000
  H   H3254     1.0  0.36028  0.45046  0.94083  1.0000
  C   C1887     1.0  0.46570  0.02852  0.75095  1.0000
  H   H3255     1.0  0.46203  0.10270  0.96465  1.0000
  H   H3256     1.0  0.35686  0.11594  0.91172  1.0000
  H   H3257     1.0  0.48494  0.35902  0.91689  1.0000
  H   H3258     1.0  0.25467  0.45177  0.98370  1.0000
  H   H3259     1.0  0.24595  0.47862  0.96571  1.0000
  C   C1888     1.0  0.39907  0.41343  0.96160  1.0000
  H   H3260     1.0  0.36995  0.11880  0.90867  1.0000
  C   C1889     1.0  0.47111  0.03552  0.82954  1.0000
  H   H3261     1.0  0.40981  0.24771  0.98167  1.0000
  C   C1890     1.0  0.26086  0.45685  0.98117  1.0000
  H   H3262     1.0  0.39049  0.41337  0.96242  1.0000
  H   H3263     1.0  0.48644  0.25034  0.95747  1.0000
  C   C1891     1.0  0.48180  0.17060  0.93227  1.0000
  H   H3264     1.0  0.34530  0.10767  0.92481  1.0000
  C   C1892     1.0  0.37267  0.09504  0.94542  1.0000
  H   H3265     1.0  0.44997  0.33641  0.96511  1.0000
  H   H3266     1.0  0.48417  0.13419  0.97865  1.0000
  H   H3267     1.0  0.48108  0.02132  0.76245  1.0000
  C   C1893     1.0  0.40125  0.36973  0.98202  1.0000
  H   H3268     1.0  0.38112  0.42811  0.96815  1.0000
  C   C1894     1.0  0.46107  0.29382  0.98149  1.0000
  H   H3269     1.0  0.38759  0.00624  0.73901  1.0000
  H   H3270     1.0  0.45024  0.38034  0.97806  1.0000
  H   H3271     1.0  0.48341  0.10231  0.97850  1.0000
  H   H3272     1.0  0.32383  0.46531  0.96447  1.0000
  C   C1895     1.0  0.39963  0.28270  0.98387  1.0000
  H   H3273     1.0  0.34934  0.00954  0.74502  1.0000
  H   H3274     1.0  0.44288  0.08171  0.74924  1.0000
  H   H3275     1.0  0.43193  0.07983  0.76084  1.0000
  H   H3276     1.0  0.41136  0.33173  0.98203  1.0000
  H   H3277     1.0  0.40080  0.43266  0.96725  1.0000
  H   H3278     1.0  0.47462  0.04101  0.82193  1.0000
  H   H3279     1.0  0.47912  0.09532  0.95456  1.0000
  H   H3280     1.0  0.44900  0.28071  0.97983  1.0000
  H   H3281     1.0  0.41058  0.42226  0.94858  1.0000
  H   H3282     1.0  0.36280  0.20312  0.96832  1.0000
  H   H3283     1.0  0.45087  0.24311  0.97972  1.0000
  H   H3284     1.0  0.46631  0.99202  0.75886  1.0000
  H   H3285     1.0  0.48205  0.36738  0.98028  1.0000
  H   H3286     1.0  0.38193  0.20556  0.96860  1.0000
  C   C1896     1.0  0.39689  0.40692  0.98184  1.0000
  H   H3287     1.0  0.39451  0.32075  0.98376  1.0000
  Fe  Fe253     1.0  0.48104  0.23957  0.92397  1.0000
  H   H3288     1.0  0.41711  0.40467  0.96877  1.0000
  H   H3289     1.0  0.25802  0.46752  0.95440  1.0000
  H   H3290     1.0  0.47609  0.04371  0.83898  1.0000
  C   C1897     1.0  0.38999  0.31863  0.97884  1.0000
  H   H3291     1.0  0.43010  0.25588  0.97965  1.0000
  S   S537      1.0  0.48153  0.12264  0.90152  1.0000
  H   H3292     1.0  0.45341  0.14605  0.96457  1.0000
  H   H3293     1.0  0.48529  0.99266  0.74668  1.0000
  H   H3294     1.0  0.43254  0.05178  0.74640  1.0000
  C   C1898     1.0  0.42369  0.13879  0.97262  1.0000
  H   H3295     1.0  0.42620  0.41119  0.97845  1.0000
  C   C1899     1.0  0.30050  0.46234  0.98310  1.0000
  H   H3296     1.0  0.48615  0.13306  0.95937  1.0000
  H   H3297     1.0  0.48286  0.33937  0.97022  1.0000
  C   C1900     1.0  0.48441  0.09579  0.88991  1.0000
  H   H3298     1.0  0.47917  0.00458  0.82421  1.0000
  S   S538      1.0  0.48180  0.38043  0.92096  1.0000
  H   H3299     1.0  0.48379  0.28982  0.89614  1.0000
  Fe  Fe254     1.0  0.48628  0.06019  0.86449  1.0000
  C   C1901     1.0  0.48225  0.39721  0.97567  1.0000
  C   C1902     1.0  0.37385  0.18645  0.98183  1.0000
  S   S539      1.0  0.48439  0.07383  0.89898  1.0000
  H   H3300     1.0  0.23699  0.42541  0.98402  1.0000
  C   C1903     1.0  0.41495  0.20740  0.98432  1.0000
  H   H3301     1.0  0.44598  0.10164  0.97613  1.0000
  C   C1904     1.0  0.48196  0.43372  0.96178  1.0000
  H   H3302     1.0  0.38620  0.31182  0.98436  1.0000
  H   H3303     1.0  0.26753  0.51401  0.05642  1.0000
  Fe  Fe255     1.0  0.39062  0.94484  0.10178  1.0000
  S   S540      1.0  0.39561  0.96003  0.10130  1.0000
  S   S541      1.0  0.38670  0.93257  0.11756  1.0000
  Fe  Fe256     1.0  0.39300  0.94946  0.07686  1.0000
  S   S542      1.0  0.39780  0.96543  0.07444  1.0000
  S   S543      1.0  0.39653  0.94365  0.06100  1.0000
  Fe  Fe257     1.0  0.40810  0.95612  0.08646  1.0000
  S   S544      1.0  0.42542  0.95714  0.08153  1.0000
  Fe  Fe258     1.0  0.38483  0.96818  0.08937  1.0000
  H   H3304     1.0  0.42413  0.66984  0.02440  1.0000
  S   S545      1.0  0.40431  0.94000  0.08807  1.0000
  S   S546      1.0  0.37875  0.95312  0.09080  1.0000
  Fe  Fe259     1.0  0.38441  0.98040  0.16441  1.0000
  S   S547      1.0  0.37476  0.96824  0.17522  1.0000
  H   H3305     1.0  0.43472  0.95142  0.22590  1.0000
  Fe  Fe260     1.0  0.40562  0.96562  0.16859  1.0000
  S   S548      1.0  0.37495  0.98505  0.09124  1.0000
  S   S549      1.0  0.42366  0.96368  0.16429  1.0000
  Fe  Fe261     1.0  0.38793  0.95583  0.16730  1.0000
  S   S550      1.0  0.38275  0.94216  0.16403  1.0000
  S   S551      1.0  0.39672  0.96831  0.15532  1.0000
  Fe  Fe262     1.0  0.33060  0.57158  0.00415  1.0000
  S   S552      1.0  0.32994  0.57202  0.02142  1.0000
  H   H3306     1.0  0.36112  0.57636  0.00161  1.0000
  Fe  Fe263     1.0  0.33803  0.54648  0.00832  1.0000
  S   S553      1.0  0.33825  0.54501  0.02586  1.0000
  S   S554      1.0  0.34168  0.53214  0.00021  1.0000
  Fe  Fe264     1.0  0.32236  0.55737  0.02600  1.0000
  S   S555      1.0  0.30628  0.55595  0.03763  1.0000
  Fe  Fe265     1.0  0.34590  0.55981  0.01941  1.0000
  S   S556      1.0  0.36183  0.56095  0.02218  1.0000
  S   S557      1.0  0.32179  0.55800  0.00879  1.0000
  S   S558      1.0  0.34692  0.56025  0.00170  1.0000
  H   H3307     1.0  0.47131  0.95213  0.22786  1.0000
  C   C1905     1.0  0.46351  0.58611  0.03972  1.0000
  H   H3308     1.0  0.46895  0.70569  0.06104  1.0000
  Fe  Fe266     1.0  0.47538  0.64541  0.01522  1.0000
  S   S559      1.0  0.46970  0.62967  0.02047  1.0000
  H   H3309     1.0  0.47422  0.67676  0.06134  1.0000
  S   S560      1.0  0.24270  0.54533  0.00550  1.0000
  S   S561      1.0  0.47625  0.62642  0.04388  1.0000
  C   C1906     1.0  0.24617  0.57354  0.98522  1.0000
  H   H3310     1.0  0.47990  0.58290  0.04061  1.0000
  C   C1907     1.0  0.37392  0.97393  0.14193  1.0000
  Fe  Fe267     1.0  0.46184  0.63481  0.03633  1.0000
  S   S562      1.0  0.44436  0.63451  0.04411  1.0000
  H   H3311     1.0  0.46372  0.86956  0.02659  1.0000
  S   S563      1.0  0.46629  0.65123  0.03057  1.0000
  Fe  Fe268     1.0  0.38339  0.60838  0.03135  1.0000
  S   S564      1.0  0.37807  0.62585  0.02252  1.0000
  S   S565      1.0  0.36960  0.59939  0.03865  1.0000
  Fe  Fe269     1.0  0.40668  0.61103  0.02758  1.0000
  S   S566      1.0  0.40305  0.62852  0.01837  1.0000
  S   S567      1.0  0.42421  0.60411  0.02850  1.0000
  Fe  Fe270     1.0  0.38795  0.63021  0.03150  1.0000
  S   S568      1.0  0.38220  0.64473  0.03948  1.0000
  Fe  Fe271     1.0  0.39367  0.62234  0.01038  1.0000
  S   S569      1.0  0.39402  0.62867  0.99252  1.0000
  S   S570      1.0  0.39213  0.61307  0.04148  1.0000
  S   S571      1.0  0.39845  0.60460  0.01841  1.0000
  Fe  Fe272     1.0  0.40346  0.79607  0.02029  1.0000
  S   S572      1.0  0.39380  0.79371  0.03751  1.0000
  S   S573      1.0  0.42084  0.78735  0.01656  1.0000
  Fe  Fe273     1.0  0.38469  0.81108  0.01105  1.0000
  S   S574      1.0  0.37294  0.80989  0.02746  1.0000
  S   S575      1.0  0.38197  0.82125  0.99451  1.0000
  Fe  Fe274     1.0  0.38664  0.81179  0.03348  1.0000
  S   S576      1.0  0.38633  0.82291  0.04417  1.0000
  Fe  Fe275     1.0  0.38108  0.79182  0.03017  1.0000
  S   S577      1.0  0.37429  0.77675  0.03869  1.0000
  S   S578      1.0  0.39764  0.81439  0.01695  1.0000
  S   S579      1.0  0.39138  0.79287  0.01319  1.0000
  Fe  Fe276     1.0  0.45723  0.81920  0.01878  1.0000
  S   S580      1.0  0.45465  0.81303  0.03704  1.0000
  S   S581      1.0  0.44493  0.82530  0.00828  1.0000
  H   H3312     1.0  0.36340  0.59798  0.98506  1.0000
  Fe  Fe277     1.0  0.47001  0.80036  0.03351  1.0000
  S   S582      1.0  0.47266  0.78219  0.04131  1.0000
  Fe  Fe278     1.0  0.46573  0.82389  0.03595  1.0000
  S   S583      1.0  0.47138  0.80550  0.01543  1.0000
  S   S584      1.0  0.46701  0.83098  0.01793  1.0000
  Fe  Fe279     1.0  0.46956  0.71209  0.03288  1.0000
  S   S585      1.0  0.45464  0.70611  0.03483  1.0000
  H   H3313     1.0  0.46152  0.87077  0.01342  1.0000
  Fe  Fe280     1.0  0.45918  0.73586  0.02430  1.0000
  S   S586      1.0  0.44334  0.73181  0.02559  1.0000
  S   S587      1.0  0.45967  0.75363  0.01687  1.0000
  Fe  Fe281     1.0  0.44592  0.72096  0.04173  1.0000
  S   S588      1.0  0.43264  0.71968  0.05684  1.0000
  Fe  Fe282     1.0  0.45352  0.71743  0.01856  1.0000
  S   S589      1.0  0.44862  0.71175  0.00634  1.0000
  S   S590      1.0  0.46090  0.72618  0.04120  1.0000
  S   S591      1.0  0.46929  0.72223  0.01584  1.0000
  Fe  Fe283     1.0  0.38512  0.72637  0.01517  1.0000
  S   S592      1.0  0.40100  0.72051  0.02029  1.0000
  S   S593      1.0  0.37892  0.74435  0.00834  1.0000
  Fe  Fe284     1.0  0.38316  0.70300  0.01678  1.0000
  S   S594      1.0  0.39891  0.69513  0.02199  1.0000
  S   S595      1.0  0.37278  0.69380  0.01335  1.0000
  Fe  Fe285     1.0  0.39334  0.70743  0.03269  1.0000
  S   S596      1.0  0.39526  0.70226  0.05014  1.0000
  Fe  Fe286     1.0  0.40509  0.70885  0.00920  1.0000
  S   S597      1.0  0.42011  0.70692  0.99609  1.0000
  S   S598      1.0  0.37690  0.71428  0.02859  1.0000
  S   S599      1.0  0.38985  0.71566  0.00306  1.0000
  C   C1908     1.0  0.35820  0.59347  0.99209  1.0000
  H   H3314     1.0  0.46939  0.85403  0.00240  1.0000
  H   H3315     1.0  0.41471  0.73478  0.06734  1.0000
  S   S600      1.0  0.46042  0.89523  0.03817  1.0000
  Fe  Fe287     1.0  0.45227  0.90089  0.05381  1.0000
  S   S601      1.0  0.43467  0.90100  0.06109  1.0000
  S   S602      1.0  0.46619  0.89240  0.06197  1.0000
  Fe  Fe288     1.0  0.38574  0.90319  0.03352  1.0000
  S   S603      1.0  0.39011  0.88475  0.03893  1.0000
  S   S604      1.0  0.37588  0.91221  0.04704  1.0000
  Fe  Fe289     1.0  0.39636  0.90259  0.00945  1.0000
  S   S605      1.0  0.40182  0.88429  0.01318  1.0000
  H   H3316     1.0  0.45935  0.97099  0.23344  1.0000
  Fe  Fe290     1.0  0.38528  0.88441  0.02381  1.0000
  S   S606      1.0  0.37599  0.87339  0.02150  1.0000
  Fe  Fe291     1.0  0.40613  0.88651  0.02771  1.0000
  S   S607      1.0  0.42175  0.87701  0.03229  1.0000
  S   S608      1.0  0.37936  0.90273  0.01927  1.0000
  S   S609      1.0  0.40223  0.90490  0.02311  1.0000
  C   C1909     1.0  0.43067  0.89392  0.05378  1.0000
  C   C1910     1.0  0.43772  0.88459  0.05049  1.0000
  C   C1911     1.0  0.43489  0.87929  0.04402  1.0000
  C   C1912     1.0  0.42489  0.88322  0.04100  1.0000
  C   C1913     1.0  0.41764  0.89233  0.04463  1.0000
  C   C1914     1.0  0.42060  0.89778  0.05088  1.0000
  H   H3317     1.0  0.44537  0.88149  0.05295  1.0000
  H   H3318     1.0  0.44052  0.87225  0.04125  1.0000
  H   H3319     1.0  0.40981  0.89527  0.04255  1.0000
  H   H3320     1.0  0.41522  0.90514  0.05316  1.0000
  S   S610      1.0  0.32531  0.58748  0.99260  1.0000
  H   H3321     1.0  0.37402  0.97883  0.14769  1.0000
  C   C1915     1.0  0.38913  0.62019  0.98759  1.0000
  H   H3322     1.0  0.30154  0.50705  0.00939  1.0000
  C   C1916     1.0  0.38653  0.78812  0.98533  1.0000
  H   H3323     1.0  0.46440  0.69368  0.05276  1.0000
  H   H3324     1.0  0.29160  0.49759  0.00225  1.0000
  H   H3325     1.0  0.37047  0.57889  0.98888  1.0000
  C   C1917     1.0  0.36482  0.96757  0.14731  1.0000
  H   H3326     1.0  0.48020  0.59729  0.06148  1.0000
  S   S611      1.0  0.45708  0.91709  0.04794  1.0000
  C   C1918     1.0  0.38312  0.98677  0.12730  1.0000
  H   H3327     1.0  0.39591  0.98770  0.19463  1.0000
  C   C1919     1.0  0.41179  0.69242  0.99112  1.0000
  H   H3328     1.0  0.29530  0.50501  0.06802  1.0000
  H   H3329     1.0  0.48285  0.60243  0.04706  1.0000
  C   C1920     1.0  0.48265  0.97065  0.22894  1.0000
  S   S612      1.0  0.47075  0.98507  0.16361  1.0000
  H   H3330     1.0  0.41053  0.68861  0.99978  1.0000
  H   H3331     1.0  0.25894  0.50320  0.01345  1.0000
  H   H3332     1.0  0.27127  0.56371  0.01334  1.0000
  C   C1921     1.0  0.48014  0.92999  0.07547  1.0000
  C   C1922     1.0  0.42233  0.71486  0.05485  1.0000
  C   C1923     1.0  0.42247  0.71357  0.04447  1.0000
  C   C1924     1.0  0.41417  0.70969  0.04300  1.0000
  C   C1925     1.0  0.40576  0.70702  0.05189  1.0000
  C   C1926     1.0  0.40574  0.70813  0.06230  1.0000
  C   C1927     1.0  0.41397  0.71212  0.06376  1.0000
  H   H3333     1.0  0.42897  0.71555  0.03757  1.0000
  H   H3334     1.0  0.41438  0.70859  0.03501  1.0000
  H   H3335     1.0  0.39927  0.70605  0.06920  1.0000
  H   H3336     1.0  0.41387  0.71305  0.07181  1.0000
  C   C1928     1.0  0.45091  0.72089  0.99362  1.0000
  C   C1929     1.0  0.39476  0.97974  0.12468  1.0000
  C   C1930     1.0  0.46690  0.91561  0.99598  1.0000
  H   H3337     1.0  0.39332  0.97971  0.21633  1.0000
  C   C1931     1.0  0.45458  0.73030  0.99268  1.0000
  H   H3338     1.0  0.28749  0.49295  0.01656  1.0000
  H   H3339     1.0  0.45587  0.73204  0.99981  1.0000
  C   C1932     1.0  0.47796  0.84259  0.04459  1.0000
  C   C1933     1.0  0.43389  0.68721  0.01462  1.0000
  C   C1934     1.0  0.48488  0.62822  0.98748  1.0000
  C   C1935     1.0  0.46810  0.77418  0.03535  1.0000
  C   C1936     1.0  0.47027  0.76269  0.03884  1.0000
  C   C1937     1.0  0.46733  0.75623  0.03354  1.0000
  C   C1938     1.0  0.46222  0.76128  0.02473  1.0000
  C   C1939     1.0  0.45981  0.77275  0.02147  1.0000
  C   C1940     1.0  0.46274  0.77915  0.02675  1.0000
  H   H3340     1.0  0.46931  0.74736  0.03606  1.0000
  H   H3341     1.0  0.45580  0.77670  0.01473  1.0000
  H   H3342     1.0  0.46093  0.78794  0.02410  1.0000
  C   C1941     1.0  0.38383  0.83687  0.03759  1.0000
  C   C1942     1.0  0.38716  0.84442  0.04110  1.0000
  C   C1943     1.0  0.38518  0.85562  0.03592  1.0000
  C   C1944     1.0  0.37945  0.85934  0.02752  1.0000
  C   C1945     1.0  0.37597  0.85182  0.02415  1.0000
  C   C1946     1.0  0.37836  0.84057  0.02900  1.0000
  H   H3343     1.0  0.39130  0.84156  0.04783  1.0000
  H   H3344     1.0  0.38784  0.86139  0.03861  1.0000
  H   H3345     1.0  0.37133  0.85468  0.01782  1.0000
  H   H3346     1.0  0.37567  0.83479  0.02633  1.0000
  C   C1947     1.0  0.37565  0.76778  0.03020  1.0000
  C   C1948     1.0  0.37523  0.77184  0.01912  1.0000
  C   C1949     1.0  0.37599  0.76460  0.01255  1.0000
  C   C1950     1.0  0.37761  0.75324  0.01690  1.0000
  C   C1951     1.0  0.37821  0.74915  0.02792  1.0000
  C   C1952     1.0  0.37701  0.75644  0.03461  1.0000
  H   H3347     1.0  0.37401  0.78058  0.01574  1.0000
  H   H3348     1.0  0.37545  0.76777  0.00405  1.0000
  H   H3349     1.0  0.37937  0.74040  0.03136  1.0000
  H   H3350     1.0  0.37723  0.75327  0.04320  1.0000
  H   H3351     1.0  0.45297  0.75524  0.99602  1.0000
  H   H3352     1.0  0.47690  0.93139  0.12551  1.0000
  C   C1953     1.0  0.37286  0.85057  0.99381  1.0000
  S   S613      1.0  0.46457  0.97002  0.18876  1.0000
  H   H3353     1.0  0.34497  0.51108  0.99528  1.0000
  H   H3354     1.0  0.25785  0.57941  0.01363  1.0000
  H   H3355     1.0  0.40265  0.80787  0.99775  1.0000
  H   H3356     1.0  0.38386  0.90008  0.99584  1.0000
  H   H3357     1.0  0.40334  0.86958  0.98994  1.0000
  C   C1954     1.0  0.47824  0.96373  0.14532  1.0000
  C   C1955     1.0  0.42807  0.79755  0.01375  1.0000
  C   C1956     1.0  0.42498  0.80763  0.00672  1.0000
  C   C1957     1.0  0.43020  0.81614  0.00501  1.0000
  C   C1958     1.0  0.43855  0.81459  0.01029  1.0000
  C   C1959     1.0  0.44163  0.80454  0.01736  1.0000
  C   C1960     1.0  0.43644  0.79597  0.01905  1.0000
  H   H3358     1.0  0.41854  0.80886  0.00262  1.0000
  H   H3359     1.0  0.42764  0.82396  0.99978  1.0000
  H   H3360     1.0  0.44784  0.80348  0.02171  1.0000
  H   H3361     1.0  0.43864  0.78829  0.02473  1.0000
  C   C1961     1.0  0.37973  0.65762  0.03055  1.0000
  C   C1962     1.0  0.36909  0.66377  0.03125  1.0000
  C   C1963     1.0  0.36701  0.67473  0.02549  1.0000
  C   C1964     1.0  0.37560  0.67973  0.01938  1.0000
  C   C1965     1.0  0.38627  0.67355  0.01847  1.0000
  C   C1966     1.0  0.38833  0.66244  0.02398  1.0000
  H   H3362     1.0  0.36244  0.66012  0.03645  1.0000
  H   H3363     1.0  0.35876  0.67948  0.02618  1.0000
  H   H3364     1.0  0.39293  0.67738  0.01367  1.0000
  H   H3365     1.0  0.39659  0.65774  0.02356  1.0000
  C   C1967     1.0  0.45020  0.79450  0.99030  1.0000
  H   H3366     1.0  0.31373  0.52036  0.04401  1.0000
  H   H3367     1.0  0.23736  0.58986  0.98693  1.0000
  H   H3368     1.0  0.45174  0.77255  0.99915  1.0000
  H   H3369     1.0  0.41365  0.98472  0.17063  1.0000
  H   H3370     1.0  0.41282  0.76446  0.98519  1.0000
  H   H3371     1.0  0.33094  0.52057  0.98571  1.0000
  C   C1968     1.0  0.43881  0.62624  0.03947  1.0000
  C   C1969     1.0  0.44549  0.61789  0.03423  1.0000
  C   C1970     1.0  0.44092  0.61103  0.03108  1.0000
  C   C1971     1.0  0.42966  0.61267  0.03282  1.0000
  C   C1972     1.0  0.42296  0.62120  0.03780  1.0000
  C   C1973     1.0  0.42753  0.62788  0.04125  1.0000
  H   H3372     1.0  0.45418  0.61655  0.03279  1.0000
  H   H3373     1.0  0.44610  0.60445  0.02724  1.0000
  H   H3374     1.0  0.41424  0.62251  0.03919  1.0000
  H   H3375     1.0  0.42230  0.63431  0.04530  1.0000
  H   H3376     1.0  0.24320  0.51773  0.00864  1.0000
  H   H3377     1.0  0.47827  0.97179  0.12839  1.0000
  H   H3378     1.0  0.27720  0.56566  0.02287  1.0000
  H   H3379     1.0  0.28718  0.57613  0.98829  1.0000
  H   H3380     1.0  0.44529  0.98377  0.22257  1.0000
  H   H3381     1.0  0.48201  0.67729  0.00693  1.0000
  C   C1974     1.0  0.38028  0.96417  0.22486  1.0000
  H   H3382     1.0  0.42620  0.90044  0.98998  1.0000
  H   H3383     1.0  0.47323  0.68823  0.03105  1.0000
  Fe  Fe292     1.0  0.24473  0.53786  0.02272  1.0000
  C   C1975     1.0  0.48209  0.95407  0.15255  1.0000
  H   H3384     1.0  0.33972  0.49376  0.00638  1.0000
  C   C1976     1.0  0.39187  0.60872  0.99101  1.0000
  H   H3385     1.0  0.39508  0.83647  0.99541  1.0000
  H   H3386     1.0  0.39663  0.60499  0.99717  1.0000
  H   H3387     1.0  0.38227  0.96596  0.12439  1.0000
  H   H3388     1.0  0.27378  0.50076  0.05358  1.0000
  N   N137      1.0  0.44898  0.96095  0.23267  1.0000
  H   H3389     1.0  0.40927  0.83538  0.00500  1.0000
  Fe  Fe293     1.0  0.26931  0.53463  0.01645  1.0000
  C   C1977     1.0  0.36379  0.57184  0.02659  1.0000
  C   C1978     1.0  0.35545  0.57777  0.03344  1.0000
  C   C1979     1.0  0.35740  0.58614  0.03708  1.0000
  C   C1980     1.0  0.36762  0.58884  0.03373  1.0000
  C   C1981     1.0  0.37593  0.58303  0.02674  1.0000
  C   C1982     1.0  0.37405  0.57447  0.02332  1.0000
  H   H3390     1.0  0.34757  0.57572  0.03616  1.0000
  H   H3391     1.0  0.35097  0.59052  0.04257  1.0000
  H   H3392     1.0  0.38385  0.58496  0.02418  1.0000
  H   H3393     1.0  0.38057  0.56985  0.01810  1.0000
  C   C1983     1.0  0.33889  0.51955  0.00860  1.0000
  C   C1984     1.0  0.34105  0.51048  0.00385  1.0000
  C   C1985     1.0  0.33810  0.50063  0.01015  1.0000
  C   C1986     1.0  0.33323  0.49964  0.02132  1.0000
  C   C1987     1.0  0.33165  0.50851  0.02618  1.0000
  C   C1988     1.0  0.33430  0.51848  0.01982  1.0000
  C   C1989     1.0  0.27319  0.58858  0.99185  1.0000
  C   C1990     1.0  0.29673  0.49827  0.06371  1.0000
  H   H3394     1.0  0.32841  0.50768  0.03488  1.0000
  H   H3395     1.0  0.33284  0.52530  0.02364  1.0000
  C   C1991     1.0  0.30043  0.54748  0.03367  1.0000
  C   C1992     1.0  0.28915  0.54864  0.03618  1.0000
  H   H3396     1.0  0.45215  0.93166  0.06420  1.0000
  H   H3397     1.0  0.28403  0.55453  0.04098  1.0000
  H   H3398     1.0  0.38319  0.78696  0.99432  1.0000
  H   H3399     1.0  0.41055  0.91694  0.06567  1.0000
  C   C1993     1.0  0.44374  0.97692  0.17249  1.0000
  C   C1994     1.0  0.43954  0.97000  0.16905  1.0000
  C   C1995     1.0  0.42863  0.97265  0.16854  1.0000
  S   S614      1.0  0.48447  0.70065  0.03794  1.0000
  H   H3400     1.0  0.39379  0.92722  0.21395  1.0000
  H   H3401     1.0  0.30490  0.52405  0.00372  1.0000
  H   H3402     1.0  0.44477  0.96245  0.16707  1.0000
  H   H3403     1.0  0.38863  0.89308  0.06749  1.0000
  H   H3404     1.0  0.40203  0.97512  0.22550  1.0000
  H   H3405     1.0  0.45216  0.97468  0.17286  1.0000
  C   C1996     1.0  0.38526  0.93069  0.21766  1.0000
  H   H3406     1.0  0.48223  0.76612  0.01327  1.0000
  H   H3407     1.0  0.26554  0.49293  0.02369  1.0000
  C   C1997     1.0  0.42197  0.98242  0.17129  1.0000
  C   C1998     1.0  0.39068  0.93462  0.05771  1.0000
  C   C1999     1.0  0.38040  0.93271  0.06324  1.0000
  C   C2000     1.0  0.37591  0.92585  0.05989  1.0000
  C   C2001     1.0  0.38172  0.92075  0.05111  1.0000
  C   C2002     1.0  0.39207  0.92250  0.04575  1.0000
  C   C2003     1.0  0.39647  0.92948  0.04897  1.0000
  H   H3408     1.0  0.37581  0.93674  0.06990  1.0000
  H   H3409     1.0  0.36787  0.92459  0.06405  1.0000
  H   H3410     1.0  0.39665  0.91863  0.03901  1.0000
  H   H3411     1.0  0.40439  0.93092  0.04459  1.0000
  C   C2004     1.0  0.38590  0.93576  0.13016  1.0000
  C   C2005     1.0  0.37985  0.93027  0.13970  1.0000
  C   C2006     1.0  0.37902  0.93238  0.14993  1.0000
  C   C2007     1.0  0.38430  0.93994  0.15082  1.0000
  C   C2008     1.0  0.39058  0.94535  0.14133  1.0000
  C   C2009     1.0  0.39134  0.94330  0.13098  1.0000
  H   H3412     1.0  0.37572  0.92437  0.13918  1.0000
  H   H3413     1.0  0.37422  0.92810  0.15721  1.0000
  H   H3414     1.0  0.39500  0.95092  0.14198  1.0000
  H   H3415     1.0  0.39632  0.94731  0.12372  1.0000
  C   C2010     1.0  0.43678  0.97419  0.10103  1.0000
  C   C2011     1.0  0.44379  0.97010  0.09210  1.0000
  C   C2012     1.0  0.44007  0.96523  0.08599  1.0000
  C   C2013     1.0  0.42932  0.96426  0.08884  1.0000
  C   C2014     1.0  0.42218  0.96845  0.09771  1.0000
  C   C2015     1.0  0.42591  0.97346  0.10380  1.0000
  H   H3416     1.0  0.47003  0.67438  0.07580  1.0000
  H   H3417     1.0  0.44563  0.96207  0.07912  1.0000
  H   H3418     1.0  0.41384  0.96780  0.09990  1.0000
  C   C2016     1.0  0.44993  0.63903  0.99863  1.0000
  H   H3419     1.0  0.43083  0.66114  0.01459  1.0000
  C   C2017     1.0  0.36827  0.65761  0.00632  1.0000
  C   C2018     1.0  0.43022  0.61543  0.99828  1.0000
  H   H3420     1.0  0.44094  0.93803  0.15735  1.0000
  H   H3421     1.0  0.34976  0.58602  0.01325  1.0000
  H   H3422     1.0  0.46467  0.93703  0.12066  1.0000
  C   C2019     1.0  0.40140  0.65512  0.98556  1.0000
  H   H3423     1.0  0.44094  0.69638  0.05440  1.0000
  H   H3424     1.0  0.45497  0.93297  0.15881  1.0000
  H   H3425     1.0  0.38464  0.94318  0.20279  1.0000
  H   H3426     1.0  0.40302  0.87950  0.08358  1.0000
  H   H3427     1.0  0.48502  0.87369  0.00021  1.0000
  C   C2020     1.0  0.45312  0.60834  0.99923  1.0000
  H   H3428     1.0  0.46254  0.57790  0.04487  1.0000
  H   H3429     1.0  0.39718  0.90898  0.06728  1.0000
  C   C2021     1.0  0.47504  0.98729  0.21702  1.0000
  Fe  Fe294     1.0  0.48121  0.81689  0.01566  1.0000
  Fe  Fe295     1.0  0.47627  0.96798  0.17288  1.0000
  H   H3430     1.0  0.42915  0.96667  0.20801  1.0000
  H   H3431     1.0  0.36945  0.96418  0.11554  1.0000
  H   H3432     1.0  0.47476  0.69205  0.06721  1.0000
  C   C2022     1.0  0.41374  0.75842  0.99303  1.0000
  H   H3433     1.0  0.28834  0.49583  0.98604  1.0000
  H   H3434     1.0  0.37282  0.67328  0.00108  1.0000
  H   H3435     1.0  0.35992  0.71570  0.99520  1.0000
  H   H3436     1.0  0.31467  0.50303  0.01205  1.0000
  H   H3437     1.0  0.27398  0.50373  0.06634  1.0000
  C   C2023     1.0  0.44648  0.68504  0.99098  1.0000
  H   H3438     1.0  0.44729  0.98821  0.23350  1.0000
  H   H3439     1.0  0.36159  0.96631  0.12864  1.0000
  H   H3440     1.0  0.37249  0.94400  0.21269  1.0000
  H   H3441     1.0  0.48613  0.96191  0.23050  1.0000
  H   H3442     1.0  0.47516  0.78326  0.00048  1.0000
  H   H3443     1.0  0.42128  0.68865  0.02964  1.0000
  H   H3444     1.0  0.41615  0.89953  0.07866  1.0000
  C   C2024     1.0  0.45054  0.95091  0.02482  1.0000
  H   H3445     1.0  0.42897  0.93831  0.03105  1.0000
  H   H3446     1.0  0.43445  0.95448  0.02219  1.0000
  H   H3447     1.0  0.45511  0.95231  0.03011  1.0000
  H   H3448     1.0  0.45311  0.95581  0.01643  1.0000
  C   C2025     1.0  0.47978  0.89949  0.99056  1.0000
  C   C2026     1.0  0.36575  0.58246  0.99609  1.0000
  S   S615      1.0  0.40168  0.91043  0.99164  1.0000
  C   C2027     1.0  0.41694  0.73853  0.00206  1.0000
  H   H3449     1.0  0.26376  0.49700  0.99057  1.0000
  H   H3450     1.0  0.46121  0.65913  0.07444  1.0000
  S   S616      1.0  0.25602  0.54825  0.02235  1.0000
  C   C2028     1.0  0.42521  0.73915  0.00808  1.0000
  H   H3451     1.0  0.48588  0.63389  0.00107  1.0000
  N   N138      1.0  0.31380  0.52191  0.98755  1.0000
  S   S617      1.0  0.48107  0.81076  0.03369  1.0000
  H   H3452     1.0  0.30637  0.60096  0.98478  1.0000
  C   C2029     1.0  0.45468  0.88673  0.99321  1.0000
  H   H3453     1.0  0.40891  0.73916  0.00785  1.0000
  H   H3454     1.0  0.41920  0.73000  0.00067  1.0000
  S   S618      1.0  0.48168  0.90335  0.03907  1.0000
  C   C2030     1.0  0.44612  0.77298  0.99396  1.0000
  H   H3455     1.0  0.47037  0.94122  0.14052  1.0000
  H   H3456     1.0  0.47481  0.66806  0.03426  1.0000
  H   H3457     1.0  0.43241  0.63125  0.99823  1.0000
  H   H3458     1.0  0.47144  0.86768  0.99698  1.0000
  H   H3459     1.0  0.39810  0.98167  0.08870  1.0000
  H   H3460     1.0  0.31284  0.50083  0.99990  1.0000
  H   H3461     1.0  0.42329  0.74705  0.01062  1.0000
  H   H3462     1.0  0.43356  0.73772  0.00307  1.0000
  H   H3463     1.0  0.42507  0.73249  0.01563  1.0000
  H   H3464     1.0  0.42663  0.68676  0.01210  1.0000
  H   H3465     1.0  0.39646  0.97700  0.11689  1.0000
  S   S619      1.0  0.44187  0.97989  0.10874  1.0000
  H   H3466     1.0  0.28426  0.55106  0.00688  1.0000
  N   N139      1.0  0.47088  0.59233  0.05301  1.0000
  H   H3467     1.0  0.29352  0.48912  0.03313  1.0000
  C   C2031     1.0  0.27099  0.49636  0.99373  1.0000
  N   N140      1.0  0.28324  0.57364  0.00598  1.0000
  C   C2032     1.0  0.38799  0.86428  0.99262  1.0000
  H   H3468     1.0  0.42042  0.97667  0.11066  1.0000
  H   H3469     1.0  0.44880  0.66019  0.01778  1.0000
  C   C2033     1.0  0.47999  0.67111  0.03727  1.0000
  N   N141      1.0  0.41621  0.74683  0.99143  1.0000
  C   C2034     1.0  0.43136  0.66344  0.02199  1.0000
  C   C2035     1.0  0.24183  0.51432  0.00258  1.0000
  H   H3470     1.0  0.43140  0.98449  0.20366  1.0000
  H   H3471     1.0  0.45813  0.60023  0.07186  1.0000
  H   H3472     1.0  0.29199  0.52035  0.99658  1.0000
  H   H3473     1.0  0.47083  0.58322  0.06970  1.0000
  H   H3474     1.0  0.35687  0.97218  0.14548  1.0000
  C   C2036     1.0  0.42784  0.89601  0.99821  1.0000
  H   H3475     1.0  0.45287  0.95439  0.20771  1.0000
  H   H3476     1.0  0.43504  0.62106  0.00989  1.0000
  H   H3477     1.0  0.45426  0.60160  0.05271  1.0000
  H   H3478     1.0  0.27780  0.50213  0.00933  1.0000
  C   C2037     1.0  0.38709  0.89743  0.07421  1.0000
  H   H3479     1.0  0.39605  0.76206  0.99880  1.0000
  C   C2038     1.0  0.48131  0.85627  0.98725  1.0000
  H   H3480     1.0  0.29501  0.56056  0.01364  1.0000
  H   H3481     1.0  0.38447  0.87124  0.98644  1.0000
  H   H3482     1.0  0.38532  0.98768  0.23231  1.0000
  H   H3483     1.0  0.47317  0.77113  0.99820  1.0000
  H   H3484     1.0  0.43414  0.96098  0.12827  1.0000
  N   N142      1.0  0.48310  0.85695  0.00642  1.0000
  H   H3485     1.0  0.45170  0.61322  0.06461  1.0000
  C   C2039     1.0  0.47596  0.85827  0.01750  1.0000
  H   H3486     1.0  0.45286  0.58342  0.07396  1.0000
  H   H3487     1.0  0.41058  0.84903  0.99815  1.0000
  H   H3488     1.0  0.38858  0.91925  0.08120  1.0000
  C   C2040     1.0  0.40340  0.81160  0.98919  1.0000
  H   H3489     1.0  0.29043  0.49351  0.06842  1.0000
  C   C2041     1.0  0.39700  0.76925  0.05810  1.0000
  H   H3490     1.0  0.43820  0.77800  0.99750  1.0000
  Fe  Fe296     1.0  0.48240  0.96682  0.10411  1.0000
  H   H3491     1.0  0.30018  0.56664  0.99978  1.0000
  H   H3492     1.0  0.43498  0.84414  0.99164  1.0000
  H   H3493     1.0  0.25162  0.49436  0.02407  1.0000
  C   C2042     1.0  0.37614  0.97364  0.12234  1.0000
  C   C2043     1.0  0.47820  0.81928  0.99155  1.0000
  H   H3494     1.0  0.45771  0.88434  0.98514  1.0000
  C   C2044     1.0  0.39520  0.95485  0.21260  1.0000
  H   H3495     1.0  0.37394  0.65468  0.01196  1.0000
  H   H3496     1.0  0.43593  0.69510  0.00951  1.0000
  C   C2045     1.0  0.43268  0.91193  0.00045  1.0000
  Fe  Fe297     1.0  0.45988  0.98744  0.17982  1.0000
  H   H3497     1.0  0.41804  0.98244  0.22213  1.0000
  C   C2046     1.0  0.35991  0.87409  0.05026  1.0000
  C   C2047     1.0  0.35994  0.89207  0.05344  1.0000
  C   C2048     1.0  0.35494  0.86685  0.04629  1.0000
  C   C2049     1.0  0.36584  0.88561  0.06283  1.0000
  H   H3498     1.0  0.36276  0.88963  0.03251  1.0000
  H   H3499     1.0  0.36049  0.86988  0.05884  1.0000
  H   H3500     1.0  0.36845  0.87353  0.04553  1.0000
  H   H3501     1.0  0.36643  0.89514  0.04665  1.0000
  H   H3502     1.0  0.34653  0.86654  0.05090  1.0000
  H   H3503     1.0  0.35526  0.86941  0.03734  1.0000
  H   H3504     1.0  0.35982  0.85828  0.04771  1.0000
  H   H3505     1.0  0.36068  0.88131  0.07006  1.0000
  H   H3506     1.0  0.36868  0.89146  0.06560  1.0000
  H   H3507     1.0  0.40757  0.98661  0.14023  1.0000
  H   H3508     1.0  0.45454  0.89717  0.00969  1.0000
  S   S620      1.0  0.47838  0.95280  0.16681  1.0000
  H   H3509     1.0  0.43435  0.68238  0.03261  1.0000
  H   H3510     1.0  0.36363  0.59558  0.01110  1.0000
  H   H3511     1.0  0.36788  0.60419  0.99829  1.0000
  N   N143      1.0  0.39232  0.85402  0.98807  1.0000
  H   H3512     1.0  0.35731  0.93893  0.21859  1.0000
  C   C2050     1.0  0.44492  0.76098  0.99636  1.0000
  C   C2051     1.0  0.28472  0.49503  0.00878  1.0000
  H   H3513     1.0  0.48087  0.85709  0.02354  1.0000
  N   N144      1.0  0.40794  0.98607  0.21033  1.0000
  H   H3514     1.0  0.46753  0.66182  0.06002  1.0000
  H   H3515     1.0  0.47351  0.94572  0.12016  1.0000
  H   H3516     1.0  0.42790  0.94972  0.13657  1.0000
  H   H3517     1.0  0.40927  0.74058  0.03003  1.0000
  H   H3518     1.0  0.40789  0.73967  0.04944  1.0000
  H   H3519     1.0  0.39685  0.76596  0.04289  1.0000
  H   H3520     1.0  0.45694  0.57213  0.06753  1.0000
  C   C2052     1.0  0.29104  0.58045  0.01839  1.0000
  H   H3521     1.0  0.40198  0.74442  0.06768  1.0000
  H   H3522     1.0  0.39908  0.75175  0.03441  1.0000
  H   H3523     1.0  0.45570  0.59216  0.04077  1.0000
  Fe  Fe298     1.0  0.45968  0.97742  0.10136  1.0000
  H   H3524     1.0  0.37683  0.91311  0.19464  1.0000
  H   H3525     1.0  0.41968  0.98416  0.14493  1.0000
  H   H3526     1.0  0.38868  0.65000  0.99865  1.0000
  Fe  Fe299     1.0  0.48470  0.62252  0.02735  1.0000
  H   H3527     1.0  0.26037  0.57648  0.02717  1.0000
  H   H3528     1.0  0.41961  0.95912  0.20894  1.0000
  C   C2053     1.0  0.46692  0.69793  0.06650  1.0000
  H   H3529     1.0  0.28062  0.59051  0.00766  1.0000
  S   S621      1.0  0.47008  0.96077  0.09977  1.0000
  C   C2054     1.0  0.47966  0.94083  0.07592  1.0000
  N   N145      1.0  0.41151  0.75541  0.04776  1.0000
  H   H3530     1.0  0.46544  0.95968  0.12912  1.0000
  H   H3531     1.0  0.36265  0.92318  0.20538  1.0000
  C   C2055     1.0  0.41062  0.74347  0.06750  1.0000
  H   H3532     1.0  0.38555  0.93577  0.22313  1.0000
  C   C2056     1.0  0.25965  0.49474  0.01843  1.0000
  Fe  Fe300     1.0  0.25702  0.53210  0.00108  1.0000
  H   H3533     1.0  0.37198  0.91704  0.21412  1.0000
  H   H3534     1.0  0.40572  0.87493  0.09702  1.0000
  H   H3535     1.0  0.36705  0.95948  0.14500  1.0000
  C   C2057     1.0  0.41355  0.97682  0.20444  1.0000
  S   S622      1.0  0.46348  0.92061  0.01612  1.0000
  H   H3536     1.0  0.44089  0.75947  0.99073  1.0000
  H   H3537     1.0  0.41450  0.88243  0.08638  1.0000
  H   H3538     1.0  0.38085  0.92327  0.18241  1.0000
  H   H3539     1.0  0.46877  0.60771  0.98714  1.0000
  H   H3540     1.0  0.38132  0.92394  0.22289  1.0000
  C   C2058     1.0  0.35932  0.79553  0.99852  1.0000
  H   H3541     1.0  0.35154  0.79593  0.99654  1.0000
  H   H3542     1.0  0.38070  0.64878  0.98550  1.0000
  C   C2059     1.0  0.48128  0.96435  0.13393  1.0000
  H   H3543     1.0  0.48265  0.92324  0.08197  1.0000
  H   H3544     1.0  0.36352  0.96608  0.15638  1.0000
  C   C2060     1.0  0.46419  0.94002  0.13685  1.0000
  H   H3545     1.0  0.44030  0.88503  0.01324  1.0000
  H   H3546     1.0  0.29858  0.54738  0.00294  1.0000
  C   C2061     1.0  0.40592  0.88181  0.08967  1.0000
  H   H3547     1.0  0.41368  0.83855  0.99044  1.0000
  N   N146      1.0  0.39869  0.90281  0.08417  1.0000
  H   H3548     1.0  0.40709  0.64896  0.99035  1.0000
  C   C2062     1.0  0.44676  0.89731  0.01580  1.0000
  C   C2063     1.0  0.48367  0.85049  0.04399  1.0000
  H   H3549     1.0  0.45980  0.96637  0.21741  1.0000
  H   H3550     1.0  0.47113  0.85180  0.02087  1.0000
  H   H3551     1.0  0.48511  0.84742  0.98777  1.0000
  C   C2064     1.0  0.29301  0.49673  0.03572  1.0000
  H   H3552     1.0  0.39147  0.66246  0.99909  1.0000
  H   H3553     1.0  0.26548  0.58708  0.01709  1.0000
  H   H3554     1.0  0.45156  0.58529  0.06008  1.0000
  N   N147      1.0  0.29555  0.50281  0.05198  1.0000
  C   C2065     1.0  0.44689  0.89818  0.99181  1.0000
  H   H3555     1.0  0.44163  0.97166  0.13529  1.0000
  C   C2066     1.0  0.39617  0.84420  0.99667  1.0000
  H   H3556     1.0  0.39644  0.97250  0.13138  1.0000
  H   H3557     1.0  0.47284  0.97062  0.14852  1.0000
  H   H3558     1.0  0.39027  0.89103  0.09657  1.0000
  H   H3559     1.0  0.35734  0.79761  0.00670  1.0000
  S   S623      1.0  0.37710  0.96643  0.20441  1.0000
  H   H3560     1.0  0.41710  0.75827  0.06078  1.0000
  C   C2067     1.0  0.40793  0.74830  0.03279  1.0000
  H   H3561     1.0  0.46253  0.69987  0.07459  1.0000
  H   H3562     1.0  0.41868  0.91844  0.07378  1.0000
  C   C2068     1.0  0.45379  0.62645  0.00059  1.0000
  H   H3563     1.0  0.47340  0.69774  0.99796  1.0000
  C   C2069     1.0  0.30666  0.51721  0.04961  1.0000
  H   H3564     1.0  0.47203  0.93504  0.05155  1.0000
  N   N148      1.0  0.43664  0.89979  0.00056  1.0000
  C   C2070     1.0  0.30240  0.53338  0.02390  1.0000
  H   H3565     1.0  0.37637  0.73695  0.98956  1.0000
  C   C2071     1.0  0.26399  0.57884  0.01826  1.0000
  H   H3566     1.0  0.46268  0.62500  0.99719  1.0000
  S   S624      1.0  0.26938  0.54180  0.99860  1.0000
  H   H3567     1.0  0.41791  0.77013  0.04331  1.0000
  C   C2072     1.0  0.41761  0.76358  0.03949  1.0000
  C   C2073     1.0  0.43006  0.68863  0.02665  1.0000
  C   C2074     1.0  0.45387  0.68021  0.01154  1.0000
  S   S625      1.0  0.28566  0.52700  0.02075  1.0000
  H   H3568     1.0  0.31856  0.53736  0.99639  1.0000
  H   H3569     1.0  0.38017  0.90458  0.07327  1.0000
  C   C2075     1.0  0.45560  0.68221  0.02198  1.0000
  H   H3570     1.0  0.44785  0.94534  0.12611  1.0000
  C   C2076     1.0  0.47903  0.68252  0.03552  1.0000
  H   H3571     1.0  0.39876  0.95282  0.20465  1.0000
  H   H3572     1.0  0.47148  0.95419  0.05214  1.0000
  C   C2077     1.0  0.40944  0.90585  0.08212  1.0000
  H   H3573     1.0  0.46066  0.67346  0.00897  1.0000
  H   H3574     1.0  0.40328  0.75639  0.00984  1.0000
  N   N149      1.0  0.45415  0.94915  0.13794  1.0000
  H   H3575     1.0  0.41203  0.75409  0.02601  1.0000
  H   H3576     1.0  0.39186  0.59319  0.98799  1.0000
  H   H3577     1.0  0.43692  0.88146  0.99143  1.0000
  H   H3578     1.0  0.41131  0.90594  0.08992  1.0000
  H   H3579     1.0  0.38469  0.89151  0.08190  1.0000
  H   H3580     1.0  0.28476  0.51781  0.05606  1.0000
  H   H3581     1.0  0.36399  0.67185  0.99384  1.0000
  H   H3582     1.0  0.46402  0.68325  0.02032  1.0000
  H   H3583     1.0  0.45471  0.67530  0.02917  1.0000
  H   H3584     1.0  0.45031  0.69000  0.02396  1.0000
  H   H3585     1.0  0.28449  0.51577  0.04331  1.0000
  H   H3586     1.0  0.29969  0.52437  0.04973  1.0000
  H   H3587     1.0  0.43321  0.76581  0.02887  1.0000
  C   C2078     1.0  0.48572  0.68650  0.03946  1.0000
  H   H3588     1.0  0.44626  0.96865  0.21626  1.0000
  C   C2079     1.0  0.44807  0.94019  0.15848  1.0000
  C   C2080     1.0  0.38608  0.96007  0.23326  1.0000
  C   C2081     1.0  0.47329  0.69771  0.98946  1.0000
  H   H3589     1.0  0.42057  0.75995  0.99539  1.0000
  H   H3590     1.0  0.44376  0.90552  0.01788  1.0000
  H   H3591     1.0  0.45383  0.64210  0.00340  1.0000
  H   H3592     1.0  0.37970  0.97791  0.11395  1.0000
  S   S626      1.0  0.25342  0.57191  0.99524  1.0000
  H   H3593     1.0  0.35769  0.95467  0.18976  1.0000
  C   C2082     1.0  0.43650  0.62254  0.00079  1.0000
  H   H3594     1.0  0.40279  0.77023  0.00237  1.0000
  H   H3595     1.0  0.43894  0.91521  0.00201  1.0000
  C   C2083     1.0  0.47273  0.58971  0.04194  1.0000
  C   C2084     1.0  0.40724  0.74547  0.98721  1.0000
  H   H3596     1.0  0.43976  0.67639  0.09294  1.0000
  H   H3597     1.0  0.33971  0.60831  0.99134  1.0000
  S   S627      1.0  0.47342  0.65607  0.99875  1.0000
  C   C2085     1.0  0.24752  0.51659  0.99166  1.0000
  H   H3598     1.0  0.45507  0.68780  0.00522  1.0000
  C   C2086     1.0  0.48295  0.63614  0.99360  1.0000
  H   H3599     1.0  0.46563  0.58532  0.03103  1.0000
  H   H3600     1.0  0.46481  0.94974  0.21292  1.0000
  H   H3601     1.0  0.29116  0.55635  0.99303  1.0000
  H   H3602     1.0  0.45215  0.97057  0.08982  1.0000
  C   C2087     1.0  0.39742  0.90117  0.07361  1.0000
  H   H3603     1.0  0.39070  0.91205  0.18761  1.0000
  C   C2088     1.0  0.45679  0.95967  0.13027  1.0000
  C   C2089     1.0  0.41638  0.75134  0.05776  1.0000
  H   H3604     1.0  0.37477  0.84460  0.00136  1.0000
  H   H3605     1.0  0.40557  0.72839  0.99209  1.0000
  H   H3606     1.0  0.48230  0.83447  0.04337  1.0000
  H   H3607     1.0  0.35981  0.81207  0.98973  1.0000
  H   H3608     1.0  0.38938  0.90841  0.10555  1.0000
  C   C2090     1.0  0.39604  0.86822  0.99641  1.0000
  H   H3609     1.0  0.45446  0.68597  0.08341  1.0000
  C   C2091     1.0  0.36011  0.94897  0.19726  1.0000
  H   H3610     1.0  0.47442  0.75878  0.04551  1.0000
  C   C2092     1.0  0.38921  0.60204  0.98578  1.0000
  H   H3611     1.0  0.35137  0.92754  0.22108  1.0000
  C   C2093     1.0  0.46777  0.66255  0.06826  1.0000
  N   N150      1.0  0.44850  0.62050  0.99579  1.0000
  H   H3612     1.0  0.30349  0.51211  0.03674  1.0000
  C   C2094     1.0  0.38312  0.85195  0.98468  1.0000
  H   H3613     1.0  0.45791  0.95230  0.15181  1.0000
  H   H3614     1.0  0.36759  0.93605  0.18882  1.0000
  C   C2095     1.0  0.47738  0.92782  0.06671  1.0000
  C   C2096     1.0  0.42973  0.91945  0.98970  1.0000
  H   H3615     1.0  0.31461  0.49456  0.06155  1.0000
  C   C2097     1.0  0.46557  0.60460  0.99598  1.0000
  C   C2098     1.0  0.39033  0.65801  0.99343  1.0000
  H   H3616     1.0  0.46090  0.92306  0.99407  1.0000
  H   H3617     1.0  0.48355  0.77753  0.98882  1.0000
  H   H3618     1.0  0.45177  0.90417  0.99120  1.0000
  H   H3619     1.0  0.43450  0.75432  0.04010  1.0000
  Fe  Fe301     1.0  0.47733  0.97565  0.19269  1.0000
  S   S628      1.0  0.25815  0.52366  0.01838  1.0000
  C   C2099     1.0  0.29146  0.55424  0.00184  1.0000
  C   C2100     1.0  0.44204  0.66702  0.02032  1.0000
  C   C2101     1.0  0.45584  0.95227  0.21541  1.0000
  H   H3620     1.0  0.43271  0.61464  0.98961  1.0000
  H   H3621     1.0  0.48627  0.83646  0.02411  1.0000
  C   C2102     1.0  0.48265  0.89657  0.00075  1.0000
  C   C2103     1.0  0.41068  0.91694  0.07415  1.0000
  Fe  Fe302     1.0  0.38542  0.96567  0.18689  1.0000
  C   C2104     1.0  0.37913  0.93803  0.20872  1.0000
  C   C2105     1.0  0.47382  0.94745  0.05871  1.0000
  H   H3622     1.0  0.45252  0.70066  0.06075  1.0000
  H   H3623     1.0  0.36153  0.65737  0.98725  1.0000
  C   C2106     1.0  0.35920  0.92989  0.21980  1.0000
  H   H3624     1.0  0.42286  0.88224  0.99633  1.0000
  N   N151      1.0  0.44568  0.92735  0.09293  1.0000
  C   C2107     1.0  0.44519  0.93527  0.09975  1.0000
  C   C2108     1.0  0.43433  0.92574  0.09495  1.0000
  C   C2109     1.0  0.44931  0.93270  0.08105  1.0000
  C   C2110     1.0  0.42946  0.92038  0.10684  1.0000
  C   C2111     1.0  0.44846  0.92718  0.07238  1.0000
  H   H3625     1.0  0.43850  0.94265  0.09845  1.0000
  H   H3626     1.0  0.44327  0.93148  0.10867  1.0000
  H   H3627     1.0  0.43364  0.92076  0.08963  1.0000
  H   H3628     1.0  0.42872  0.93378  0.09265  1.0000
  H   H3629     1.0  0.44470  0.94135  0.07921  1.0000
  H   H3630     1.0  0.42155  0.91874  0.10709  1.0000
  H   H3631     1.0  0.43472  0.91241  0.10988  1.0000
  H   H3632     1.0  0.42775  0.92595  0.11250  1.0000
  H   H3633     1.0  0.43995  0.92769  0.07229  1.0000
  H   H3634     1.0  0.45314  0.91862  0.07313  1.0000
  H   H3635     1.0  0.45380  0.89935  0.09979  1.0000
  N   N152      1.0  0.42660  0.84165  0.03959  1.0000
  C   C2112     1.0  0.42778  0.84707  0.04796  1.0000
  C   C2113     1.0  0.43701  0.84117  0.03096  1.0000
  C   C2114     1.0  0.42538  0.83011  0.04540  1.0000
  C   C2115     1.0  0.41676  0.84815  0.03503  1.0000
  C   C2116     1.0  0.41817  0.84819  0.05791  1.0000
  C   C2117     1.0  0.43977  0.85234  0.02454  1.0000
  C   C2118     1.0  0.42408  0.82287  0.03848  1.0000
  C   C2119     1.0  0.41632  0.84681  0.02367  1.0000
  H   H3636     1.0  0.43517  0.84260  0.05125  1.0000
  H   H3637     1.0  0.42896  0.85554  0.04414  1.0000
  H   H3638     1.0  0.43720  0.83672  0.02483  1.0000
  H   H3639     1.0  0.44397  0.83632  0.03476  1.0000
  H   H3640     1.0  0.43244  0.82559  0.04923  1.0000
  H   H3641     1.0  0.41809  0.83020  0.05223  1.0000
  H   H3642     1.0  0.40926  0.84619  0.04093  1.0000
  H   H3643     1.0  0.41596  0.85709  0.03418  1.0000
  H   H3644     1.0  0.41959  0.85340  0.06263  1.0000
  H   H3645     1.0  0.41037  0.85231  0.05541  1.0000
  H   H3646     1.0  0.41758  0.84015  0.06364  1.0000
  H   H3647     1.0  0.44274  0.85600  0.02960  1.0000
  H   H3648     1.0  0.44646  0.85103  0.01730  1.0000
  H   H3649     1.0  0.43284  0.85826  0.02147  1.0000
  H   H3650     1.0  0.41626  0.82595  0.03582  1.0000
  H   H3651     1.0  0.42389  0.81449  0.04366  1.0000
  H   H3652     1.0  0.43093  0.82183  0.03137  1.0000
  H   H3653     1.0  0.40798  0.84628  0.02391  1.0000
  H   H3654     1.0  0.42178  0.83944  0.02096  1.0000
  H   H3655     1.0  0.41784  0.85424  0.01724  1.0000
  C   C2120     1.0  0.45368  0.90648  0.09267  1.0000
  H   H3656     1.0  0.37226  0.96937  0.22638  1.0000
  S   S629      1.0  0.45912  0.83576  0.04726  1.0000
  H   H3657     1.0  0.28469  0.50175  0.03568  1.0000
  H   H3658     1.0  0.45384  0.80179  0.98803  1.0000
  H   H3659     1.0  0.43220  0.96858  0.23194  1.0000
  H   H3660     1.0  0.47334  0.82449  0.99713  1.0000
  C   C2121     1.0  0.47754  0.90296  0.00862  1.0000
  H   H3661     1.0  0.36104  0.97739  0.11654  1.0000
  H   H3662     1.0  0.44668  0.90698  0.08936  1.0000
  H   H3663     1.0  0.45130  0.79023  0.99871  1.0000
  C   C2122     1.0  0.38981  0.91522  0.09817  1.0000
  H   H3664     1.0  0.44985  0.60350  0.99558  1.0000
  C   C2123     1.0  0.44538  0.94607  0.13483  1.0000
  C   C2124     1.0  0.36646  0.72037  0.99198  1.0000
  C   C2125     1.0  0.36062  0.60286  0.00494  1.0000
  C   C2126     1.0  0.46662  0.84517  0.04696  1.0000
  S   S630      1.0  0.47731  0.91412  0.06705  1.0000
  H   H3665     1.0  0.40226  0.77527  0.05509  1.0000
  C   C2127     1.0  0.39861  0.89245  0.09306  1.0000
  N   N153      1.0  0.35406  0.88600  0.04941  1.0000
  C   C2128     1.0  0.45375  0.91688  0.09627  1.0000
  H   H3666     1.0  0.47395  0.57486  0.06002  1.0000
  C   C2129     1.0  0.29423  0.52179  0.98750  1.0000
  N   N154      1.0  0.35234  0.60044  0.00044  1.0000
  H   H3667     1.0  0.47560  0.65724  0.07002  1.0000
  H   H3668     1.0  0.43112  0.65597  0.02875  1.0000
  C   C2130     1.0  0.35430  0.89113  0.03740  1.0000
  H   H3669     1.0  0.36008  0.66026  0.01134  1.0000
  H   H3670     1.0  0.45286  0.91460  0.10535  1.0000
  H   H3671     1.0  0.36405  0.53160  0.98669  1.0000
  H   H3672     1.0  0.39947  0.74651  0.99338  1.0000
  H   H3673     1.0  0.29279  0.58806  0.01916  1.0000
  H   H3674     1.0  0.43107  0.87828  0.00617  1.0000
  Fe  Fe303     1.0  0.47650  0.96899  0.08245  1.0000
  C   C2131     1.0  0.39629  0.95302  0.23147  1.0000
  Fe  Fe304     1.0  0.46632  0.91081  0.03277  1.0000
  C   C2132     1.0  0.34501  0.59393  0.00934  1.0000
  H   H3675     1.0  0.33936  0.59168  0.00577  1.0000
  C   C2133     1.0  0.40002  0.66572  0.04427  1.0000
  H   H3676     1.0  0.34970  0.88735  0.03402  1.0000
  H   H3677     1.0  0.33134  0.88262  0.07093  1.0000
  Fe  Fe305     1.0  0.47180  0.90834  0.05487  1.0000
  H   H3678     1.0  0.40449  0.68150  0.98724  1.0000
  S   S631      1.0  0.39410  0.97882  0.17661  1.0000
  H   H3679     1.0  0.37316  0.87955  0.05989  1.0000
  H   H3680     1.0  0.45788  0.93325  0.07927  1.0000
  H   H3681     1.0  0.46112  0.90440  0.08633  1.0000
  C   C2134     1.0  0.38305  0.91797  0.19014  1.0000
  C   C2135     1.0  0.34549  0.61062  0.99468  1.0000
  C   C2136     1.0  0.35713  0.61292  0.01031  1.0000
  H   H3682     1.0  0.35985  0.61050  0.01819  1.0000
  H   H3683     1.0  0.36136  0.61952  0.00511  1.0000
  H   H3684     1.0  0.48524  0.78130  0.01731  1.0000
  H   H3685     1.0  0.35439  0.89958  0.05599  1.0000
  C   C2137     1.0  0.45556  0.93953  0.09774  1.0000
  C   C2138     1.0  0.43427  0.95418  0.13570  1.0000
  C   C2139     1.0  0.43817  0.95468  0.02883  1.0000
  Fe  Fe306     1.0  0.48145  0.64250  0.03661  1.0000
  H   H3686     1.0  0.43178  0.95764  0.14310  1.0000
  H   H3687     1.0  0.39436  0.75521  0.05425  1.0000
  H   H3688     1.0  0.45434  0.94465  0.10373  1.0000
  H   H3689     1.0  0.46276  0.93278  0.09886  1.0000
  H   H3690     1.0  0.30265  0.53769  0.98832  1.0000
  H   H3691     1.0  0.38849  0.77395  0.05839  1.0000
  H   H3692     1.0  0.35390  0.90841  0.03723  1.0000
  H   H3693     1.0  0.44417  0.95718  0.15113  1.0000
  H   H3694     1.0  0.46217  0.91820  0.09307  1.0000
  C   C2140     1.0  0.33808  0.59939  0.01889  1.0000
  H   H3695     1.0  0.33310  0.59368  0.02471  1.0000
  H   H3696     1.0  0.48187  0.94239  0.08267  1.0000
  C   C2141     1.0  0.34969  0.90366  0.03454  1.0000
  C   C2142     1.0  0.47947  0.77557  0.99761  1.0000
  C   C2143     1.0  0.38482  0.96158  0.21453  1.0000
  H   H3697     1.0  0.44131  0.93242  0.03526  1.0000
  H   H3698     1.0  0.45571  0.96032  0.12190  1.0000
  H   H3699     1.0  0.34021  0.61584  0.00038  1.0000
  H   H3700     1.0  0.33235  0.60710  0.01619  1.0000
  H   H3701     1.0  0.34834  0.61641  0.01228  1.0000
  C   C2144     1.0  0.34237  0.88724  0.05544  1.0000
  C   C2145     1.0  0.34023  0.88154  0.06768  1.0000
  H   H3702     1.0  0.35095  0.90644  0.02546  1.0000
  H   H3703     1.0  0.34321  0.88537  0.07254  1.0000
  H   H3704     1.0  0.45727  0.94497  0.08948  1.0000
  H   H3705     1.0  0.29876  0.57418  0.01826  1.0000
  C   C2146     1.0  0.46793  0.86946  0.01792  1.0000
  H   H3706     1.0  0.48573  0.83990  0.00545  1.0000
  H   H3707     1.0  0.39709  0.91846  0.09695  1.0000
  C   C2147     1.0  0.43296  0.93717  0.03792  1.0000
  H   H3708     1.0  0.45301  0.94216  0.02426  1.0000
  C   C2148     1.0  0.36638  0.97025  0.12087  1.0000
  C   C2149     1.0  0.48112  0.59508  0.05355  1.0000
  C   C2150     1.0  0.31021  0.50668  0.00533  1.0000
  H   H3709     1.0  0.39194  0.87628  0.99861  1.0000
  H   H3710     1.0  0.38268  0.92198  0.09995  1.0000
  C   C2151     1.0  0.27424  0.57002  0.01524  1.0000
  C   C2152     1.0  0.47655  0.94961  0.06751  1.0000
  C   C2153     1.0  0.40811  0.84184  0.99748  1.0000
  H   H3711     1.0  0.43642  0.96356  0.02892  1.0000
  H   H3712     1.0  0.41848  0.95041  0.05238  1.0000
  C   C2154     1.0  0.40337  0.76178  0.00155  1.0000
  H   H3713     1.0  0.34318  0.60074  0.02366  1.0000
  H   H3714     1.0  0.33778  0.88413  0.05138  1.0000
  H   H3715     1.0  0.45282  0.97142  0.14098  1.0000
  H   H3716     1.0  0.36820  0.65058  0.00309  1.0000
  C   C2155     1.0  0.39973  0.76116  0.05050  1.0000
  C   C2156     1.0  0.47725  0.64682  0.99009  1.0000
  H   H3717     1.0  0.47205  0.87645  0.01497  1.0000
  C   C2157     1.0  0.44423  0.98196  0.23161  1.0000
  H   H3718     1.0  0.44847  0.89134  0.02344  1.0000
  C   C2158     1.0  0.46972  0.91255  0.00624  1.0000
  H   H3719     1.0  0.31903  0.51923  0.00268  1.0000
  H   H3720     1.0  0.40127  0.89323  0.10017  1.0000
  H   H3721     1.0  0.33837  0.89606  0.05509  1.0000
  H   H3722     1.0  0.34085  0.90585  0.03789  1.0000
  H   H3723     1.0  0.43209  0.92637  0.05450  1.0000
  H   H3724     1.0  0.40757  0.97385  0.20206  1.0000
  H   H3725     1.0  0.39965  0.67173  0.03635  1.0000
  H   H3726     1.0  0.34368  0.87257  0.06909  1.0000
  N   N155      1.0  0.43320  0.94809  0.03969  1.0000
  C   C2159     1.0  0.42195  0.95439  0.04381  1.0000
  H   H3727     1.0  0.40587  0.96115  0.04045  1.0000
  H   H3728     1.0  0.39775  0.67834  0.05306  1.0000
  H   H3729     1.0  0.37665  0.67706  0.08354  1.0000
  H   H3730     1.0  0.45065  0.60544  0.00829  1.0000
  H   H3731     1.0  0.43040  0.89578  0.01810  1.0000
  C   C2160     1.0  0.42742  0.92947  0.04794  1.0000
  H   H3732     1.0  0.42709  0.92214  0.04533  1.0000
  H   H3733     1.0  0.45648  0.67985  0.05187  1.0000
  H   H3734     1.0  0.39698  0.66502  0.06139  1.0000
  C   C2161     1.0  0.46105  0.85548  0.04921  1.0000
  H   H3735     1.0  0.32956  0.50093  0.99101  1.0000
  H   H3736     1.0  0.36195  0.92610  0.22762  1.0000
  C   C2162     1.0  0.39426  0.67109  0.05421  1.0000
  C   C2163     1.0  0.41368  0.95612  0.03679  1.0000
  H   H3737     1.0  0.42219  0.96271  0.04439  1.0000
  H   H3738     1.0  0.41630  0.96060  0.02825  1.0000
  C   C2164     1.0  0.44344  0.67592  0.00106  1.0000
  C   C2165     1.0  0.45052  0.97061  0.13369  1.0000
  H   H3739     1.0  0.39680  0.65860  0.04453  1.0000
  H   H3740     1.0  0.44570  0.94227  0.16669  1.0000
  C   C2166     1.0  0.45682  0.58102  0.06597  1.0000
  H   H3741     1.0  0.40064  0.98487  0.12350  1.0000
  H   H3742     1.0  0.45270  0.97756  0.12693  1.0000
  H   H3743     1.0  0.41898  0.93334  0.05137  1.0000
  C   C2167     1.0  0.38147  0.67299  0.07669  1.0000
  H   H3744     1.0  0.38143  0.68758  0.06375  1.0000
  H   H3745     1.0  0.40875  0.66255  0.04441  1.0000
  H   H3746     1.0  0.37992  0.66461  0.07874  1.0000
  H   H3747     1.0  0.45230  0.85740  0.05140  1.0000
  H   H3748     1.0  0.41195  0.94824  0.03679  1.0000
  C   C2168     1.0  0.36738  0.92513  0.21021  1.0000
  C   C2169     1.0  0.46746  0.67454  0.06828  1.0000
  H   H3749     1.0  0.44928  0.66813  0.99951  1.0000
  H   H3750     1.0  0.38155  0.96760  0.14210  1.0000
  H   H3751     1.0  0.40447  0.92392  0.07686  1.0000
  C   C2170     1.0  0.37823  0.67998  0.06589  1.0000
  H   H3752     1.0  0.38301  0.68959  0.04426  1.0000
  H   H3753     1.0  0.39012  0.67243  0.07634  1.0000
  C   C2171     1.0  0.43971  0.94607  0.04819  1.0000
  N   N156      1.0  0.38203  0.67437  0.05633  1.0000
  C   C2172     1.0  0.43001  0.88375  0.99813  1.0000
  H   H3754     1.0  0.44286  0.66703  0.02854  1.0000
  H   H3755     1.0  0.29372  0.58512  0.00076  1.0000
  H   H3756     1.0  0.43573  0.94146  0.05617  1.0000
  H   H3757     1.0  0.44781  0.94059  0.04613  1.0000
  H   H3758     1.0  0.42091  0.74090  0.04155  1.0000
  H   H3759     1.0  0.39109  0.84492  0.00498  1.0000
  H   H3760     1.0  0.38275  0.65700  0.06313  1.0000
  C   C2173     1.0  0.45118  0.68016  0.06020  1.0000
  H   H3761     1.0  0.44943  0.67185  0.06362  1.0000
  H   H3762     1.0  0.27803  0.59485  0.99015  1.0000
  C   C2174     1.0  0.47927  0.68659  0.98640  1.0000
  C   C2175     1.0  0.47806  0.86102  0.04565  1.0000
  C   C2176     1.0  0.45114  0.95026  0.14973  1.0000
  H   H3763     1.0  0.26912  0.50380  0.99703  1.0000
  C   C2177     1.0  0.30701  0.53980  0.02756  1.0000
  C   C2178     1.0  0.37906  0.68252  0.04623  1.0000
  C   C2179     1.0  0.37767  0.66420  0.05850  1.0000
  H   H3764     1.0  0.36934  0.68297  0.06783  1.0000
  H   H3765     1.0  0.38210  0.67874  0.03897  1.0000
  H   H3766     1.0  0.41996  0.80310  0.98521  1.0000
  C   C2180     1.0  0.29284  0.56400  0.00549  1.0000
  C   C2181     1.0  0.46676  0.86339  0.04849  1.0000
  S   S632      1.0  0.25770  0.52399  0.98784  1.0000
  H   H3767     1.0  0.43436  0.95925  0.05737  1.0000
  H   H3768     1.0  0.38127  0.86321  0.99994  1.0000
  H   H3769     1.0  0.44622  0.71156  0.98508  1.0000
  H   H3770     1.0  0.27577  0.54355  0.03393  1.0000
  H   H3771     1.0  0.47451  0.59694  0.03525  1.0000
  H   H3772     1.0  0.37423  0.71421  0.99146  1.0000
  H   H3773     1.0  0.37834  0.66202  0.05062  1.0000
  N   N157      1.0  0.45700  0.68300  0.06719  1.0000
  C   C2182     1.0  0.45989  0.69395  0.06133  1.0000
  H   H3774     1.0  0.43412  0.68803  0.06649  1.0000
  H   H3775     1.0  0.45271  0.64296  0.98991  1.0000
  C   C2183     1.0  0.44118  0.95640  0.05080  1.0000
  H   H3776     1.0  0.44187  0.96332  0.04360  1.0000
  C   C2184     1.0  0.28448  0.54248  0.03216  1.0000
  C   C2185     1.0  0.44018  0.68790  0.05863  1.0000
  H   H3777     1.0  0.43682  0.68492  0.05334  1.0000
  H   H3778     1.0  0.41907  0.97982  0.19663  1.0000
  H   H3779     1.0  0.46969  0.60709  0.00099  1.0000
  H   H3780     1.0  0.35656  0.98567  0.13143  1.0000
  C   C2186     1.0  0.46198  0.60256  0.05373  1.0000
  C   C2187     1.0  0.28699  0.58285  0.00772  1.0000
  H   H3781     1.0  0.30860  0.51410  0.05784  1.0000
  C   C2188     1.0  0.36692  0.68731  0.04654  1.0000
  C   C2189     1.0  0.36583  0.66454  0.06504  1.0000
  H   H3782     1.0  0.36285  0.69177  0.05322  1.0000
  H   H3783     1.0  0.36270  0.68091  0.04688  1.0000
  H   H3784     1.0  0.36565  0.65990  0.07366  1.0000
  H   H3785     1.0  0.46468  0.69921  0.98911  1.0000
  C   C2190     1.0  0.46997  0.93860  0.12506  1.0000
  H   H3786     1.0  0.44888  0.95440  0.05361  1.0000
  C   C2191     1.0  0.47417  0.93661  0.05834  1.0000
  H   H3787     1.0  0.36053  0.67279  0.06495  1.0000
  H   H3788     1.0  0.46410  0.60944  0.04678  1.0000
  H   H3789     1.0  0.41087  0.74511  0.07536  1.0000
  C   C2192     1.0  0.31211  0.51840  0.99990  1.0000
  C   C2193     1.0  0.30476  0.50818  0.04518  1.0000
  H   H3790     1.0  0.46232  0.93192  0.14145  1.0000
  Fe  Fe307     1.0  0.47491  0.88807  0.04570  1.0000
  H   H3791     1.0  0.46247  0.87137  0.05005  1.0000
  C   C2194     1.0  0.28508  0.51132  0.05185  1.0000
  N   N158      1.0  0.38096  0.66450  0.98808  1.0000
  H   H3792     1.0  0.36607  0.69342  0.03872  1.0000
  H   H3793     1.0  0.36203  0.66010  0.06147  1.0000
  C   C2195     1.0  0.44992  0.68421  0.07830  1.0000
  N   N159      1.0  0.37399  0.98078  0.13045  1.0000
  C   C2196     1.0  0.44525  0.67421  0.08527  1.0000
  H   H3794     1.0  0.30766  0.52732  0.01941  1.0000
  H   H3795     1.0  0.38922  0.91843  0.20347  1.0000
  H   H3796     1.0  0.43539  0.67498  0.00075  1.0000
  C   C2197     1.0  0.38938  0.91175  0.08790  1.0000
  H   H3797     1.0  0.40868  0.94487  0.21977  1.0000
  H   H3798     1.0  0.31572  0.53869  0.02579  1.0000
  H   H3799     1.0  0.28493  0.57790  0.02582  1.0000
  H   H3800     1.0  0.44299  0.69142  0.07743  1.0000
  H   H3801     1.0  0.44035  0.67177  0.08106  1.0000
  H   H3802     1.0  0.45172  0.66715  0.08780  1.0000
  N   N160      1.0  0.44318  0.67771  0.01216  1.0000
  C   C2198     1.0  0.41238  0.74563  0.04324  1.0000
  H   H3803     1.0  0.36419  0.78700  0.99936  1.0000
  H   H3804     1.0  0.43132  0.60708  0.00370  1.0000
  H   H3805     1.0  0.41798  0.96555  0.21990  1.0000
  H   H3806     1.0  0.36164  0.95413  0.20191  1.0000
  H   H3807     1.0  0.44040  0.85600  0.98862  1.0000
  H   H3808     1.0  0.42490  0.74672  0.05565  1.0000
  H   H3809     1.0  0.44418  0.93771  0.13939  1.0000
  C   C2199     1.0  0.27991  0.57685  0.99509  1.0000
  H   H3810     1.0  0.42979  0.75364  0.02850  1.0000
  H   H3811     1.0  0.38155  0.90920  0.08981  1.0000
  H   H3812     1.0  0.46568  0.61078  0.06454  1.0000
  Fe  Fe308     1.0  0.25517  0.55444  0.00456  1.0000
  H   H3813     1.0  0.45112  0.87998  0.99896  1.0000
  C   C2200     1.0  0.42040  0.96663  0.21087  1.0000
  S   S633      1.0  0.47129  0.98263  0.10748  1.0000
  C   C2201     1.0  0.31823  0.54012  0.98758  1.0000
  S   S634      1.0  0.47618  0.96336  0.06752  1.0000
  S   S635      1.0  0.48522  0.87127  0.04364  1.0000
  C   C2202     1.0  0.30770  0.49046  0.06530  1.0000
  C   C2203     1.0  0.42942  0.75889  0.03406  1.0000
  H   H3814     1.0  0.35309  0.94524  0.20187  1.0000
  H   H3815     1.0  0.27533  0.57105  0.99464  1.0000
  C   C2204     1.0  0.29113  0.53486  0.02596  1.0000
  C   C2205     1.0  0.37134  0.66742  0.99710  1.0000
  H   H3816     1.0  0.42009  0.89799  0.00423  1.0000
  H   H3817     1.0  0.41332  0.76806  0.03271  1.0000
  H   H3818     1.0  0.45273  0.62321  0.00963  1.0000
  C   C2206     1.0  0.43819  0.89409  0.01202  1.0000
  H   H3819     1.0  0.39756  0.76488  0.06664  1.0000
  H   H3820     1.0  0.39115  0.92947  0.19192  1.0000
  H   H3821     1.0  0.46200  0.88712  0.99562  1.0000
  H   H3822     1.0  0.40460  0.89543  0.06986  1.0000
  C   C2207     1.0  0.40081  0.95038  0.22114  1.0000
  S   S636      1.0  0.39782  0.95208  0.18000  1.0000
  H   H3823     1.0  0.42539  0.91338  0.00720  1.0000
  H   H3824     1.0  0.43102  0.69675  0.02700  1.0000
  N   N161      1.0  0.37519  0.93204  0.20271  1.0000
  C   C2208     1.0  0.27461  0.50703  0.05740  1.0000
  C   C2209     1.0  0.37019  0.94024  0.19371  1.0000
  H   H3825     1.0  0.42141  0.61917  0.00002  1.0000
  H   H3826     1.0  0.38657  0.67935  0.98558  1.0000
  H   H3827     1.0  0.37174  0.58342  0.00008  1.0000
  H   H3828     1.0  0.44144  0.79750  0.99052  1.0000
  H   H3829     1.0  0.42833  0.92816  0.99019  1.0000
  C   C2210     1.0  0.45260  0.96261  0.22033  1.0000
  H   H3830     1.0  0.47545  0.68008  0.99248  1.0000
  H   H3831     1.0  0.45257  0.94512  0.22063  1.0000
  H   H3832     1.0  0.31466  0.54906  0.98617  1.0000
  H   H3833     1.0  0.39816  0.86265  0.00406  1.0000
  H   H3834     1.0  0.36460  0.51757  0.98753  1.0000
  C   C2211     1.0  0.38507  0.92463  0.19725  1.0000
  H   H3835     1.0  0.44212  0.69338  0.99220  1.0000
  H   H3836     1.0  0.36564  0.72515  0.99815  1.0000
  H   H3837     1.0  0.37630  0.94469  0.18779  1.0000
  C   C2212     1.0  0.23802  0.50567  0.98695  1.0000
  C   C2213     1.0  0.43704  0.98648  0.17558  1.0000
  H   H3838     1.0  0.31248  0.50193  0.04401  1.0000
  H   H3839     1.0  0.35231  0.59148  0.98864  1.0000
  H   H3840     1.0  0.46784  0.59548  0.99757  1.0000
  H   H3841     1.0  0.43313  0.74765  0.98573  1.0000
  H   H3842     1.0  0.47985  0.90058  0.01646  1.0000
  H   H3843     1.0  0.42206  0.91844  0.98853  1.0000
  C   C2214     1.0  0.41680  0.70136  0.98702  1.0000
  H   H3844     1.0  0.26562  0.59048  0.99798  1.0000
  H   H3845     1.0  0.36752  0.84731  0.99083  1.0000
  C   C2215     1.0  0.47576  0.85892  0.99865  1.0000
  C   C2216     1.0  0.46863  0.58262  0.06223  1.0000
  H   H3846     1.0  0.44012  0.75882  0.00486  1.0000
  C   C2217     1.0  0.39449  0.81866  0.98527  1.0000
  H   H3847     1.0  0.36810  0.85856  0.99580  1.0000
  H   H3848     1.0  0.29888  0.50117  0.02948  1.0000
  C   C2218     1.0  0.45934  0.60678  0.06436  1.0000
  H   H3849     1.0  0.44108  0.64178  0.00148  1.0000
  H   H3850     1.0  0.36519  0.74626  0.98461  1.0000
  C   C2219     1.0  0.47187  0.90904  0.98816  1.0000
  C   C2220     1.0  0.36548  0.80388  0.99000  1.0000
  H   H3851     1.0  0.37213  0.80449  0.99335  1.0000
  C   C2221     1.0  0.39889  0.98246  0.21951  1.0000
  C   C2222     1.0  0.43828  0.85046  0.98479  1.0000
  S   S637      1.0  0.48160  0.96814  0.20923  1.0000
  C   C2223     1.0  0.38857  0.89963  0.98765  1.0000
  H   H3852     1.0  0.35830  0.62020  0.98750  1.0000
  C   C2224     1.0  0.47948  0.97597  0.21900  1.0000
  C   C2225     1.0  0.47314  0.81586  0.98540  1.0000
  S   S638      1.0  0.46531  0.98537  0.08383  1.0000
  H   H3853     1.0  0.46443  0.81818  0.98662  1.0000
  H   H3854     1.0  0.45535  0.68454  0.98877  1.0000
  C   C2226     1.0  0.29570  0.49345  0.04716  1.0000
  C   C2227     1.0  0.35177  0.61816  0.98512  1.0000
  C   C2228     1.0  0.40875  0.73417  0.98461  1.0000
  C   C2229     1.0  0.31737  0.58513  0.98507  1.0000
  H   H3855     1.0  0.28980  0.51711  0.98499  1.0000
  H   H3856     1.0  0.30823  0.50892  0.98459  1.0000
  Fe  Fe309     1.0  0.40896  0.95949  0.36478  1.0000
  S   S639      1.0  0.40796  0.97592  0.35330  1.0000
  S   S640      1.0  0.42497  0.94963  0.36874  1.0000
  Fe  Fe310     1.0  0.38528  0.95979  0.36682  1.0000
  S   S641      1.0  0.38246  0.97615  0.35503  1.0000
  S   S642      1.0  0.37170  0.95072  0.37483  1.0000
  Fe  Fe311     1.0  0.39879  0.96977  0.34490  1.0000
  S   S643      1.0  0.40484  0.97296  0.32639  1.0000
  Fe  Fe312     1.0  0.39184  0.98077  0.36436  1.0000
  C   C2230     1.0  0.46782  0.94501  0.42159  1.0000
  S   S644      1.0  0.40079  0.95289  0.35579  1.0000
  S   S645      1.0  0.39373  0.96485  0.37674  1.0000
  H   H3857     1.0  0.35367  0.97787  0.36368  1.0000
  H   H3858     1.0  0.27096  0.96717  0.47832  1.0000
  H   H3859     1.0  0.40354  0.95235  0.40197  1.0000
  Fe  Fe313     1.0  0.39936  0.95727  0.25493  1.0000
  S   S646      1.0  0.40402  0.97351  0.24809  1.0000
  C   C2231     1.0  0.48488  0.95318  0.42567  1.0000
  Fe  Fe314     1.0  0.39250  0.96069  0.27838  1.0000
  S   S647      1.0  0.39643  0.97727  0.27327  1.0000
  S   S648      1.0  0.38614  0.95487  0.29656  1.0000
  Fe  Fe315     1.0  0.38864  0.98001  0.25924  1.0000
  C   C2232     1.0  0.44373  0.96715  0.38073  1.0000
  Fe  Fe316     1.0  0.41130  0.96934  0.26266  1.0000
  S   S649      1.0  0.42664  0.97422  0.26094  1.0000
  S   S650      1.0  0.38320  0.96405  0.26512  1.0000
  S   S651      1.0  0.40820  0.95241  0.26871  1.0000
  Fe  Fe317     1.0  0.32932  0.95364  0.42915  1.0000
  S   S652      1.0  0.31888  0.95933  0.41679  1.0000
  S   S653      1.0  0.34753  0.95127  0.42435  1.0000
  Fe  Fe318     1.0  0.30800  0.94883  0.42909  1.0000
  S   S654      1.0  0.30105  0.93734  0.42427  1.0000
  Fe  Fe319     1.0  0.30981  0.97214  0.42650  1.0000
  C   C2233     1.0  0.43237  0.97009  0.38283  1.0000
  S   S655      1.0  0.31937  0.94182  0.44066  1.0000
  H   H3860     1.0  0.33282  0.96432  0.37809  1.0000
  H   H3861     1.0  0.40333  0.91307  0.39968  1.0000
  N   N162      1.0  0.47760  0.94662  0.41242  1.0000
  S   S656      1.0  0.25235  0.93174  0.43954  1.0000
  H   H3862     1.0  0.33504  0.97061  0.45138  1.0000
  H   H3863     1.0  0.42556  0.94579  0.31056  1.0000
  S   S657      1.0  0.48379  0.95838  0.34306  1.0000
  C   C2234     1.0  0.39956  0.92563  0.37736  1.0000
  H   H3864     1.0  0.45505  0.95330  0.41209  1.0000
  H   H3865     1.0  0.33439  0.95973  0.39228  1.0000
  H   H3866     1.0  0.44875  0.96913  0.24526  1.0000
  H   H3867     1.0  0.45798  0.95664  0.37314  1.0000
  C   C2235     1.0  0.31258  0.95340  0.47405  1.0000
  C   C2236     1.0  0.45642  0.94182  0.32542  1.0000
  H   H3868     1.0  0.41975  0.91479  0.38845  1.0000
  C   C2237     1.0  0.30411  0.92148  0.45529  1.0000
  H   H3869     1.0  0.45664  0.95646  0.31251  1.0000
  C   C2238     1.0  0.28732  0.93638  0.42862  1.0000
  C   C2239     1.0  0.27911  0.94449  0.43306  1.0000
  C   C2240     1.0  0.26821  0.94345  0.43613  1.0000
  C   C2241     1.0  0.26562  0.93405  0.43511  1.0000
  C   C2242     1.0  0.27391  0.92588  0.43093  1.0000
  C   C2243     1.0  0.28464  0.92711  0.42754  1.0000
  H   H3870     1.0  0.28120  0.95149  0.43413  1.0000
  H   H3871     1.0  0.26189  0.94971  0.43955  1.0000
  H   H3872     1.0  0.27199  0.91858  0.43016  1.0000
  H   H3873     1.0  0.29092  0.92078  0.42415  1.0000
  H   H3874     1.0  0.40559  0.98631  0.28896  1.0000
  H   H3875     1.0  0.29885  0.93787  0.45796  1.0000
  H   H3876     1.0  0.48109  0.95379  0.32390  1.0000
  C   C2244     1.0  0.45747  0.94549  0.41795  1.0000
  Fe  Fe320     1.0  0.47570  0.98586  0.26117  1.0000
  H   H3877     1.0  0.30718  0.92175  0.44634  1.0000
  H   H3878     1.0  0.31115  0.92163  0.45833  1.0000
  C   C2245     1.0  0.23864  0.96569  0.47046  1.0000
  H   H3879     1.0  0.45832  0.93843  0.41434  1.0000
  Fe  Fe321     1.0  0.48073  0.97985  0.28390  1.0000
  C   C2246     1.0  0.44907  0.94844  0.27184  1.0000
  C   C2247     1.0  0.43973  0.95428  0.26778  1.0000
  C   C2248     1.0  0.43473  0.96486  0.26959  1.0000
  C   C2249     1.0  0.43790  0.96879  0.27686  1.0000
  C   C2250     1.0  0.44681  0.96275  0.28133  1.0000
  H   H3880     1.0  0.45371  0.94085  0.26945  1.0000
  H   H3881     1.0  0.43697  0.95099  0.26254  1.0000
  H   H3882     1.0  0.27278  0.94026  0.47630  1.0000
  C   C2251     1.0  0.33978  0.97733  0.39536  1.0000
  H   H3883     1.0  0.26462  0.98537  0.44221  1.0000
  H   H3884     1.0  0.28730  0.91598  0.45123  1.0000
  C   C2252     1.0  0.27551  0.98785  0.47693  1.0000
  C   C2253     1.0  0.36462  0.95145  0.38841  1.0000
  C   C2254     1.0  0.36792  0.95660  0.39463  1.0000
  C   C2255     1.0  0.36277  0.95628  0.40571  1.0000
  C   C2256     1.0  0.35385  0.95137  0.41048  1.0000
  C   C2257     1.0  0.35032  0.94647  0.40420  1.0000
  C   C2258     1.0  0.35581  0.94637  0.39323  1.0000
  H   H3885     1.0  0.37450  0.96075  0.39098  1.0000
  H   H3886     1.0  0.36554  0.96007  0.41054  1.0000
  H   H3887     1.0  0.34352  0.94254  0.40787  1.0000
  H   H3888     1.0  0.35323  0.94231  0.38849  1.0000
  C   C2259     1.0  0.39994  0.96707  0.31856  1.0000
  C   C2260     1.0  0.39077  0.96255  0.32296  1.0000
  C   C2261     1.0  0.38667  0.95863  0.31622  1.0000
  C   C2262     1.0  0.39170  0.95925  0.30507  1.0000
  C   C2263     1.0  0.40104  0.96349  0.30079  1.0000
  C   C2264     1.0  0.40514  0.96737  0.30751  1.0000
  H   H3889     1.0  0.38672  0.96224  0.33149  1.0000
  H   H3890     1.0  0.37948  0.95528  0.31960  1.0000
  H   H3891     1.0  0.40516  0.96371  0.29230  1.0000
  H   H3892     1.0  0.41228  0.97072  0.30403  1.0000
  H   H3893     1.0  0.46970  0.93695  0.42740  1.0000
  C   C2265     1.0  0.42654  0.96493  0.37897  1.0000
  C   C2266     1.0  0.43205  0.95652  0.37334  1.0000
  C   C2267     1.0  0.44339  0.95351  0.37135  1.0000
  H   H3894     1.0  0.41779  0.96733  0.38052  1.0000
  H   H3895     1.0  0.44770  0.94705  0.36696  1.0000
  H   H3896     1.0  0.43550  0.98307  0.23566  1.0000
  H   H3897     1.0  0.39125  0.92496  0.37770  1.0000
  H   H3898     1.0  0.27897  0.97753  0.46439  1.0000
  C   C2268     1.0  0.35022  0.97611  0.37266  1.0000
  H   H3899     1.0  0.33452  0.97497  0.40359  1.0000
  Fe  Fe322     1.0  0.47076  0.96498  0.27746  1.0000
  S   S658      1.0  0.23952  0.96337  0.43537  1.0000
  S   S659      1.0  0.48081  0.95766  0.37372  1.0000
  H   H3900     1.0  0.43500  0.94339  0.29817  1.0000
  H   H3901     1.0  0.31956  0.98069  0.38194  1.0000
  C   C2269     1.0  0.43555  0.96631  0.31250  1.0000
  Fe  Fe323     1.0  0.46822  0.97293  0.37630  1.0000
  C   C2270     1.0  0.38076  0.92514  0.41177  1.0000
  C   C2271     1.0  0.39923  0.93423  0.38365  1.0000
  H   H3902     1.0  0.27028  0.96739  0.42143  1.0000
  H   H3903     1.0  0.30181  0.91349  0.45898  1.0000
  H   H3904     1.0  0.48375  0.96364  0.30438  1.0000
  C   C2272     1.0  0.29592  0.92578  0.48135  1.0000
  H   H3905     1.0  0.46398  0.97294  0.40249  1.0000
  C   C2273     1.0  0.41709  0.92042  0.39420  1.0000
  C   C2274     1.0  0.32866  0.98348  0.48384  1.0000
  H   H3906     1.0  0.34653  0.96738  0.45770  1.0000
  H   H3907     1.0  0.38652  0.91938  0.41668  1.0000
  C   C2275     1.0  0.38588  0.92748  0.39935  1.0000
  H   H3908     1.0  0.40442  0.91743  0.38042  1.0000
  C   C2276     1.0  0.45297  0.95310  0.27804  1.0000
  H   H3909     1.0  0.25932  0.97584  0.46813  1.0000
  N   N163      1.0  0.44007  0.95449  0.31759  1.0000
  H   H3910     1.0  0.43404  0.97688  0.27838  1.0000
  H   H3911     1.0  0.43417  0.96114  0.24517  1.0000
  C   C2277     1.0  0.28252  0.98289  0.46697  1.0000
  H   H3912     1.0  0.47435  0.93720  0.40270  1.0000
  C   C2278     1.0  0.34237  0.97320  0.45133  1.0000
  C   C2279     1.0  0.48167  0.97660  0.23678  1.0000
  H   H3913     1.0  0.38254  0.96210  0.24121  1.0000
  H   H3914     1.0  0.44637  0.97225  0.34370  1.0000
  Fe  Fe324     1.0  0.23786  0.94590  0.44068  1.0000
  H   H3915     1.0  0.43330  0.97395  0.32646  1.0000
  H   H3916     1.0  0.42806  0.97643  0.38736  1.0000
  H   H3917     1.0  0.28515  0.94457  0.47171  1.0000
  H   H3918     1.0  0.41912  0.92843  0.38977  1.0000
  H   H3919     1.0  0.47571  0.97264  0.40708  1.0000
  H   H3920     1.0  0.32197  0.97600  0.46528  1.0000
  H   H3921     1.0  0.37741  0.93288  0.41481  1.0000
  H   H3922     1.0  0.35172  0.98797  0.38868  1.0000
  H   H3923     1.0  0.39303  0.94163  0.38102  1.0000
  H   H3924     1.0  0.24427  0.95306  0.46110  1.0000
  H   H3925     1.0  0.45025  0.95882  0.32570  1.0000
  C   C2280     1.0  0.32110  0.98506  0.46347  1.0000
  C   C2281     1.0  0.48486  0.96723  0.31045  1.0000
  H   H3926     1.0  0.27233  0.95830  0.46291  1.0000
  H   H3927     1.0  0.33719  0.97244  0.47329  1.0000
  H   H3928     1.0  0.44512  0.97613  0.31560  1.0000
  H   H3929     1.0  0.43190  0.98335  0.31373  1.0000
  N   N164      1.0  0.39677  0.93060  0.39601  1.0000
  C   C2282     1.0  0.43198  0.95008  0.32747  1.0000
  H   H3930     1.0  0.44481  0.93880  0.31269  1.0000
  H   H3931     1.0  0.45114  0.93817  0.33305  1.0000
  C   C2283     1.0  0.27962  0.94123  0.46911  1.0000
  H   H3932     1.0  0.41217  0.93903  0.40257  1.0000
  C   C2284     1.0  0.29495  0.93180  0.45685  1.0000
  H   H3933     1.0  0.26988  0.92563  0.46958  1.0000
  H   H3934     1.0  0.46556  0.95111  0.42678  1.0000
  H   H3935     1.0  0.45438  0.94306  0.23691  1.0000
  C   C2285     1.0  0.44923  0.95895  0.37485  1.0000
  C   C2286     1.0  0.27520  0.95050  0.46001  1.0000
  H   H3936     1.0  0.37984  0.93402  0.39530  1.0000
  H   H3937     1.0  0.28128  0.98768  0.48185  1.0000
  H   H3938     1.0  0.29237  0.93544  0.44892  1.0000
  H   H3939     1.0  0.33482  0.98575  0.36929  1.0000
  C   C2287     1.0  0.28821  0.92247  0.47642  1.0000
  H   H3940     1.0  0.28975  0.96162  0.41377  1.0000
  H   H3941     1.0  0.32193  0.96073  0.38898  1.0000
  S   S660      1.0  0.40346  0.94731  0.24203  1.0000
  N   N165      1.0  0.33301  0.98311  0.38691  1.0000
  C   C2288     1.0  0.27561  0.97295  0.42078  1.0000
  H   H3942     1.0  0.40329  0.92836  0.36855  1.0000
  H   H3943     1.0  0.26270  0.97216  0.44190  1.0000
  C   C2289     1.0  0.43240  0.94868  0.30426  1.0000
  H   H3944     1.0  0.24910  0.98802  0.46617  1.0000
  C   C2290     1.0  0.43000  0.95428  0.33799  1.0000
  H   H3945     1.0  0.42228  0.91681  0.40033  1.0000
  C   C2291     1.0  0.43659  0.97531  0.31752  1.0000
  C   C2292     1.0  0.44214  0.94771  0.30917  1.0000
  S   S661      1.0  0.47081  0.98133  0.35859  1.0000
  H   H3946     1.0  0.48436  0.97243  0.24433  1.0000
  H   H3947     1.0  0.40450  0.92006  0.40910  1.0000
  H   H3948     1.0  0.44963  0.96622  0.28634  1.0000
  C   C2293     1.0  0.32348  0.95286  0.46886  1.0000
  H   H3949     1.0  0.27829  0.97017  0.42867  1.0000
  H   H3950     1.0  0.42681  0.96759  0.31267  1.0000
  S   S662      1.0  0.29792  0.96228  0.43760  1.0000
  H   H3951     1.0  0.42737  0.94788  0.34522  1.0000
  H   H3952     1.0  0.40908  0.94756  0.38963  1.0000
  H   H3953     1.0  0.28154  0.95182  0.45247  1.0000
  C   C2294     1.0  0.45085  0.95348  0.32014  1.0000
  Fe  Fe325     1.0  0.48327  0.98778  0.36199  1.0000
  H   H3954     1.0  0.34425  0.98237  0.47213  1.0000
  Fe  Fe326     1.0  0.30987  0.95600  0.44848  1.0000
  H   H3955     1.0  0.45923  0.93627  0.31959  1.0000
  C   C2295     1.0  0.39566  0.94016  0.40098  1.0000
  H   H3956     1.0  0.45208  0.94955  0.24772  1.0000
  C   C2296     1.0  0.45070  0.97043  0.23612  1.0000
  H   H3957     1.0  0.26814  0.94901  0.45805  1.0000
  H   H3958     1.0  0.42348  0.96184  0.33801  1.0000
  S   S663      1.0  0.46646  0.94883  0.27945  1.0000
  N   N166      1.0  0.28525  0.93026  0.46613  1.0000
  H   H3959     1.0  0.45808  0.98316  0.34179  1.0000
  H   H3960     1.0  0.43782  0.97452  0.35680  1.0000
  S   S664      1.0  0.45091  0.97376  0.38557  1.0000
  H   H3961     1.0  0.43958  0.96841  0.30367  1.0000
  C   C2297     1.0  0.40508  0.92080  0.40021  1.0000
  H   H3962     1.0  0.32616  0.95278  0.46022  1.0000
  H   H3963     1.0  0.39335  0.93789  0.41009  1.0000
  H   H3964     1.0  0.29196  0.97510  0.41141  1.0000
  S   S665      1.0  0.30291  0.95468  0.46657  1.0000
  C   C2298     1.0  0.27717  0.92632  0.46277  1.0000
  H   H3965     1.0  0.45066  0.94504  0.42527  1.0000
  H   H3966     1.0  0.46377  0.94232  0.32771  1.0000
  H   H3967     1.0  0.28400  0.97223  0.40359  1.0000
  C   C2299     1.0  0.48068  0.93697  0.40697  1.0000
  H   H3968     1.0  0.32125  0.98716  0.44595  1.0000
  H   H3969     1.0  0.37376  0.92134  0.41322  1.0000
  S   S666      1.0  0.46631  0.97239  0.29218  1.0000
  C   C2300     1.0  0.40579  0.94489  0.39851  1.0000
  H   H3970     1.0  0.38902  0.94705  0.39837  1.0000
  H   H3971     1.0  0.25384  0.98054  0.42628  1.0000
  H   H3972     1.0  0.27421  0.93228  0.45571  1.0000
  S   S667      1.0  0.32081  0.96716  0.43822  1.0000
  C   C2301     1.0  0.32466  0.97668  0.38810  1.0000
  H   H3973     1.0  0.43400  0.94092  0.32972  1.0000
  Fe  Fe327     1.0  0.45733  0.98684  0.28180  1.0000
  H   H3974     1.0  0.25409  0.93968  0.47472  1.0000
  H   H3975     1.0  0.44769  0.98495  0.35891  1.0000
  H   H3976     1.0  0.47047  0.95613  0.39848  1.0000
  C   C2302     1.0  0.43826  0.97626  0.34788  1.0000
  C   C2303     1.0  0.25014  0.94785  0.47602  1.0000
  H   H3977     1.0  0.40698  0.93695  0.38034  1.0000
  H   H3978     1.0  0.43223  0.97235  0.34688  1.0000
  S   S668      1.0  0.47944  0.98086  0.38013  1.0000
  H   H3979     1.0  0.28418  0.90839  0.46546  1.0000
  H   H3980     1.0  0.44893  0.94981  0.30219  1.0000
  H   H3981     1.0  0.34889  0.96767  0.37495  1.0000
  S   S669      1.0  0.46085  0.97917  0.26747  1.0000
  H   H3982     1.0  0.27421  0.91332  0.45735  1.0000
  H   H3983     1.0  0.34500  0.96945  0.39357  1.0000
  H   H3984     1.0  0.43729  0.95566  0.33950  1.0000
  H   H3985     1.0  0.48303  0.95854  0.39796  1.0000
  H   H3986     1.0  0.42951  0.95714  0.29975  1.0000
  H   H3987     1.0  0.31898  0.97652  0.39629  1.0000
  C   C2304     1.0  0.48342  0.96162  0.32149  1.0000
  H   H3988     1.0  0.42387  0.95201  0.32548  1.0000
  C   C2305     1.0  0.33596  0.98140  0.47269  1.0000
  H   H3989     1.0  0.46921  0.95486  0.24134  1.0000
  C   C2306     1.0  0.32893  0.96472  0.38675  1.0000
  H   H3990     1.0  0.38638  0.91999  0.39651  1.0000
  C   C2307     1.0  0.46971  0.96783  0.40778  1.0000
  H   H3991     1.0  0.28075  0.92159  0.48298  1.0000
  S   S670      1.0  0.48626  0.97106  0.26987  1.0000
  H   H3992     1.0  0.29195  0.91402  0.47519  1.0000
  C   C2308     1.0  0.33099  0.95240  0.47490  1.0000
  C   C2309     1.0  0.33976  0.98491  0.37530  1.0000
  H   H3993     1.0  0.33944  0.95191  0.47091  1.0000
  H   H3994     1.0  0.34796  0.97249  0.44326  1.0000
  C   C2310     1.0  0.47535  0.95702  0.40382  1.0000
  C   C2311     1.0  0.28588  0.97051  0.41179  1.0000
  H   H3995     1.0  0.32753  0.98305  0.41905  1.0000
  H   H3996     1.0  0.25238  0.98478  0.40799  1.0000
  H   H3997     1.0  0.26246  0.98524  0.39529  1.0000
  C   C2312     1.0  0.28115  0.91533  0.45908  1.0000
  C   C2313     1.0  0.45529  0.95054  0.23872  1.0000
  C   C2314     1.0  0.48524  0.96595  0.32939  1.0000
  C   C2315     1.0  0.26118  0.98293  0.40438  1.0000
  C   C2316     1.0  0.24434  0.95534  0.46844  1.0000
  H   H3998     1.0  0.26426  0.97393  0.40633  1.0000
  H   H3999     1.0  0.35325  0.97840  0.40140  1.0000
  C   C2317     1.0  0.46756  0.94975  0.23668  1.0000
  H   H4000     1.0  0.42458  0.95242  0.23809  1.0000
  C   C2318     1.0  0.43705  0.96101  0.23631  1.0000
  H   H4001     1.0  0.46472  0.96684  0.41620  1.0000
  H   H4002     1.0  0.30295  0.92832  0.47509  1.0000
  H   H4003     1.0  0.47983  0.94971  0.43359  1.0000
  H   H4004     1.0  0.47164  0.94113  0.23977  1.0000
  H   H4005     1.0  0.44491  0.98757  0.25401  1.0000
  H   H4006     1.0  0.48128  0.96193  0.42279  1.0000
  N   N167      1.0  0.33165  0.98794  0.46265  1.0000
  H   H4007     1.0  0.29064  0.97832  0.46851  1.0000
  C   C2319     1.0  0.34723  0.98396  0.39668  1.0000
  N   N168      1.0  0.26648  0.98239  0.48422  1.0000
  C   C2320     1.0  0.33994  0.98518  0.45258  1.0000
  H   H4008     1.0  0.43721  0.94330  0.23926  1.0000
  N   N169      1.0  0.26952  0.98476  0.41948  1.0000
  H   H4009     1.0  0.31489  0.98772  0.47058  1.0000
  C   C2321     1.0  0.23929  0.96876  0.47966  1.0000
  H   H4010     1.0  0.34783  0.98683  0.45237  1.0000
  H   H4011     1.0  0.25132  0.98291  0.44513  1.0000
  C   C2322     1.0  0.25637  0.98672  0.47966  1.0000
  C   C2323     1.0  0.25717  0.98467  0.46831  1.0000
  Fe  Fe328     1.0  0.48406  0.96661  0.35605  1.0000
  H   H4012     1.0  0.48129  0.92905  0.41320  1.0000
  H   H4013     1.0  0.27996  0.98718  0.42857  1.0000
  H   H4014     1.0  0.30826  0.98760  0.45493  1.0000
  C   C2324     1.0  0.25886  0.98540  0.42772  1.0000
  H   H4015     1.0  0.35658  0.97629  0.37665  1.0000
  C   C2325     1.0  0.25960  0.98119  0.43989  1.0000
  C   C2326     1.0  0.43344  0.95139  0.23469  1.0000
  C   C2327     1.0  0.47777  0.98798  0.23460  1.0000
  C   C2328     1.0  0.42178  0.94440  0.70479  1.0000
  H   H4016     1.0  0.36019  0.97289  0.57070  1.0000
  Fe  Fe329     1.0  0.46716  0.96494  0.69467  1.0000
  Fe  Fe330     1.0  0.32979  0.95708  0.50992  1.0000
  S   S671      1.0  0.33269  0.94536  0.52572  1.0000
  S   S672      1.0  0.33690  0.95304  0.49323  1.0000
  Fe  Fe331     1.0  0.31902  0.97626  0.52097  1.0000
  S   S673      1.0  0.32087  0.96628  0.53771  1.0000
  S   S674      1.0  0.25694  0.94140  0.49544  1.0000
  Fe  Fe332     1.0  0.33761  0.95899  0.52935  1.0000
  S   S675      1.0  0.35334  0.95736  0.53415  1.0000
  Fe  Fe333     1.0  0.31565  0.95365  0.53271  1.0000
  S   S676      1.0  0.30429  0.94411  0.54559  1.0000
  S   S677      1.0  0.33616  0.96997  0.51290  1.0000
  S   S678      1.0  0.31233  0.96434  0.51666  1.0000
  H   H4017     1.0  0.44096  0.95549  0.63221  1.0000
  H   H4018     1.0  0.26936  0.98725  0.55371  1.0000
  C   C2329     1.0  0.29085  0.97493  0.54922  1.0000
  S   S679      1.0  0.24521  0.93663  0.52804  1.0000
  H   H4019     1.0  0.45718  0.96553  0.63462  1.0000
  S   S680      1.0  0.46015  0.98219  0.60725  1.0000
  S   S681      1.0  0.41098  0.95383  0.58554  1.0000
  H   H4020     1.0  0.37315  0.92815  0.53073  1.0000
  H   H4021     1.0  0.40398  0.96598  0.60298  1.0000
  C   C2330     1.0  0.47948  0.94676  0.65922  1.0000
  H   H4022     1.0  0.44048  0.96692  0.72339  1.0000
  H   H4023     1.0  0.40795  0.94807  0.69757  1.0000
  S   S682      1.0  0.38538  0.97513  0.59531  1.0000
  H   H4024     1.0  0.34626  0.90849  0.56099  1.0000
  H   H4025     1.0  0.42834  0.98454  0.72247  1.0000
  Fe  Fe334     1.0  0.47484  0.94408  0.68610  1.0000
  C   C2331     1.0  0.44108  0.96587  0.66431  1.0000
  H   H4026     1.0  0.29912  0.91866  0.48753  1.0000
  S   S683      1.0  0.38094  0.95032  0.59928  1.0000
  Fe  Fe335     1.0  0.24811  0.94700  0.51098  1.0000
  Fe  Fe336     1.0  0.37087  0.95787  0.58646  1.0000
  S   S684      1.0  0.35991  0.94956  0.58235  1.0000
  S   S685      1.0  0.45897  0.95618  0.68790  1.0000
  Fe  Fe337     1.0  0.45553  0.94626  0.70504  1.0000
  H   H4027     1.0  0.46038  0.94794  0.63615  1.0000
  H   H4028     1.0  0.37100  0.90511  0.55619  1.0000
  C   C2332     1.0  0.41813  0.95850  0.59237  1.0000
  H   H4029     1.0  0.41604  0.97639  0.69928  1.0000
  C   C2333     1.0  0.26372  0.98507  0.49542  1.0000
  S   S686      1.0  0.46217  0.95616  0.71211  1.0000
  S   S687      1.0  0.39907  0.97130  0.69096  1.0000
  C   C2334     1.0  0.24301  0.92523  0.56439  1.0000
  C   C2335     1.0  0.43419  0.94123  0.68418  1.0000
  C   C2336     1.0  0.35854  0.98156  0.56619  1.0000
  H   H4030     1.0  0.36459  0.89497  0.55622  1.0000
  C   C2337     1.0  0.37377  0.97100  0.63036  1.0000
  C   C2338     1.0  0.34344  0.92976  0.54989  1.0000
  H   H4031     1.0  0.41859  0.92978  0.62244  1.0000
  C   C2339     1.0  0.41267  0.96432  0.60064  1.0000
  H   H4032     1.0  0.44414  0.95071  0.65988  1.0000
  H   H4033     1.0  0.47012  0.97814  0.56158  1.0000
  H   H4034     1.0  0.43901  0.93974  0.67632  1.0000
  C   C2340     1.0  0.45323  0.94431  0.64026  1.0000
  H   H4035     1.0  0.45426  0.93947  0.64856  1.0000
  H   H4036     1.0  0.36701  0.91512  0.57035  1.0000
  Fe  Fe338     1.0  0.40062  0.98689  0.67852  1.0000
  H   H4037     1.0  0.27092  0.96863  0.55027  1.0000
  N   N170      1.0  0.27838  0.98849  0.53678  1.0000
  C   C2341     1.0  0.38248  0.97587  0.62438  1.0000
  H   H4038     1.0  0.36597  0.91739  0.53431  1.0000
  H   H4039     1.0  0.45329  0.93838  0.63551  1.0000
  H   H4040     1.0  0.46426  0.93806  0.73114  1.0000
  H   H4041     1.0  0.44613  0.97205  0.62835  1.0000
  H   H4042     1.0  0.48261  0.96854  0.56267  1.0000
  S   S688      1.0  0.48515  0.97027  0.59708  1.0000
  S   S689      1.0  0.48117  0.93670  0.67122  1.0000
  H   H4043     1.0  0.24951  0.98333  0.48552  1.0000
  H   H4044     1.0  0.25723  0.97586  0.55357  1.0000
  H   H4045     1.0  0.25716  0.98101  0.50104  1.0000
  H   H4046     1.0  0.35320  0.90967  0.54733  1.0000
  H   H4047     1.0  0.24126  0.92125  0.57323  1.0000
  S   S690      1.0  0.46728  0.95550  0.61223  1.0000
  S   S691      1.0  0.40673  0.97865  0.66443  1.0000
  H   H4048     1.0  0.44579  0.96259  0.67084  1.0000
  H   H4049     1.0  0.33054  0.93112  0.56500  1.0000
  H   H4050     1.0  0.35223  0.97702  0.55505  1.0000
  S   S692      1.0  0.36193  0.97231  0.59412  1.0000
  Fe  Fe339     1.0  0.37309  0.96559  0.60586  1.0000
  H   H4051     1.0  0.41599  0.97733  0.64007  1.0000
  H   H4052     1.0  0.36240  0.93539  0.54713  1.0000
  C   C2342     1.0  0.32756  0.95269  0.48606  1.0000
  H   H4053     1.0  0.42500  0.96485  0.70526  1.0000
  C   C2343     1.0  0.37869  0.97462  0.71793  1.0000
  H   H4054     1.0  0.35600  0.98653  0.57251  1.0000
  H   H4055     1.0  0.40560  0.96443  0.71279  1.0000
  C   C2344     1.0  0.28762  0.97860  0.53799  1.0000
  H   H4056     1.0  0.45489  0.95762  0.65366  1.0000
  H   H4057     1.0  0.43380  0.95162  0.58332  1.0000
  H   H4058     1.0  0.44060  0.96970  0.70479  1.0000
  S   S693      1.0  0.43678  0.96963  0.61070  1.0000
  H   H4059     1.0  0.24471  0.91905  0.55937  1.0000
  S   S694      1.0  0.41671  0.94831  0.67452  1.0000
  S   S695      1.0  0.46457  0.96993  0.58713  1.0000
  C   C2345     1.0  0.44861  0.97001  0.63631  1.0000
  H   H4060     1.0  0.34232  0.98116  0.56633  1.0000
  C   C2346     1.0  0.43929  0.94014  0.69268  1.0000
  C   C2347     1.0  0.36321  0.90248  0.55936  1.0000
  C   C2348     1.0  0.42457  0.97324  0.63730  1.0000
  C   C2349     1.0  0.43535  0.95968  0.59509  1.0000
  C   C2350     1.0  0.43308  0.94199  0.70291  1.0000
  C   C2351     1.0  0.35450  0.95678  0.54750  1.0000
  C   C2352     1.0  0.34580  0.95588  0.55654  1.0000
  C   C2353     1.0  0.34745  0.95401  0.56722  1.0000
  C   C2354     1.0  0.35775  0.95321  0.56888  1.0000
  C   C2355     1.0  0.36632  0.95462  0.55980  1.0000
  C   C2356     1.0  0.36471  0.95633  0.54916  1.0000
  H   H4061     1.0  0.33789  0.95624  0.55535  1.0000
  H   H4062     1.0  0.34079  0.95295  0.57423  1.0000
  H   H4063     1.0  0.37430  0.95399  0.56101  1.0000
  C   C2357     1.0  0.42983  0.96549  0.60334  1.0000
  C   C2358     1.0  0.46146  0.92242  0.73248  1.0000
  H   H4064     1.0  0.48188  0.94947  0.63179  1.0000
  H   H4065     1.0  0.42512  0.96327  0.65360  1.0000
  C   C2359     1.0  0.29057  0.94606  0.54526  1.0000
  C   C2360     1.0  0.28672  0.94991  0.53551  1.0000
  C   C2361     1.0  0.27567  0.95088  0.53584  1.0000
  C   C2362     1.0  0.26851  0.94812  0.54593  1.0000
  C   C2363     1.0  0.27240  0.94446  0.55559  1.0000
  C   C2364     1.0  0.28336  0.94333  0.55524  1.0000
  H   H4066     1.0  0.29228  0.95191  0.52775  1.0000
  H   H4067     1.0  0.27270  0.95374  0.52834  1.0000
  H   H4068     1.0  0.26694  0.94238  0.56341  1.0000
  H   H4069     1.0  0.28626  0.94032  0.56278  1.0000
  H   H4070     1.0  0.45267  0.97936  0.64573  1.0000
  S   S696      1.0  0.47675  0.97335  0.62800  1.0000
  H   H4071     1.0  0.44048  0.98621  0.64041  1.0000
  H   H4072     1.0  0.42446  0.96660  0.63355  1.0000
  H   H4073     1.0  0.37107  0.97702  0.65508  1.0000
  C   C2365     1.0  0.48388  0.98597  0.55434  1.0000
  H   H4074     1.0  0.45356  0.98556  0.63155  1.0000
  H   H4075     1.0  0.31411  0.95274  0.49998  1.0000
  H   H4076     1.0  0.44095  0.98334  0.70466  1.0000
  C   C2366     1.0  0.25051  0.95085  0.48541  1.0000
  Fe  Fe340     1.0  0.38944  0.98220  0.66337  1.0000
  N   N171      1.0  0.42475  0.98016  0.70916  1.0000
  H   H4077     1.0  0.25060  0.92818  0.56262  1.0000
  S   S697      1.0  0.43937  0.94223  0.71306  1.0000
  Fe  Fe341     1.0  0.38225  0.97537  0.68819  1.0000
  C   C2367     1.0  0.40967  0.96887  0.71603  1.0000
  H   H4078     1.0  0.40344  0.97577  0.71884  1.0000
  H   H4079     1.0  0.34611  0.91973  0.57222  1.0000
  H   H4080     1.0  0.36315  0.96740  0.64623  1.0000
  H   H4081     1.0  0.42886  0.97601  0.65076  1.0000
  Fe  Fe342     1.0  0.45474  0.96857  0.60444  1.0000
  H   H4082     1.0  0.42842  0.97955  0.63097  1.0000
  S   S698      1.0  0.25453  0.94951  0.54721  1.0000
  C   C2368     1.0  0.47744  0.96294  0.63993  1.0000
  C   C2369     1.0  0.37433  0.97664  0.64654  1.0000
  C   C2370     1.0  0.46117  0.98635  0.70978  1.0000
  C   C2371     1.0  0.42291  0.94464  0.68576  1.0000
  H   H4083     1.0  0.27390  0.98272  0.52491  1.0000
  C   C2372     1.0  0.36966  0.97245  0.71587  1.0000
  H   H4084     1.0  0.26327  0.97499  0.53967  1.0000
  N   N172      1.0  0.40539  0.94275  0.63816  1.0000
  C   C2373     1.0  0.41653  0.94308  0.63096  1.0000
  C   C2374     1.0  0.40018  0.95411  0.64033  1.0000
  C   C2375     1.0  0.39841  0.93961  0.63263  1.0000
  C   C2376     1.0  0.40646  0.93431  0.64866  1.0000
  C   C2377     1.0  0.42296  0.93246  0.62702  1.0000
  C   C2378     1.0  0.40404  0.95716  0.64903  1.0000
  C   C2379     1.0  0.39765  0.94644  0.62098  1.0000
  C   C2380     1.0  0.39574  0.93323  0.65720  1.0000
  H   H4085     1.0  0.41612  0.94982  0.62349  1.0000
  H   H4086     1.0  0.42170  0.94509  0.63525  1.0000
  H   H4087     1.0  0.39119  0.95540  0.64286  1.0000
  H   H4088     1.0  0.40161  0.96051  0.63265  1.0000
  H   H4089     1.0  0.40119  0.93080  0.63215  1.0000
  H   H4090     1.0  0.38994  0.94038  0.63758  1.0000
  H   H4091     1.0  0.41013  0.92598  0.64693  1.0000
  H   H4092     1.0  0.41228  0.93564  0.65269  1.0000
  H   H4093     1.0  0.43063  0.93409  0.62124  1.0000
  H   H4094     1.0  0.42528  0.92567  0.63389  1.0000
  H   H4095     1.0  0.29156  0.93251  0.48574  1.0000
  H   H4096     1.0  0.40075  0.95281  0.65744  1.0000
  H   H4097     1.0  0.41297  0.95533  0.64764  1.0000
  H   H4098     1.0  0.40101  0.96610  0.64874  1.0000
  H   H4099     1.0  0.40541  0.94482  0.61493  1.0000
  H   H4100     1.0  0.39495  0.95535  0.62077  1.0000
  H   H4101     1.0  0.39152  0.94411  0.61824  1.0000
  H   H4102     1.0  0.39255  0.92649  0.65639  1.0000
  H   H4103     1.0  0.38930  0.94082  0.65654  1.0000
  H   H4104     1.0  0.39719  0.93140  0.66562  1.0000
  H   H4105     1.0  0.33384  0.98240  0.48967  1.0000
  S   S699      1.0  0.38648  0.96617  0.67459  1.0000
  H   H4106     1.0  0.33332  0.97910  0.55303  1.0000
  H   H4107     1.0  0.36151  0.90021  0.56848  1.0000
  Fe  Fe343     1.0  0.47362  0.96932  0.61354  1.0000
  S   S700      1.0  0.25184  0.96057  0.51580  1.0000
  H   H4108     1.0  0.43260  0.96517  0.66835  1.0000
  C   C2381     1.0  0.41916  0.97257  0.70693  1.0000
  C   C2382     1.0  0.47640  0.95787  0.65961  1.0000
  H   H4109     1.0  0.44411  0.95779  0.59296  1.0000
  H   H4110     1.0  0.34702  0.93355  0.56630  1.0000
  C   C2383     1.0  0.23871  0.98763  0.52481  1.0000
  C   C2384     1.0  0.43000  0.96881  0.64725  1.0000
  C   C2385     1.0  0.42950  0.95616  0.58966  1.0000
  S   S701      1.0  0.36758  0.96469  0.62415  1.0000
  H   H4111     1.0  0.41695  0.94548  0.71280  1.0000
  H   H4112     1.0  0.35911  0.93177  0.53078  1.0000
  C   C2386     1.0  0.44239  0.95297  0.64070  1.0000
  H   H4113     1.0  0.27732  0.96380  0.50008  1.0000
  H   H4114     1.0  0.47502  0.96030  0.66727  1.0000
  H   H4115     1.0  0.43593  0.94852  0.64581  1.0000
  N   N173      1.0  0.44173  0.96288  0.64499  1.0000
  H   H4116     1.0  0.38582  0.97547  0.61593  1.0000
  C   C2387     1.0  0.47871  0.97590  0.55723  1.0000
  Fe  Fe344     1.0  0.39283  0.96030  0.58809  1.0000
  H   H4117     1.0  0.44803  0.93789  0.69129  1.0000
  C   C2388     1.0  0.41848  0.96780  0.60609  1.0000
  C   C2389     1.0  0.24525  0.96139  0.48707  1.0000
  C   C2390     1.0  0.38693  0.98132  0.62936  1.0000
  N   N174      1.0  0.35308  0.92292  0.55467  1.0000
  Fe  Fe345     1.0  0.40349  0.96336  0.67658  1.0000
  C   C2391     1.0  0.36529  0.92585  0.53511  1.0000
  C   C2392     1.0  0.35141  0.92494  0.56600  1.0000
  C   C2393     1.0  0.35360  0.91102  0.55528  1.0000
  H   H4118     1.0  0.41415  0.97226  0.61248  1.0000
  C   C2394     1.0  0.33214  0.92860  0.55711  1.0000
  C   C2395     1.0  0.36161  0.92333  0.57040  1.0000
  C   C2396     1.0  0.36301  0.92667  0.54719  1.0000
  H   H4119     1.0  0.34376  0.92776  0.54201  1.0000
  H   H4120     1.0  0.28589  0.97142  0.53626  1.0000
  Fe  Fe346     1.0  0.47118  0.98236  0.59078  1.0000
  C   C2397     1.0  0.47533  0.96593  0.65000  1.0000
  H   H4121     1.0  0.37049  0.92221  0.55017  1.0000
  C   C2398     1.0  0.44590  0.95889  0.65549  1.0000
  S   S702      1.0  0.38361  0.96634  0.57449  1.0000
  C   C2399     1.0  0.27936  0.96424  0.49110  1.0000
  C   C2400     1.0  0.36983  0.97124  0.64151  1.0000
  C   C2401     1.0  0.41669  0.94592  0.69616  1.0000
  C   C2402     1.0  0.34955  0.98334  0.56003  1.0000
  H   H4122     1.0  0.45684  0.92656  0.72593  1.0000
  H   H4123     1.0  0.32588  0.93419  0.55267  1.0000
  H   H4124     1.0  0.33082  0.92019  0.55866  1.0000
  H   H4125     1.0  0.36624  0.92978  0.56577  1.0000
  H   H4126     1.0  0.37149  0.95701  0.54219  1.0000
  H   H4127     1.0  0.35908  0.92432  0.57904  1.0000
  C   C2403     1.0  0.48025  0.95182  0.63955  1.0000
  H   H4128     1.0  0.48496  0.95940  0.71670  1.0000
  H   H4129     1.0  0.27080  0.98186  0.49935  1.0000
  H   H4130     1.0  0.36325  0.98165  0.53924  1.0000
  Fe  Fe347     1.0  0.47780  0.94402  0.70844  1.0000
  H   H4131     1.0  0.44131  0.97465  0.66113  1.0000
  Fe  Fe348     1.0  0.24719  0.95110  0.53301  1.0000
  S   S703      1.0  0.47072  0.93333  0.70278  1.0000
  Fe  Fe349     1.0  0.37516  0.98033  0.58285  1.0000
  H   H4132     1.0  0.34354  0.93866  0.54786  1.0000
  H   H4133     1.0  0.29706  0.96711  0.54938  1.0000
  H   H4134     1.0  0.38513  0.97695  0.71117  1.0000
  H   H4135     1.0  0.24559  0.96389  0.49419  1.0000
  H   H4136     1.0  0.35426  0.96798  0.72319  1.0000
  C   C2404     1.0  0.31672  0.95292  0.49129  1.0000
  C   C2405     1.0  0.36126  0.96964  0.72470  1.0000
  H   H4137     1.0  0.38587  0.97621  0.73036  1.0000
  C   C2406     1.0  0.26840  0.98678  0.54562  1.0000
  H   H4138     1.0  0.26260  0.96645  0.49144  1.0000
  H   H4139     1.0  0.29510  0.98016  0.53181  1.0000
  H   H4140     1.0  0.28402  0.97325  0.55621  1.0000
  C   C2407     1.0  0.33586  0.98527  0.54554  1.0000
  H   H4141     1.0  0.45832  0.97882  0.71261  1.0000
  C   C2408     1.0  0.44869  0.98088  0.63882  1.0000
  Fe  Fe350     1.0  0.47764  0.95772  0.59503  1.0000
  S   S704      1.0  0.48350  0.95361  0.69146  1.0000
  C   C2409     1.0  0.43632  0.97845  0.70263  1.0000
  H   H4142     1.0  0.47287  0.97448  0.65042  1.0000
  H   H4143     1.0  0.41252  0.96299  0.72319  1.0000
  C   C2410     1.0  0.43171  0.96695  0.72591  1.0000
  C   C2411     1.0  0.48131  0.94372  0.64920  1.0000
  H   H4144     1.0  0.23911  0.97898  0.52830  1.0000
  H   H4145     1.0  0.36628  0.98306  0.56058  1.0000
  H   H4146     1.0  0.28196  0.95561  0.49005  1.0000
  H   H4147     1.0  0.46959  0.91803  0.72870  1.0000
  C   C2412     1.0  0.42500  0.97816  0.72110  1.0000
  S   S705      1.0  0.36796  0.97419  0.70244  1.0000
  C   C2413     1.0  0.38272  0.98191  0.64038  1.0000
  H   H4148     1.0  0.43256  0.97770  0.68723  1.0000
  H   H4149     1.0  0.32325  0.97757  0.48737  1.0000
  C   C2414     1.0  0.26490  0.97593  0.54724  1.0000
  H   H4150     1.0  0.43025  0.96011  0.72344  1.0000
  C   C2415     1.0  0.43777  0.98131  0.68999  1.0000
  C   C2416     1.0  0.48588  0.96317  0.73152  1.0000
  H   H4151     1.0  0.48528  0.97186  0.72795  1.0000
  C   C2417     1.0  0.37912  0.97420  0.72879  1.0000
  H   H4152     1.0  0.32947  0.98766  0.54073  1.0000
  H   H4153     1.0  0.30100  0.95303  0.48950  1.0000
  C   C2418     1.0  0.30928  0.95314  0.48532  1.0000
  H   H4154     1.0  0.29460  0.98100  0.55051  1.0000
  H   H4155     1.0  0.47842  0.97372  0.54966  1.0000
  H   H4156     1.0  0.29192  0.98669  0.51501  1.0000
  H   H4157     1.0  0.41674  0.97901  0.72636  1.0000
  C   C2419     1.0  0.48572  0.95612  0.72514  1.0000
  C   C2420     1.0  0.26946  0.97002  0.48597  1.0000
  S   S706      1.0  0.46536  0.98318  0.68870  1.0000
  H   H4158     1.0  0.28632  0.96822  0.48715  1.0000
  H   H4159     1.0  0.34336  0.98124  0.54051  1.0000
  H   H4160     1.0  0.44627  0.97800  0.68616  1.0000
  H   H4161     1.0  0.39363  0.98511  0.62463  1.0000
  H   H4162     1.0  0.48367  0.93512  0.64888  1.0000
  Fe  Fe351     1.0  0.31120  0.56722  0.92954  1.0000
  S   S707      1.0  0.30220  0.55864  0.94545  1.0000
  S   S708      1.0  0.30434  0.57359  0.91443  1.0000
  Fe  Fe352     1.0  0.33050  0.56641  0.93856  1.0000
  S   S709      1.0  0.32310  0.55728  0.95513  1.0000
  S   S710      1.0  0.34676  0.56948  0.93821  1.0000
  Fe  Fe353     1.0  0.31849  0.54736  0.94627  1.0000
  S   S711      1.0  0.32025  0.52910  0.95331  1.0000
  Fe  Fe354     1.0  0.30765  0.56936  0.95275  1.0000
  S   S712      1.0  0.29690  0.57893  0.96527  1.0000
  S   S713      1.0  0.32731  0.55525  0.92981  1.0000
  S   S714      1.0  0.31520  0.57908  0.93672  1.0000
  H   H4163     1.0  0.42422  0.95236  0.79791  1.0000
  C   C2421     1.0  0.47410  0.77257  0.92558  1.0000
  C   C2422     1.0  0.41456  0.58798  0.97010  1.0000
  S   S715      1.0  0.30683  0.50294  0.92663  1.0000
  H   H4164     1.0  0.46161  0.98719  0.79906  1.0000
  H   H4165     1.0  0.37693  0.75717  0.97049  1.0000
  N   N175      1.0  0.44709  0.83874  0.97000  1.0000
  C   C2423     1.0  0.26750  0.57884  0.95719  1.0000
  H   H4166     1.0  0.27808  0.50553  0.95583  1.0000
  C   C2424     1.0  0.42035  0.96752  0.80424  1.0000
  Fe  Fe355     1.0  0.40861  0.78248  0.95061  1.0000
  Fe  Fe356     1.0  0.39411  0.70138  0.92878  1.0000
  H   H4167     1.0  0.25937  0.58023  0.96265  1.0000
  H   H4168     1.0  0.37943  0.91779  0.96619  1.0000
  H   H4169     1.0  0.26967  0.60570  0.94633  1.0000
  C   C2425     1.0  0.43397  0.77698  0.97552  1.0000
  S   S716      1.0  0.36987  0.97253  0.75103  1.0000
  H   H4170     1.0  0.42369  0.75251  0.91480  1.0000
  H   H4171     1.0  0.25085  0.60569  0.95611  1.0000
  C   C2426     1.0  0.43882  0.98085  0.86680  1.0000
  H   H4172     1.0  0.26865  0.56338  0.92834  1.0000
  H   H4173     1.0  0.45247  0.76586  0.91969  1.0000
  H   H4174     1.0  0.48542  0.98506  0.79970  1.0000
  S   S717      1.0  0.37763  0.95532  0.88671  1.0000
  H   H4175     1.0  0.37446  0.52407  0.97734  1.0000
  C   C2427     1.0  0.38250  0.93532  0.93355  1.0000
  S   S718      1.0  0.46803  0.96997  0.89219  1.0000
  H   H4176     1.0  0.44763  0.95930  0.84961  1.0000
  C   C2428     1.0  0.47645  0.69016  0.87304  1.0000
  H   H4177     1.0  0.25619  0.54099  0.95341  1.0000
  H   H4178     1.0  0.46790  0.90578  0.91525  1.0000
  Fe  Fe357     1.0  0.41698  0.70484  0.92386  1.0000
  H   H4179     1.0  0.46230  0.98128  0.82637  1.0000
  H   H4180     1.0  0.48468  0.98277  0.91499  1.0000
  H   H4181     1.0  0.42013  0.97157  0.88896  1.0000
  C   C2429     1.0  0.42679  0.94502  0.77227  1.0000
  H   H4182     1.0  0.43227  0.98215  0.80483  1.0000
  H   H4183     1.0  0.31170  0.53726  0.97537  1.0000
  H   H4184     1.0  0.37287  0.83659  0.92510  1.0000
  H   H4185     1.0  0.29241  0.50149  0.95129  1.0000
  Fe  Fe358     1.0  0.39817  0.72170  0.93324  1.0000
  Fe  Fe359     1.0  0.39606  0.88658  0.94552  1.0000
  H   H4186     1.0  0.46185  0.94892  0.90180  1.0000
  H   H4187     1.0  0.27130  0.59101  0.90111  1.0000
  C   C2430     1.0  0.39276  0.83706  0.93681  1.0000
  S   S719      1.0  0.45244  0.94157  0.79111  1.0000
  S   S720      1.0  0.40939  0.69066  0.93348  1.0000
  H   H4188     1.0  0.47815  0.77630  0.89177  1.0000
  S   S721      1.0  0.47147  0.61450  0.94980  1.0000
  Fe  Fe360     1.0  0.38561  0.96517  0.87064  1.0000
  Fe  Fe361     1.0  0.47488  0.64407  0.93444  1.0000
  S   S722      1.0  0.46871  0.63373  0.92732  1.0000
  H   H4189     1.0  0.46835  0.67210  0.90207  1.0000
  Fe  Fe362     1.0  0.45883  0.62918  0.94435  1.0000
  S   S723      1.0  0.44068  0.63152  0.94999  1.0000
  H   H4190     1.0  0.29053  0.58856  0.90119  1.0000
  S   S724      1.0  0.46424  0.64032  0.95105  1.0000
  Fe  Fe363     1.0  0.37180  0.61922  0.93283  1.0000
  S   S725      1.0  0.38710  0.60719  0.93629  1.0000
  S   S726      1.0  0.35993  0.61587  0.92501  1.0000
  Fe  Fe364     1.0  0.37454  0.63579  0.94405  1.0000
  S   S727      1.0  0.38968  0.62480  0.94863  1.0000
  S   S728      1.0  0.36930  0.65088  0.95126  1.0000
  Fe  Fe365     1.0  0.39444  0.62208  0.93165  1.0000
  S   S729      1.0  0.41195  0.62242  0.92301  1.0000
  Fe  Fe366     1.0  0.38112  0.61110  0.95297  1.0000
  S   S730      1.0  0.38237  0.59905  0.96895  1.0000
  S   S731      1.0  0.37965  0.63396  0.92654  1.0000
  S   S732      1.0  0.36544  0.62224  0.94993  1.0000
  C   C2431     1.0  0.28450  0.59521  0.93195  1.0000
  H   H4191     1.0  0.46301  0.92337  0.76658  1.0000
  H   H4192     1.0  0.38801  0.76284  0.93151  1.0000
  H   H4193     1.0  0.25788  0.48961  0.96239  1.0000
  S   S733      1.0  0.39175  0.73995  0.93215  1.0000
  Fe  Fe367     1.0  0.47012  0.72685  0.92727  1.0000
  S   S734      1.0  0.46449  0.73036  0.91156  1.0000
  C   C2432     1.0  0.46288  0.93088  0.73794  1.0000
  S   S735      1.0  0.24669  0.56061  0.94253  1.0000
  H   H4194     1.0  0.27910  0.59838  0.92604  1.0000
  C   C2433     1.0  0.46091  0.91839  0.76211  1.0000
  H   H4195     1.0  0.36469  0.91791  0.88687  1.0000
  H   H4196     1.0  0.46840  0.77979  0.92190  1.0000
  S   S736      1.0  0.38404  0.69440  0.92216  1.0000
  H   H4197     1.0  0.26678  0.50322  0.90099  1.0000
  S   S737      1.0  0.48037  0.95002  0.78127  1.0000
  H   H4198     1.0  0.39849  0.85161  0.93524  1.0000
  S   S738      1.0  0.43254  0.70223  0.91128  1.0000
  H   H4199     1.0  0.28191  0.57897  0.93775  1.0000
  S   S739      1.0  0.40207  0.71504  0.91806  1.0000
  H   H4200     1.0  0.44985  0.95867  0.74285  1.0000
  C   C2434     1.0  0.38580  0.97680  0.82022  1.0000
  H   H4201     1.0  0.29453  0.52065  0.94610  1.0000
  H   H4202     1.0  0.44445  0.67443  0.96930  1.0000
  S   S740      1.0  0.43467  0.79238  0.91525  1.0000
  C   C2435     1.0  0.38062  0.75040  0.97664  1.0000
  Fe  Fe368     1.0  0.47801  0.98093  0.87940  1.0000
  H   H4203     1.0  0.35604  0.93132  0.87286  1.0000
  H   H4204     1.0  0.44185  0.85432  0.95978  1.0000
  C   C2436     1.0  0.38549  0.83280  0.93398  1.0000
  S   S741      1.0  0.41637  0.81056  0.93549  1.0000
  S   S742      1.0  0.39453  0.97868  0.86744  1.0000
  S   S743      1.0  0.47298  0.81285  0.91461  1.0000
  C   C2437     1.0  0.43921  0.95305  0.77667  1.0000
  S   S744      1.0  0.48000  0.82027  0.93873  1.0000
  C   C2438     1.0  0.44111  0.78412  0.97634  1.0000
  Fe  Fe369     1.0  0.46252  0.88674  0.95994  1.0000
  H   H4205     1.0  0.36858  0.74149  0.94830  1.0000
  H   H4206     1.0  0.43814  0.82853  0.93283  1.0000
  Fe  Fe370     1.0  0.40374  0.89880  0.92198  1.0000
  S   S745      1.0  0.41079  0.88313  0.91592  1.0000
  S   S746      1.0  0.40812  0.91484  0.91179  1.0000
  H   H4207     1.0  0.45387  0.84260  0.92341  1.0000
  S   S747      1.0  0.47253  0.80595  0.96977  1.0000
  C   C2439     1.0  0.45298  0.84494  0.91476  1.0000
  H   H4208     1.0  0.43229  0.84520  0.95008  1.0000
  S   S748      1.0  0.46814  0.89291  0.94184  1.0000
  H   H4209     1.0  0.30810  0.52064  0.97396  1.0000
  S   S749      1.0  0.39869  0.97847  0.84115  1.0000
  H   H4210     1.0  0.26695  0.49448  0.91410  1.0000
  H   H4211     1.0  0.45760  0.91589  0.73828  1.0000
  C   C2440     1.0  0.26561  0.50327  0.90981  1.0000
  H   H4212     1.0  0.36043  0.95983  0.86823  1.0000
  H   H4213     1.0  0.45339  0.92165  0.90762  1.0000
  C   C2441     1.0  0.46473  0.84263  0.95624  1.0000
  H   H4214     1.0  0.46418  0.92935  0.87307  1.0000
  H   H4215     1.0  0.45482  0.86783  0.93349  1.0000
  H   H4216     1.0  0.46031  0.87261  0.94802  1.0000
  H   H4217     1.0  0.40994  0.95758  0.80271  1.0000
  S   S750      1.0  0.47219  0.98295  0.84247  1.0000
  H   H4218     1.0  0.42547  0.96859  0.82823  1.0000
  Fe  Fe371     1.0  0.45574  0.97733  0.88178  1.0000
  C   C2442     1.0  0.36294  0.80176  0.96176  1.0000
  C   C2443     1.0  0.36093  0.95083  0.87083  1.0000
  H   H4219     1.0  0.47108  0.70157  0.88796  1.0000
  Fe  Fe372     1.0  0.48106  0.80813  0.92890  1.0000
  H   H4220     1.0  0.26562  0.56202  0.96067  1.0000
  Fe  Fe373     1.0  0.39574  0.87764  0.92652  1.0000
  C   C2444     1.0  0.44548  0.79768  0.91534  1.0000
  C   C2445     1.0  0.45155  0.80246  0.90540  1.0000
  C   C2446     1.0  0.45989  0.80719  0.90533  1.0000
  C   C2447     1.0  0.46248  0.80680  0.91519  1.0000
  C   C2448     1.0  0.45652  0.80191  0.92518  1.0000
  C   C2449     1.0  0.44792  0.79748  0.92525  1.0000
  H   H4221     1.0  0.44962  0.80274  0.89774  1.0000
  H   H4222     1.0  0.46444  0.81107  0.89761  1.0000
  H   H4223     1.0  0.39797  0.83175  0.94216  1.0000
  H   H4224     1.0  0.36704  0.91630  0.95516  1.0000
  Fe  Fe374     1.0  0.24343  0.57007  0.92619  1.0000
  C   C2450     1.0  0.37656  0.92678  0.96542  1.0000
  H   H4225     1.0  0.41701  0.96435  0.79004  1.0000
  C   C2451     1.0  0.43318  0.97854  0.87773  1.0000
  H   H4226     1.0  0.41764  0.77481  0.92167  1.0000
  C   C2452     1.0  0.25347  0.50816  0.91408  1.0000
  H   H4227     1.0  0.44195  0.75702  0.90646  1.0000
  H   H4228     1.0  0.38877  0.82867  0.97083  1.0000
  S   S751      1.0  0.41118  0.89262  0.93672  1.0000
  H   H4229     1.0  0.27811  0.51590  0.89398  1.0000
  C   C2453     1.0  0.45567  0.72240  0.91166  1.0000
  C   C2454     1.0  0.45352  0.72232  0.90173  1.0000
  C   C2455     1.0  0.44647  0.71604  0.90163  1.0000
  C   C2456     1.0  0.44119  0.71022  0.91150  1.0000
  C   C2457     1.0  0.44311  0.71054  0.92144  1.0000
  C   C2458     1.0  0.45056  0.71637  0.92150  1.0000
  H   H4230     1.0  0.45741  0.72701  0.89410  1.0000
  H   H4231     1.0  0.44493  0.71590  0.89392  1.0000
  C   C2459     1.0  0.47023  0.97580  0.82555  1.0000
  Fe  Fe375     1.0  0.42201  0.79437  0.93052  1.0000
  S   S752      1.0  0.46199  0.96476  0.87144  1.0000
  H   H4232     1.0  0.46209  0.93988  0.83367  1.0000
  H   H4233     1.0  0.40869  0.76957  0.91738  1.0000
  C   C2460     1.0  0.44748  0.83708  0.91233  1.0000
  S   S753      1.0  0.39848  0.95544  0.85954  1.0000
  S   S754      1.0  0.41780  0.94559  0.76432  1.0000
  C   C2461     1.0  0.45746  0.68659  0.89596  1.0000
  H   H4234     1.0  0.37509  0.62206  0.96866  1.0000
  C   C2462     1.0  0.41825  0.70640  0.97586  1.0000
  C   C2463     1.0  0.37381  0.66269  0.94296  1.0000
  C   C2464     1.0  0.37825  0.66862  0.94744  1.0000
  C   C2465     1.0  0.38148  0.67833  0.94111  1.0000
  C   C2466     1.0  0.37998  0.68233  0.93034  1.0000
  C   C2467     1.0  0.37541  0.67648  0.92590  1.0000
  C   C2468     1.0  0.37249  0.66658  0.93213  1.0000
  H   H4235     1.0  0.37925  0.66565  0.95580  1.0000
  H   H4236     1.0  0.38498  0.68281  0.94459  1.0000
  H   H4237     1.0  0.37417  0.67958  0.91760  1.0000
  H   H4238     1.0  0.36893  0.66214  0.92867  1.0000
  C   C2469     1.0  0.41422  0.81276  0.97075  1.0000
  H   H4239     1.0  0.41821  0.95531  0.83890  1.0000
  H   H4240     1.0  0.41295  0.97424  0.80532  1.0000
  C   C2470     1.0  0.46620  0.94145  0.90629  1.0000
  C   C2471     1.0  0.27575  0.51825  0.90206  1.0000
  C   C2472     1.0  0.43311  0.62938  0.94188  1.0000
  C   C2473     1.0  0.42184  0.63290  0.94453  1.0000
  C   C2474     1.0  0.41538  0.63090  0.93870  1.0000
  C   C2475     1.0  0.42007  0.62528  0.93019  1.0000
  C   C2476     1.0  0.43142  0.62199  0.92733  1.0000
  C   C2477     1.0  0.43794  0.62401  0.93318  1.0000
  H   H4241     1.0  0.41805  0.63708  0.95123  1.0000
  H   H4242     1.0  0.40678  0.63392  0.94072  1.0000
  H   H4243     1.0  0.43516  0.61774  0.92068  1.0000
  H   H4244     1.0  0.44666  0.62128  0.93106  1.0000
  Fe  Fe376     1.0  0.47975  0.89338  0.96607  1.0000
  H   H4245     1.0  0.47790  0.77499  0.93089  1.0000
  Fe  Fe377     1.0  0.47779  0.62619  0.95486  1.0000
  H   H4246     1.0  0.25019  0.50276  0.92188  1.0000
  S   S755      1.0  0.38865  0.70899  0.94347  1.0000
  C   C2478     1.0  0.42991  0.93524  0.77967  1.0000
  C   C2479     1.0  0.43773  0.93431  0.78548  1.0000
  C   C2480     1.0  0.44250  0.94315  0.78389  1.0000
  S   S756      1.0  0.38919  0.96412  0.77189  1.0000
  H   H4247     1.0  0.46134  0.84423  0.90962  1.0000
  H   H4248     1.0  0.42636  0.92832  0.78081  1.0000
  H   H4249     1.0  0.44018  0.92668  0.79113  1.0000
  H   H4250     1.0  0.48232  0.69625  0.90729  1.0000
  H   H4251     1.0  0.27756  0.49783  0.93384  1.0000
  C   C2481     1.0  0.39599  0.76425  0.94330  1.0000
  H   H4252     1.0  0.44871  0.85367  0.91278  1.0000
  H   H4253     1.0  0.44006  0.92755  0.73732  1.0000
  H   H4254     1.0  0.37697  0.94159  0.95315  1.0000
  H   H4255     1.0  0.38176  0.78950  0.97041  1.0000
  C   C2482     1.0  0.37906  0.85087  0.92315  1.0000
  C   C2483     1.0  0.24131  0.56621  0.97239  1.0000
  H   H4256     1.0  0.32703  0.52234  0.97324  1.0000
  H   H4257     1.0  0.32534  0.60529  0.97360  1.0000
  H   H4258     1.0  0.42707  0.87898  0.96551  1.0000
  C   C2484     1.0  0.38402  0.94721  0.93086  1.0000
  H   H4259     1.0  0.37220  0.92182  0.89403  1.0000
  C   C2485     1.0  0.38614  0.94386  0.89340  1.0000
  C   C2486     1.0  0.39735  0.94285  0.89082  1.0000
  C   C2487     1.0  0.40397  0.93384  0.89648  1.0000
  C   C2488     1.0  0.39948  0.92561  0.90452  1.0000
  C   C2489     1.0  0.38827  0.92647  0.90694  1.0000
  C   C2490     1.0  0.38161  0.93568  0.90152  1.0000
  H   H4260     1.0  0.40092  0.94915  0.88465  1.0000
  H   H4261     1.0  0.41262  0.93326  0.89459  1.0000
  H   H4262     1.0  0.38474  0.92018  0.91316  1.0000
  H   H4263     1.0  0.37292  0.93648  0.90359  1.0000
  C   C2491     1.0  0.43334  0.97778  0.81322  1.0000
  H   H4264     1.0  0.46773  0.69393  0.87526  1.0000
  C   C2492     1.0  0.27076  0.51199  0.92212  1.0000
  S   S757      1.0  0.46093  0.96495  0.79687  1.0000
  H   H4265     1.0  0.45834  0.95743  0.83807  1.0000
  C   C2493     1.0  0.37562  0.81031  0.97150  1.0000
  Fe  Fe378     1.0  0.48188  0.80538  0.95254  1.0000
  S   S758      1.0  0.47898  0.87762  0.96267  1.0000
  S   S759      1.0  0.43779  0.98119  0.88790  1.0000
  H   H4266     1.0  0.25149  0.51669  0.91516  1.0000
  C   C2494     1.0  0.48484  0.95222  0.92216  1.0000
  H   H4267     1.0  0.42390  0.94284  0.83356  1.0000
  Fe  Fe379     1.0  0.47000  0.90749  0.94656  1.0000
  N   N176      1.0  0.44479  0.90962  0.91923  1.0000
  Fe  Fe380     1.0  0.41692  0.87664  0.93138  1.0000
  H   H4268     1.0  0.35502  0.96727  0.74218  1.0000
  Fe  Fe381     1.0  0.38461  0.97364  0.75585  1.0000
  H   H4269     1.0  0.43301  0.98415  0.81759  1.0000
  H   H4270     1.0  0.25946  0.52620  0.89890  1.0000
  H   H4271     1.0  0.25531  0.59563  0.96785  1.0000
  H   H4272     1.0  0.47649  0.70469  0.98361  1.0000
  S   S760      1.0  0.42573  0.78446  0.94663  1.0000
  H   H4273     1.0  0.36032  0.82293  0.96998  1.0000
  H   H4274     1.0  0.44693  0.82467  0.98371  1.0000
  C   C2495     1.0  0.40247  0.74128  0.94706  1.0000
  H   H4275     1.0  0.45221  0.71633  0.92917  1.0000
  H   H4276     1.0  0.44431  0.68391  0.98377  1.0000
  H   H4277     1.0  0.41021  0.74267  0.95903  1.0000
  C   C2496     1.0  0.28070  0.58600  0.94153  1.0000
  H   H4278     1.0  0.43896  0.70617  0.92907  1.0000
  H   H4279     1.0  0.39697  0.92216  0.95385  1.0000
  H   H4280     1.0  0.45188  0.82858  0.91539  1.0000
  S   S761      1.0  0.47941  0.97629  0.77789  1.0000
  C   C2497     1.0  0.40377  0.90355  0.97281  1.0000
  C   C2498     1.0  0.45101  0.62380  0.98338  1.0000
  H   H4281     1.0  0.26310  0.51828  0.92297  1.0000
  H   H4282     1.0  0.42463  0.73544  0.93315  1.0000
  H   H4283     1.0  0.44569  0.84702  0.94478  1.0000
  C   C2499     1.0  0.35037  0.58241  0.93422  1.0000
  C   C2500     1.0  0.35911  0.58353  0.93773  1.0000
  C   C2501     1.0  0.36211  0.59372  0.93497  1.0000
  C   C2502     1.0  0.35658  0.60284  0.92844  1.0000
  C   C2503     1.0  0.34795  0.60168  0.92477  1.0000
  C   C2504     1.0  0.34477  0.59155  0.92775  1.0000
  H   H4284     1.0  0.36355  0.57651  0.94265  1.0000
  H   H4285     1.0  0.36879  0.59448  0.93780  1.0000
  H   H4286     1.0  0.34368  0.60867  0.91963  1.0000
  H   H4287     1.0  0.33810  0.59078  0.92490  1.0000
  C   C2505     1.0  0.30479  0.58136  0.97285  1.0000
  H   H4288     1.0  0.43337  0.94663  0.81129  1.0000
  H   H4289     1.0  0.46980  0.65811  0.97730  1.0000
  H   H4290     1.0  0.45724  0.76388  0.90600  1.0000
  H   H4291     1.0  0.28550  0.60202  0.93489  1.0000
  H   H4292     1.0  0.45340  0.68055  0.93094  1.0000
  H   H4293     1.0  0.38197  0.92963  0.96872  1.0000
  C   C2506     1.0  0.47558  0.93525  0.90082  1.0000
  H   H4294     1.0  0.44665  0.74133  0.92808  1.0000
  C   C2507     1.0  0.26834  0.59830  0.95290  1.0000
  C   C2508     1.0  0.31760  0.52151  0.94540  1.0000
  C   C2509     1.0  0.31518  0.52661  0.93512  1.0000
  C   C2510     1.0  0.31254  0.52060  0.92915  1.0000
  C   C2511     1.0  0.31215  0.50949  0.93347  1.0000
  C   C2512     1.0  0.31490  0.50428  0.94362  1.0000
  C   C2513     1.0  0.31758  0.51029  0.94960  1.0000
  H   H4295     1.0  0.31526  0.53522  0.93177  1.0000
  H   H4296     1.0  0.31054  0.52466  0.92125  1.0000
  H   H4297     1.0  0.31466  0.49571  0.94697  1.0000
  H   H4298     1.0  0.31948  0.50628  0.95754  1.0000
  C   C2514     1.0  0.29057  0.57476  0.91498  1.0000
  C   C2515     1.0  0.28439  0.56760  0.92266  1.0000
  C   C2516     1.0  0.27340  0.56893  0.92254  1.0000
  C   C2517     1.0  0.26865  0.57744  0.91477  1.0000
  C   C2518     1.0  0.27489  0.58448  0.90716  1.0000
  C   C2519     1.0  0.28578  0.58309  0.90721  1.0000
  H   H4299     1.0  0.28812  0.56100  0.92854  1.0000
  H   H4300     1.0  0.48079  0.65633  0.94724  1.0000
  H   H4301     1.0  0.42820  0.74048  0.94302  1.0000
  S   S762      1.0  0.46312  0.92464  0.93787  1.0000
  Fe  Fe382     1.0  0.38928  0.96533  0.84655  1.0000
  H   H4302     1.0  0.25825  0.60888  0.96387  1.0000
  H   H4303     1.0  0.24677  0.50911  0.93896  1.0000
  H   H4304     1.0  0.35337  0.80829  0.97591  1.0000
  H   H4305     1.0  0.29308  0.50263  0.89366  1.0000
  C   C2520     1.0  0.46006  0.94482  0.85348  1.0000
  H   H4306     1.0  0.42092  0.77224  0.90801  1.0000
  H   H4307     1.0  0.40580  0.59062  0.96986  1.0000
  C   C2521     1.0  0.38822  0.96786  0.80217  1.0000
  C   C2522     1.0  0.44112  0.75634  0.94012  1.0000
  C   C2523     1.0  0.39142  0.89389  0.97059  1.0000
  H   H4308     1.0  0.43695  0.93174  0.91116  1.0000
  H   H4309     1.0  0.35321  0.94954  0.87014  1.0000
  C   C2524     1.0  0.46241  0.93803  0.91764  1.0000
  Fe  Fe383     1.0  0.40613  0.96185  0.76162  1.0000
  Fe  Fe384     1.0  0.47226  0.97635  0.86038  1.0000
  H   H4310     1.0  0.38899  0.74681  0.97277  1.0000
  S   S763      1.0  0.37579  0.97429  0.85782  1.0000
  Fe  Fe385     1.0  0.46218  0.95458  0.78524  1.0000
  H   H4311     1.0  0.44750  0.81702  0.96730  1.0000
  H   H4312     1.0  0.26128  0.60026  0.93547  1.0000
  H   H4313     1.0  0.37508  0.53866  0.96315  1.0000
  H   H4314     1.0  0.28424  0.49294  0.89767  1.0000
  H   H4315     1.0  0.24223  0.55952  0.96853  1.0000
  H   H4316     1.0  0.48465  0.86070  0.94128  1.0000
  C   C2525     1.0  0.40103  0.85617  0.97784  1.0000
  H   H4317     1.0  0.39332  0.77310  0.94189  1.0000
  H   H4318     1.0  0.34933  0.56567  0.97223  1.0000
  H   H4319     1.0  0.37414  0.93594  0.93278  1.0000
  N   N177      1.0  0.43542  0.83833  0.91697  1.0000
  C   C2526     1.0  0.43218  0.82915  0.91453  1.0000
  C   C2527     1.0  0.43359  0.83680  0.92923  1.0000
  C   C2528     1.0  0.42969  0.84964  0.91185  1.0000
  C   C2529     1.0  0.43388  0.82928  0.90226  1.0000
  C   C2530     1.0  0.42177  0.83819  0.93575  1.0000
  C   C2531     1.0  0.41745  0.85144  0.91225  1.0000
  H   H4320     1.0  0.42361  0.82887  0.91825  1.0000
  H   H4321     1.0  0.43675  0.82101  0.91837  1.0000
  H   H4322     1.0  0.43054  0.85593  0.91570  1.0000
  H   H4323     1.0  0.43367  0.85196  0.90301  1.0000
  H   H4324     1.0  0.43006  0.83730  0.89762  1.0000
  H   H4325     1.0  0.44259  0.82705  0.89836  1.0000
  H   H4326     1.0  0.43008  0.82294  0.90155  1.0000
  H   H4327     1.0  0.42167  0.83564  0.94468  1.0000
  H   H4328     1.0  0.41726  0.83300  0.93419  1.0000
  H   H4329     1.0  0.41747  0.84695  0.93415  1.0000
  H   H4330     1.0  0.41295  0.85901  0.91529  1.0000
  H   H4331     1.0  0.41346  0.84482  0.91758  1.0000
  H   H4332     1.0  0.41606  0.85291  0.90386  1.0000
  S   S764      1.0  0.40531  0.79136  0.93405  1.0000
  C   C2532     1.0  0.38643  0.71588  0.96959  1.0000
  C   C2533     1.0  0.44135  0.95037  0.82178  1.0000
  H   H4333     1.0  0.34988  0.52795  0.97868  1.0000
  H   H4334     1.0  0.43211  0.92972  0.75068  1.0000
  C   C2534     1.0  0.43298  0.98834  0.75732  1.0000
  Fe  Fe386     1.0  0.47513  0.95827  0.88084  1.0000
  S   S765      1.0  0.38697  0.88756  0.96284  1.0000
  C   C2535     1.0  0.40832  0.68844  0.98404  1.0000
  H   H4335     1.0  0.27906  0.50616  0.97890  1.0000
  H   H4336     1.0  0.38835  0.70870  0.97633  1.0000
  H   H4337     1.0  0.47449  0.94540  0.86411  1.0000
  H   H4338     1.0  0.44266  0.95997  0.77557  1.0000
  H   H4339     1.0  0.42667  0.92993  0.92380  1.0000
  C   C2536     1.0  0.44596  0.89732  0.92244  1.0000
  H   H4340     1.0  0.42458  0.76011  0.93889  1.0000
  H   H4341     1.0  0.45391  0.89312  0.92467  1.0000
  H   H4342     1.0  0.27321  0.57713  0.96270  1.0000
  H   H4343     1.0  0.45519  0.93980  0.85205  1.0000
  S   S766      1.0  0.48617  0.89087  0.98116  1.0000
  H   H4344     1.0  0.26886  0.53487  0.89428  1.0000
  H   H4345     1.0  0.29518  0.59757  0.97402  1.0000
  Fe  Fe387     1.0  0.40653  0.96953  0.85521  1.0000
  C   C2537     1.0  0.47744  0.68337  0.94733  1.0000
  H   H4346     1.0  0.44155  0.90154  0.94341  1.0000
  H   H4347     1.0  0.42566  0.60995  0.97361  1.0000
  H   H4348     1.0  0.41652  0.97754  0.82033  1.0000
  H   H4349     1.0  0.45524  0.91003  0.92925  1.0000
  H   H4350     1.0  0.43980  0.89496  0.92997  1.0000
  H   H4351     1.0  0.36225  0.54865  0.97492  1.0000
  N   N178      1.0  0.27773  0.52869  0.95051  1.0000
  C   C2538     1.0  0.27510  0.53145  0.93933  1.0000
  C   C2539     1.0  0.26780  0.52617  0.95904  1.0000
  C   C2540     1.0  0.28693  0.51881  0.95174  1.0000
  C   C2541     1.0  0.28106  0.53834  0.95187  1.0000
  C   C2542     1.0  0.28465  0.53272  0.92934  1.0000
  C   C2543     1.0  0.25854  0.53616  0.96111  1.0000
  H   H4352     1.0  0.24993  0.51399  0.97538  1.0000
  C   C2544     1.0  0.28366  0.53718  0.96307  1.0000
  H   H4353     1.0  0.27137  0.52513  0.93851  1.0000
  H   H4354     1.0  0.26890  0.53928  0.93823  1.0000
  H   H4355     1.0  0.26985  0.52160  0.96704  1.0000
  C   C2545     1.0  0.37567  0.68324  0.97475  1.0000
  S   S767      1.0  0.40936  0.97689  0.76401  1.0000
  H   H4356     1.0  0.28864  0.51674  0.96009  1.0000
  H   H4357     1.0  0.28855  0.53987  0.94568  1.0000
  H   H4358     1.0  0.27499  0.54613  0.95002  1.0000
  H   H4359     1.0  0.28148  0.53531  0.92172  1.0000
  H   H4360     1.0  0.28880  0.53914  0.92911  1.0000
  H   H4361     1.0  0.29058  0.52482  0.92890  1.0000
  H   H4362     1.0  0.44678  0.67760  0.92227  1.0000
  C   C2546     1.0  0.38780  0.97907  0.80059  1.0000
  C   C2547     1.0  0.45733  0.94218  0.75154  1.0000
  H   H4363     1.0  0.48519  0.94326  0.92361  1.0000
  H   H4364     1.0  0.40548  0.89768  0.95830  1.0000
  Fe  Fe388     1.0  0.24000  0.54773  0.93969  1.0000
  H   H4365     1.0  0.29244  0.53361  0.96278  1.0000
  H   H4366     1.0  0.27893  0.53206  0.96998  1.0000
  H   H4367     1.0  0.28156  0.54539  0.96510  1.0000
  C   C2548     1.0  0.24970  0.59055  0.94559  1.0000
  H   H4368     1.0  0.46548  0.89768  0.90732  1.0000
  H   H4369     1.0  0.42675  0.97138  0.79812  1.0000
  C   C2549     1.0  0.38517  0.72673  0.97305  1.0000
  C   C2550     1.0  0.39559  0.82316  0.97399  1.0000
  C   C2551     1.0  0.37365  0.74170  0.98188  1.0000
  C   C2552     1.0  0.38534  0.89467  0.98117  1.0000
  H   H4370     1.0  0.41454  0.58812  0.97862  1.0000
  C   C2553     1.0  0.43598  0.97777  0.85869  1.0000
  C   C2554     1.0  0.48263  0.76686  0.91686  1.0000
  S   S768      1.0  0.24841  0.52987  0.94106  1.0000
  C   C2555     1.0  0.42440  0.97142  0.81968  1.0000
  H   H4371     1.0  0.46918  0.76666  0.93108  1.0000
  C   C2556     1.0  0.48083  0.68131  0.88248  1.0000
  C   C2557     1.0  0.47457  0.68811  0.93721  1.0000
  H   H4372     1.0  0.42936  0.93936  0.73852  1.0000
  H   H4373     1.0  0.36426  0.72254  0.97580  1.0000
  C   C2558     1.0  0.41709  0.95010  0.83405  1.0000
  S   S769      1.0  0.48569  0.71472  0.92932  1.0000
  H   H4374     1.0  0.37839  0.72984  0.95273  1.0000
  H   H4375     1.0  0.43109  0.69892  0.94880  1.0000
  H   H4376     1.0  0.41385  0.95027  0.81899  1.0000
  H   H4377     1.0  0.35585  0.60062  0.96677  1.0000
  H   H4378     1.0  0.44152  0.97238  0.81282  1.0000
  C   C2559     1.0  0.24012  0.52086  0.94927  1.0000
  C   C2560     1.0  0.31991  0.57511  0.98194  1.0000
  H   H4379     1.0  0.41264  0.92383  0.93920  1.0000
  H   H4380     1.0  0.34162  0.56074  0.96611  1.0000
  H   H4381     1.0  0.42236  0.74712  0.96778  1.0000
  N   N179      1.0  0.37279  0.93262  0.86571  1.0000
  C   C2561     1.0  0.38155  0.92868  0.85642  1.0000
  C   C2562     1.0  0.36281  0.92888  0.86607  1.0000
  C   C2563     1.0  0.37673  0.92743  0.87631  1.0000
  C   C2564     1.0  0.37086  0.94499  0.86340  1.0000
  C   C2565     1.0  0.39287  0.93064  0.85530  1.0000
  C   C2566     1.0  0.35824  0.93315  0.85555  1.0000
  C   C2567     1.0  0.36818  0.92473  0.88696  1.0000
  Fe  Fe389     1.0  0.47905  0.96155  0.79192  1.0000
  H   H4382     1.0  0.38251  0.91970  0.85723  1.0000
  H   H4383     1.0  0.37940  0.93282  0.84833  1.0000
  C   C2568     1.0  0.40537  0.74710  0.95303  1.0000
  H   H4384     1.0  0.36450  0.91972  0.86785  1.0000
  H   H4385     1.0  0.38253  0.91938  0.87578  1.0000
  H   H4386     1.0  0.38139  0.93262  0.87783  1.0000
  H   H4387     1.0  0.37797  0.94754  0.86411  1.0000
  H   H4388     1.0  0.37003  0.94869  0.85476  1.0000
  H   H4389     1.0  0.39281  0.93950  0.85276  1.0000
  H   H4390     1.0  0.39606  0.92704  0.86287  1.0000
  H   H4391     1.0  0.39868  0.92681  0.84867  1.0000
  H   H4392     1.0  0.46551  0.93854  0.75341  1.0000
  H   H4393     1.0  0.35658  0.94223  0.85293  1.0000
  H   H4394     1.0  0.36365  0.92943  0.84868  1.0000
  H   H4395     1.0  0.36157  0.93188  0.88860  1.0000
  C   C2569     1.0  0.45654  0.95669  0.84707  1.0000
  H   H4396     1.0  0.45919  0.62575  0.98022  1.0000
  H   H4397     1.0  0.46784  0.77898  0.90389  1.0000
  N   N180      1.0  0.36974  0.80153  0.97866  1.0000
  C   C2570     1.0  0.35816  0.52845  0.97364  1.0000
  N   N181      1.0  0.42101  0.59580  0.96186  1.0000
  C   C2571     1.0  0.41578  0.60724  0.96374  1.0000
  C   C2572     1.0  0.42110  0.59576  0.95023  1.0000
  C   C2573     1.0  0.47393  0.68141  0.93074  1.0000
  H   H4398     1.0  0.27078  0.58933  0.98408  1.0000
  H   H4399     1.0  0.36743  0.65512  0.97377  1.0000
  C   C2574     1.0  0.41008  0.59630  0.94800  1.0000
  H   H4400     1.0  0.26549  0.50632  0.93977  1.0000
  H   H4401     1.0  0.39903  0.84786  0.96614  1.0000
  H   H4402     1.0  0.39232  0.78033  0.98390  1.0000
  H   H4403     1.0  0.40690  0.60912  0.96417  1.0000
  H   H4404     1.0  0.42688  0.58845  0.94751  1.0000
  H   H4405     1.0  0.42415  0.60288  0.94435  1.0000
  C   C2575     1.0  0.40069  0.89830  0.96642  1.0000
  C   C2576     1.0  0.45144  0.72586  0.97409  1.0000
  C   C2577     1.0  0.47970  0.67189  0.95093  1.0000
  H   H4406     1.0  0.43532  0.74946  0.96650  1.0000
  H   H4407     1.0  0.30609  0.49086  0.96664  1.0000
  H   H4408     1.0  0.46003  0.96261  0.84894  1.0000
  H   H4409     1.0  0.46996  0.98644  0.74686  1.0000
  H   H4410     1.0  0.40731  0.58851  0.95189  1.0000
  H   H4411     1.0  0.40379  0.60318  0.95085  1.0000
  H   H4412     1.0  0.41087  0.59767  0.93900  1.0000
  H   H4413     1.0  0.36380  0.74741  0.96549  1.0000
  H   H4414     1.0  0.24832  0.58305  0.94417  1.0000
  C   C2578     1.0  0.40952  0.69363  0.97292  1.0000
  H   H4415     1.0  0.25126  0.53329  0.96656  1.0000
  H   H4416     1.0  0.44939  0.89463  0.90549  1.0000
  H   H4417     1.0  0.31559  0.61190  0.96552  1.0000
  N   N182      1.0  0.47201  0.93966  0.85095  1.0000
  C   C2579     1.0  0.45266  0.76051  0.91427  1.0000
  Fe  Fe390     1.0  0.40288  0.98547  0.74894  1.0000
  C   C2580     1.0  0.47644  0.94086  0.83877  1.0000
  C   C2581     1.0  0.47789  0.94541  0.85525  1.0000
  C   C2582     1.0  0.32246  0.62283  0.96960  1.0000
  C   C2583     1.0  0.47085  0.93607  0.83280  1.0000
  H   H4418     1.0  0.47128  0.96679  0.92260  1.0000
  H   H4419     1.0  0.44139  0.59960  0.94703  1.0000
  H   H4420     1.0  0.44638  0.63561  0.96910  1.0000
  H   H4421     1.0  0.48174  0.92292  0.85295  1.0000
  H   H4422     1.0  0.46783  0.92384  0.85456  1.0000
  H   H4423     1.0  0.47609  0.94963  0.83466  1.0000
  H   H4424     1.0  0.48521  0.93684  0.83698  1.0000
  H   H4425     1.0  0.47660  0.95430  0.85126  1.0000
  C   C2584     1.0  0.46466  0.90617  0.90813  1.0000
  H   H4426     1.0  0.46998  0.91013  0.90069  1.0000
  H   H4427     1.0  0.28657  0.58333  0.94698  1.0000
  H   H4428     1.0  0.47204  0.92702  0.83561  1.0000
  C   C2585     1.0  0.40499  0.84724  0.97100  1.0000
  H   H4429     1.0  0.28355  0.49255  0.91758  1.0000
  C   C2586     1.0  0.43002  0.87389  0.95029  1.0000
  H   H4430     1.0  0.48625  0.83257  0.96521  1.0000
  N   N183      1.0  0.35797  0.53947  0.96569  1.0000
  H   H4431     1.0  0.44313  0.94126  0.82431  1.0000
  C   C2587     1.0  0.34932  0.54116  0.95946  1.0000
  H   H4432     1.0  0.36831  0.92796  0.97076  1.0000
  C   C2588     1.0  0.36911  0.53915  0.95834  1.0000
  C   C2589     1.0  0.36169  0.96923  0.73546  1.0000
  C   C2590     1.0  0.35113  0.53284  0.95233  1.0000
  H   H4433     1.0  0.46915  0.97153  0.81114  1.0000
  C   C2591     1.0  0.37059  0.54896  0.94855  1.0000
  H   H4434     1.0  0.39811  0.86407  0.97224  1.0000
  H   H4435     1.0  0.36070  0.52164  0.96922  1.0000
  H   H4436     1.0  0.34817  0.54936  0.95388  1.0000
  H   H4437     1.0  0.34131  0.54104  0.96528  1.0000
  H   H4438     1.0  0.44188  0.76305  0.94341  1.0000
  Fe  Fe391     1.0  0.47901  0.96511  0.76766  1.0000
  C   C2592     1.0  0.36581  0.52542  0.98165  1.0000
  H   H4439     1.0  0.37225  0.53148  0.95513  1.0000
  Fe  Fe392     1.0  0.46138  0.97871  0.78197  1.0000
  H   H4440     1.0  0.43035  0.73599  0.98375  1.0000
  C   C2593     1.0  0.43604  0.93374  0.74236  1.0000
  H   H4441     1.0  0.35898  0.53245  0.94628  1.0000
  H   H4442     1.0  0.35041  0.52453  0.95736  1.0000
  H   H4443     1.0  0.34467  0.53555  0.94755  1.0000
  S   S770      1.0  0.42438  0.96801  0.85140  1.0000
  C   C2594     1.0  0.47662  0.97445  0.83300  1.0000
  H   H4444     1.0  0.47267  0.69696  0.93443  1.0000
  H   H4445     1.0  0.44488  0.90007  0.98362  1.0000
  H   H4446     1.0  0.36374  0.55206  0.94441  1.0000
  H   H4447     1.0  0.37760  0.54623  0.94208  1.0000
  N   N184      1.0  0.40945  0.66325  0.91425  1.0000
  C   C2595     1.0  0.40153  0.66545  0.90701  1.0000
  C   C2596     1.0  0.41180  0.67413  0.91367  1.0000
  C   C2597     1.0  0.40404  0.65851  0.92583  1.0000
  C   C2598     1.0  0.41942  0.65512  0.91008  1.0000
  C   C2599     1.0  0.39650  0.65573  0.90786  1.0000
  C   C2600     1.0  0.41723  0.68001  0.90225  1.0000
  C   C2601     1.0  0.40831  0.65961  0.93528  1.0000
  C   C2602     1.0  0.42940  0.65298  0.91499  1.0000
  H   H4448     1.0  0.39464  0.67246  0.90884  1.0000
  H   H4449     1.0  0.40541  0.66797  0.89820  1.0000
  H   H4450     1.0  0.41702  0.67343  0.91930  1.0000
  H   H4451     1.0  0.40417  0.67990  0.91659  1.0000
  H   H4452     1.0  0.39531  0.66251  0.92756  1.0000
  H   H4453     1.0  0.40423  0.64968  0.92685  1.0000
  H   H4454     1.0  0.41754  0.64690  0.91162  1.0000
  H   H4455     1.0  0.42208  0.65730  0.90097  1.0000
  H   H4456     1.0  0.39119  0.65353  0.91605  1.0000
  H   H4457     1.0  0.39128  0.65822  0.90180  1.0000
  H   H4458     1.0  0.40271  0.64835  0.90596  1.0000
  H   H4459     1.0  0.41168  0.68290  0.89649  1.0000
  H   H4460     1.0  0.41923  0.68746  0.90309  1.0000
  H   H4461     1.0  0.42491  0.67478  0.89870  1.0000
  H   H4462     1.0  0.40591  0.66822  0.93630  1.0000
  H   H4463     1.0  0.41717  0.65666  0.93426  1.0000
  H   H4464     1.0  0.40446  0.65463  0.94310  1.0000
  H   H4465     1.0  0.42898  0.64643  0.92258  1.0000
  H   H4466     1.0  0.43072  0.66032  0.91667  1.0000
  H   H4467     1.0  0.43682  0.65020  0.90895  1.0000
  N   N185      1.0  0.44030  0.67076  0.95109  1.0000
  C   C2603     1.0  0.43588  0.66101  0.95845  1.0000
  C   C2604     1.0  0.45128  0.66965  0.95322  1.0000
  C   C2605     1.0  0.44164  0.67002  0.93939  1.0000
  C   C2606     1.0  0.43248  0.68123  0.95351  1.0000
  C   C2607     1.0  0.42497  0.65999  0.95704  1.0000
  C   C2608     1.0  0.45146  0.66884  0.96525  1.0000
  C   C2609     1.0  0.44557  0.67947  0.93041  1.0000
  C   C2610     1.0  0.43730  0.69148  0.95108  1.0000
  H   H4468     1.0  0.44181  0.65320  0.95723  1.0000
  H   H4469     1.0  0.43460  0.66112  0.96726  1.0000
  H   H4470     1.0  0.45518  0.67644  0.94812  1.0000
  H   H4471     1.0  0.45702  0.66230  0.95065  1.0000
  H   H4472     1.0  0.44733  0.66218  0.93777  1.0000
  H   H4473     1.0  0.43382  0.66993  0.93777  1.0000
  H   H4474     1.0  0.42585  0.68346  0.94901  1.0000
  H   H4475     1.0  0.42850  0.67991  0.96240  1.0000
  H   H4476     1.0  0.41879  0.66781  0.95686  1.0000
  H   H4477     1.0  0.42605  0.65689  0.94957  1.0000
  H   H4478     1.0  0.42171  0.65377  0.96407  1.0000
  H   H4479     1.0  0.37787  0.95222  0.93634  1.0000
  H   H4480     1.0  0.45891  0.67113  0.96545  1.0000
  C   C2611     1.0  0.28982  0.49616  0.90034  1.0000
  H   H4481     1.0  0.44047  0.97946  0.85027  1.0000
  C   C2612     1.0  0.42154  0.97042  0.87235  1.0000
  H   H4482     1.0  0.43756  0.95359  0.82930  1.0000
  H   H4483     1.0  0.42372  0.75969  0.97026  1.0000
  H   H4484     1.0  0.44445  0.69193  0.94421  1.0000
  H   H4485     1.0  0.43908  0.69242  0.95859  1.0000
  N   N186      1.0  0.33221  0.60968  0.95626  1.0000
  C   C2613     1.0  0.33205  0.59854  0.95491  1.0000
  C   C2614     1.0  0.34343  0.60914  0.95743  1.0000
  C   C2615     1.0  0.32977  0.61818  0.94611  1.0000
  C   C2616     1.0  0.32373  0.61194  0.96637  1.0000
  C   C2617     1.0  0.32237  0.59790  0.95078  1.0000
  C   C2618     1.0  0.34782  0.59972  0.96643  1.0000
  C   C2619     1.0  0.33432  0.62867  0.94312  1.0000
  N   N187      1.0  0.42385  0.96221  0.81502  1.0000
  H   H4486     1.0  0.33949  0.59543  0.94908  1.0000
  H   H4487     1.0  0.33214  0.59232  0.96281  1.0000
  H   H4488     1.0  0.34398  0.61688  0.95904  1.0000
  H   H4489     1.0  0.34937  0.60825  0.94956  1.0000
  H   H4490     1.0  0.33326  0.61461  0.93868  1.0000
  H   H4491     1.0  0.32087  0.62079  0.94659  1.0000
  H   H4492     1.0  0.29263  0.59176  0.92727  1.0000
  H   H4493     1.0  0.44419  0.78852  0.96785  1.0000
  H   H4494     1.0  0.31443  0.60128  0.95571  1.0000
  H   H4495     1.0  0.32285  0.60203  0.94200  1.0000
  H   H4496     1.0  0.32266  0.58912  0.95140  1.0000
  H   H4497     1.0  0.34918  0.59155  0.96454  1.0000
  C   C2620     1.0  0.42691  0.75070  0.97136  1.0000
  H   H4498     1.0  0.34244  0.59991  0.97464  1.0000
  C   C2621     1.0  0.24761  0.56500  0.97995  1.0000
  H   H4499     1.0  0.34322  0.62682  0.93997  1.0000
  H   H4500     1.0  0.41223  0.61808  0.97495  1.0000
  C   C2622     1.0  0.47764  0.69629  0.89213  1.0000
  H   H4501     1.0  0.26423  0.52054  0.95674  1.0000
  N   N188      1.0  0.45380  0.93447  0.74710  1.0000
  H   H4502     1.0  0.42790  0.78222  0.97069  1.0000
  C   C2623     1.0  0.37054  0.97163  0.73755  1.0000
  C   C2624     1.0  0.43312  0.87659  0.95851  1.0000
  C   C2625     1.0  0.45289  0.91296  0.90881  1.0000
  C   C2626     1.0  0.43457  0.95418  0.81283  1.0000
  S   S771      1.0  0.40137  0.97007  0.74548  1.0000
  Fe  Fe393     1.0  0.47673  0.70958  0.94668  1.0000
  S   S772      1.0  0.48303  0.62062  0.97084  1.0000
  H   H4503     1.0  0.44937  0.83835  0.90323  1.0000
  H   H4504     1.0  0.43671  0.84293  0.93123  1.0000
  S   S773      1.0  0.25497  0.57988  0.91415  1.0000
  H   H4505     1.0  0.43846  0.75009  0.94745  1.0000
  C   C2627     1.0  0.41328  0.80883  0.98201  1.0000
  H   H4506     1.0  0.47872  0.92651  0.87150  1.0000
  C   C2628     1.0  0.47905  0.66517  0.94442  1.0000
  H   H4507     1.0  0.44933  0.95268  0.81837  1.0000
  C   C2629     1.0  0.38627  0.85520  0.92595  1.0000
  S   S774      1.0  0.38450  0.81893  0.93900  1.0000
  N   N189      1.0  0.27385  0.50849  0.91133  1.0000
  C   C2630     1.0  0.43784  0.87079  0.94124  1.0000
  H   H4508     1.0  0.38057  0.85870  0.97779  1.0000
  H   H4509     1.0  0.45785  0.68387  0.88848  1.0000
  C   C2631     1.0  0.28522  0.50823  0.94995  1.0000
  C   C2632     1.0  0.26953  0.50269  0.93246  1.0000
  H   H4510     1.0  0.36400  0.73064  0.95880  1.0000
  H   H4511     1.0  0.44325  0.79384  0.93298  1.0000
  C   C2633     1.0  0.34999  0.56005  0.96689  1.0000
  S   S775      1.0  0.40534  0.76568  0.95918  1.0000
  C   C2634     1.0  0.42304  0.75722  0.92103  1.0000
  C   C2635     1.0  0.46793  0.92837  0.92359  1.0000
  S   S776      1.0  0.38644  0.95693  0.83493  1.0000
  H   H4512     1.0  0.45580  0.69566  0.89437  1.0000
  H   H4513     1.0  0.45180  0.94356  0.75947  1.0000
  H   H4514     1.0  0.41502  0.96615  0.87455  1.0000
  N   N190      1.0  0.37398  0.73409  0.97478  1.0000
  C   C2636     1.0  0.44449  0.89208  0.91381  1.0000
  H   H4515     1.0  0.36167  0.94847  0.87949  1.0000
  H   H4516     1.0  0.37969  0.80860  0.96323  1.0000
  C   C2637     1.0  0.37605  0.93323  0.95352  1.0000
  H   H4517     1.0  0.45522  0.94296  0.92184  1.0000
  H   H4518     1.0  0.43237  0.91289  0.91003  1.0000
  H   H4519     1.0  0.47505  0.85828  0.98235  1.0000
  S   S777      1.0  0.46080  0.72093  0.94427  1.0000
  C   C2638     1.0  0.40540  0.82000  0.96670  1.0000
  H   H4520     1.0  0.46928  0.78011  0.96416  1.0000
  H   H4521     1.0  0.47055  0.95771  0.91467  1.0000
  H   H4522     1.0  0.42743  0.91144  0.92443  1.0000
  C   C2639     1.0  0.45146  0.92493  0.75646  1.0000
  C   C2640     1.0  0.39303  0.84830  0.93292  1.0000
  H   H4523     1.0  0.44551  0.98490  0.86458  1.0000
  H   H4524     1.0  0.31908  0.62995  0.96357  1.0000
  C   C2641     1.0  0.39293  0.75842  0.93747  1.0000
  C   C2642     1.0  0.43250  0.59232  0.96338  1.0000
  H   H4525     1.0  0.26065  0.54144  0.96523  1.0000
  C   C2643     1.0  0.37198  0.91514  0.94696  1.0000
  S   S778      1.0  0.47459  0.74031  0.93161  1.0000
  H   H4526     1.0  0.45836  0.91125  0.76836  1.0000
  H   H4527     1.0  0.38795  0.95243  0.81398  1.0000
  Fe  Fe394     1.0  0.40463  0.69927  0.94738  1.0000
  C   C2644     1.0  0.39543  0.92796  0.94603  1.0000
  H   H4528     1.0  0.45856  0.77849  0.95885  1.0000
  H   H4529     1.0  0.46776  0.69969  0.90809  1.0000
  H   H4530     1.0  0.47718  0.68680  0.97862  1.0000
  S   S779      1.0  0.38666  0.86918  0.92031  1.0000
  H   H4531     1.0  0.35040  0.93070  0.85722  1.0000
  H   H4532     1.0  0.38459  0.65827  0.97330  1.0000
  H   H4533     1.0  0.29062  0.50339  0.91305  1.0000
  H   H4534     1.0  0.39100  0.73130  0.96686  1.0000
  C   C2645     1.0  0.40500  0.92436  0.93687  1.0000
  C   C2646     1.0  0.38362  0.60689  0.97732  1.0000
  H   H4535     1.0  0.24690  0.59061  0.95440  1.0000
  Fe  Fe395     1.0  0.48476  0.88524  0.94501  1.0000
  Fe  Fe396     1.0  0.40001  0.80654  0.94099  1.0000
  H   H4536     1.0  0.40979  0.94684  0.83875  1.0000
  C   C2647     1.0  0.43140  0.95396  0.77081  1.0000
  H   H4537     1.0  0.45843  0.80170  0.93282  1.0000
  H   H4538     1.0  0.40500  0.73242  0.94853  1.0000
  H   H4539     1.0  0.47828  0.76323  0.91304  1.0000
  C   C2648     1.0  0.47450  0.78201  0.89741  1.0000
  S   S780      1.0  0.41382  0.71253  0.93823  1.0000
  C   C2649     1.0  0.28452  0.50015  0.91114  1.0000
  H   H4540     1.0  0.46010  0.84909  0.95066  1.0000
  C   C2650     1.0  0.30846  0.59326  0.98220  1.0000
  H   H4541     1.0  0.37226  0.82708  0.96185  1.0000
  H   H4542     1.0  0.46119  0.95821  0.74804  1.0000
  H   H4543     1.0  0.44606  0.92252  0.92617  1.0000
  H   H4544     1.0  0.28265  0.52129  0.90266  1.0000
  H   H4545     1.0  0.27695  0.51607  0.92262  1.0000
  S   S781      1.0  0.48096  0.79355  0.94319  1.0000
  H   H4546     1.0  0.43845  0.94634  0.74826  1.0000
  S   S782      1.0  0.46283  0.90199  0.96447  1.0000
  H   H4547     1.0  0.42925  0.96143  0.76489  1.0000
  H   H4548     1.0  0.39597  0.93606  0.94692  1.0000
  H   H4549     1.0  0.43367  0.82517  0.96733  1.0000
  H   H4550     1.0  0.42162  0.87393  0.95113  1.0000
  S   S783      1.0  0.38798  0.89399  0.93118  1.0000
  C   C2651     1.0  0.38638  0.96556  0.82182  1.0000
  C   C2652     1.0  0.40212  0.75860  0.95118  1.0000
  C   C2653     1.0  0.47412  0.97033  0.81687  1.0000
  C   C2654     1.0  0.39614  0.74693  0.93933  1.0000
  H   H4551     1.0  0.46352  0.95320  0.73599  1.0000
  C   C2655     1.0  0.45817  0.83411  0.96374  1.0000
  C   C2656     1.0  0.37150  0.74115  0.96400  1.0000
  H   H4552     1.0  0.45715  0.94506  0.86234  1.0000
  C   C2657     1.0  0.37056  0.73522  0.95569  1.0000
  H   H4553     1.0  0.37378  0.85613  0.91780  1.0000
  H   H4554     1.0  0.26309  0.53170  0.90854  1.0000
  H   H4555     1.0  0.34901  0.54611  0.98005  1.0000
  C   C2658     1.0  0.47206  0.92483  0.86899  1.0000
  C   C2659     1.0  0.37855  0.83979  0.92727  1.0000
  H   H4556     1.0  0.46987  0.76743  0.96098  1.0000
  H   H4557     1.0  0.45032  0.91272  0.90144  1.0000
  H   H4558     1.0  0.46320  0.82868  0.96951  1.0000
  Fe  Fe397     1.0  0.41880  0.80044  0.95190  1.0000
  C   C2660     1.0  0.41516  0.95648  0.82260  1.0000
  C   C2661     1.0  0.41442  0.70266  0.96885  1.0000
  H   H4559     1.0  0.48193  0.66815  0.95875  1.0000
  C   C2662     1.0  0.38296  0.62495  0.97962  1.0000
  H   H4560     1.0  0.48321  0.97135  0.90497  1.0000
  S   S784      1.0  0.40202  0.79739  0.95793  1.0000
  H   H4561     1.0  0.28454  0.50919  0.94142  1.0000
  H   H4562     1.0  0.46776  0.84650  0.96105  1.0000
  H   H4563     1.0  0.38831  0.72431  0.98068  1.0000
  S   S785      1.0  0.40255  0.86989  0.94155  1.0000
  H   H4564     1.0  0.36777  0.92054  0.94045  1.0000
  H   H4565     1.0  0.43628  0.58392  0.96185  1.0000
  H   H4566     1.0  0.41093  0.90695  0.96959  1.0000
  H   H4567     1.0  0.38790  0.93141  0.92677  1.0000
  H   H4568     1.0  0.37247  0.90651  0.94681  1.0000
  H   H4569     1.0  0.35582  0.80059  0.95960  1.0000
  S   S786      1.0  0.43396  0.86728  0.93112  1.0000
  Fe  Fe398     1.0  0.46690  0.73318  0.94881  1.0000
  H   H4570     1.0  0.45791  0.82873  0.95859  1.0000
  C   C2663     1.0  0.44875  0.87034  0.94042  1.0000
  H   H4571     1.0  0.44325  0.83369  0.95213  1.0000
  C   C2664     1.0  0.45184  0.87313  0.94859  1.0000
  H   H4572     1.0  0.36994  0.79516  0.95932  1.0000
  C   C2665     1.0  0.26887  0.56814  0.95353  1.0000
  C   C2666     1.0  0.26155  0.59169  0.94037  1.0000
  C   C2667     1.0  0.38355  0.91685  0.94510  1.0000
  H   H4573     1.0  0.47075  0.78994  0.89250  1.0000
  H   H4574     1.0  0.41890  0.61348  0.95671  1.0000
  H   H4575     1.0  0.42375  0.93074  0.91107  1.0000
  H   H4576     1.0  0.47871  0.78984  0.90782  1.0000
  H   H4577     1.0  0.45172  0.66026  0.97007  1.0000
  H   H4578     1.0  0.38291  0.95118  0.92235  1.0000
  H   H4579     1.0  0.39132  0.67295  0.97413  1.0000
  C   C2668     1.0  0.43027  0.92753  0.91579  1.0000
  C   C2669     1.0  0.44048  0.84257  0.95191  1.0000
  C   C2670     1.0  0.30209  0.59132  0.97620  1.0000
  H   H4580     1.0  0.27482  0.59636  0.95760  1.0000
  H   H4581     1.0  0.43937  0.68723  0.93058  1.0000
  C   C2671     1.0  0.26612  0.52820  0.90111  1.0000
  C   C2672     1.0  0.45507  0.73528  0.97317  1.0000
  H   H4582     1.0  0.45016  0.72414  0.96694  1.0000
  H   H4583     1.0  0.26465  0.49718  0.93205  1.0000
  C   C2673     1.0  0.43999  0.82128  0.97220  1.0000
  C   C2674     1.0  0.44402  0.87626  0.95761  1.0000
  H   H4584     1.0  0.43120  0.84747  0.96705  1.0000
  H   H4585     1.0  0.43636  0.72834  0.93855  1.0000
  H   H4586     1.0  0.42936  0.77370  0.98373  1.0000
  H   H4587     1.0  0.37219  0.55576  0.95105  1.0000
  S   S787      1.0  0.45778  0.74418  0.96039  1.0000
  C   C2675     1.0  0.41851  0.57578  0.96933  1.0000
  H   H4588     1.0  0.27754  0.56449  0.95061  1.0000
  S   S788      1.0  0.47440  0.66194  0.92626  1.0000
  C   C2676     1.0  0.43982  0.84613  0.96253  1.0000
  H   H4589     1.0  0.40547  0.75206  0.97997  1.0000
  H   H4590     1.0  0.44117  0.91467  0.94536  1.0000
  H   H4591     1.0  0.44825  0.59671  0.95791  1.0000
  H   H4592     1.0  0.43583  0.89391  0.91342  1.0000
  C   C2677     1.0  0.41736  0.76920  0.91679  1.0000
  H   H4593     1.0  0.31556  0.56549  0.97355  1.0000
  H   H4594     1.0  0.37324  0.78364  0.98239  1.0000
  H   H4595     1.0  0.46818  0.91509  0.75623  1.0000
  Fe  Fe399     1.0  0.39210  0.97992  0.77313  1.0000
  S   S789      1.0  0.42570  0.80715  0.96182  1.0000
  H   H4596     1.0  0.44457  0.92789  0.76292  1.0000
  H   H4597     1.0  0.41723  0.75393  0.92843  1.0000
  C   C2678     1.0  0.44364  0.94061  0.74292  1.0000
  C   C2679     1.0  0.23855  0.58329  0.98282  1.0000
  H   H4598     1.0  0.47227  0.91591  0.87215  1.0000
  H   H4599     1.0  0.28100  0.49226  0.97810  1.0000
  H   H4600     1.0  0.33257  0.63281  0.94996  1.0000
  H   H4601     1.0  0.40608  0.82293  0.95794  1.0000
  C   C2680     1.0  0.43955  0.91049  0.93979  1.0000
  C   C2681     1.0  0.41780  0.95989  0.79852  1.0000
  C   C2682     1.0  0.25750  0.60215  0.96060  1.0000
  N   N191      1.0  0.26920  0.58874  0.94803  1.0000
  H   H4602     1.0  0.47460  0.93783  0.82387  1.0000
  C   C2683     1.0  0.43246  0.76095  0.93305  1.0000
  H   H4603     1.0  0.42250  0.57462  0.96091  1.0000
  H   H4604     1.0  0.40732  0.96256  0.82383  1.0000
  C   C2684     1.0  0.24115  0.51097  0.94635  1.0000
  H   H4605     1.0  0.43987  0.95768  0.80507  1.0000
  H   H4606     1.0  0.37792  0.74583  0.95949  1.0000
  H   H4607     1.0  0.43082  0.91323  0.93979  1.0000
  C   C2685     1.0  0.38749  0.96112  0.81280  1.0000
  H   H4608     1.0  0.26466  0.58641  0.93423  1.0000
  C   C2686     1.0  0.42745  0.97240  0.86149  1.0000
  H   H4609     1.0  0.45728  0.75207  0.91694  1.0000
  H   H4610     1.0  0.33081  0.63467  0.93637  1.0000
  H   H4611     1.0  0.40439  0.73502  0.97817  1.0000
  C   C2687     1.0  0.37997  0.61829  0.97473  1.0000
  H   H4612     1.0  0.36766  0.93472  0.95235  1.0000
  S   S790      1.0  0.46093  0.96870  0.77072  1.0000
  H   H4613     1.0  0.41518  0.70683  0.96035  1.0000
  C   C2688     1.0  0.47359  0.92760  0.85637  1.0000
  C   C2689     1.0  0.48451  0.96362  0.81544  1.0000
  C   C2690     1.0  0.44199  0.82951  0.97753  1.0000
  H   H4614     1.0  0.26442  0.56937  0.94706  1.0000
  S   S791      1.0  0.40482  0.68867  0.96431  1.0000
  H   H4615     1.0  0.31652  0.62292  0.97758  1.0000
  H   H4616     1.0  0.24880  0.50811  0.90819  1.0000
  H   H4617     1.0  0.35525  0.61455  0.97777  1.0000
  H   H4618     1.0  0.43984  0.73994  0.91890  1.0000
  C   C2691     1.0  0.31366  0.57327  0.97580  1.0000
  H   H4619     1.0  0.43199  0.76994  0.93001  1.0000
  C   C2692     1.0  0.43350  0.91488  0.91738  1.0000
  C   C2693     1.0  0.43144  0.73665  0.93582  1.0000
  S   S792      1.0  0.44789  0.87956  0.96785  1.0000
  H   H4620     1.0  0.48479  0.66952  0.97592  1.0000
  H   H4621     1.0  0.38918  0.96438  0.79523  1.0000
  H   H4622     1.0  0.44709  0.88300  0.91629  1.0000
  C   C2694     1.0  0.45794  0.95367  0.74405  1.0000
  N   N192      1.0  0.43395  0.75560  0.92363  1.0000
  C   C2695     1.0  0.43852  0.74338  0.92624  1.0000
  C   C2696     1.0  0.44116  0.76084  0.91342  1.0000
  H   H4623     1.0  0.43759  0.76973  0.91077  1.0000
  H   H4624     1.0  0.35489  0.56310  0.95878  1.0000
  H   H4625     1.0  0.44935  0.75293  0.93579  1.0000
  H   H4626     1.0  0.38067  0.63380  0.97702  1.0000
  C   C2697     1.0  0.44679  0.91346  0.92828  1.0000
  H   H4627     1.0  0.44868  0.91889  0.75395  1.0000
  H   H4628     1.0  0.38826  0.91414  0.93739  1.0000
  Fe  Fe400     1.0  0.38600  0.98681  0.85352  1.0000
  Fe  Fe401     1.0  0.48203  0.61997  0.93336  1.0000
  H   H4629     1.0  0.47355  0.64416  0.96619  1.0000
  C   C2698     1.0  0.36039  0.80140  0.97418  1.0000
  C   C2699     1.0  0.47925  0.80944  0.97784  1.0000
  N   N193      1.0  0.38437  0.92835  0.94457  1.0000
  C   C2700     1.0  0.41717  0.60975  0.97414  1.0000
  H   H4630     1.0  0.42199  0.71341  0.97271  1.0000
  C   C2701     1.0  0.44296  0.63359  0.97804  1.0000
  C   C2702     1.0  0.47611  0.66996  0.93431  1.0000
  H   H4631     1.0  0.45226  0.85241  0.97207  1.0000
  H   H4632     1.0  0.45977  0.74457  0.98169  1.0000
  H   H4633     1.0  0.39350  0.71502  0.96258  1.0000
  H   H4634     1.0  0.40492  0.93033  0.92888  1.0000
  H   H4635     1.0  0.37948  0.71508  0.96696  1.0000
  H   H4636     1.0  0.48656  0.95316  0.92972  1.0000
  H   H4637     1.0  0.40827  0.85733  0.97975  1.0000
  C   C2703     1.0  0.36735  0.66001  0.97958  1.0000
  H   H4638     1.0  0.43727  0.60837  0.95676  1.0000
  H   H4639     1.0  0.36450  0.80986  0.95675  1.0000
  C   C2704     1.0  0.42443  0.97347  0.88050  1.0000
  C   C2705     1.0  0.46426  0.77445  0.96439  1.0000
  H   H4640     1.0  0.38243  0.81032  0.97491  1.0000
  C   C2706     1.0  0.48095  0.92541  0.90670  1.0000
  C   C2707     1.0  0.46771  0.68109  0.90054  1.0000
  H   H4641     1.0  0.45036  0.68406  0.90214  1.0000
  C   C2708     1.0  0.36886  0.82225  0.97000  1.0000
  C   C2709     1.0  0.47715  0.92197  0.91809  1.0000
  H   H4642     1.0  0.38736  0.91076  0.95159  1.0000
  H   H4643     1.0  0.45152  0.61685  0.97967  1.0000
  H   H4644     1.0  0.41263  0.84850  0.96499  1.0000
  H   H4645     1.0  0.40524  0.91612  0.93583  1.0000
  H   H4646     1.0  0.41143  0.57188  0.97184  1.0000
  H   H4647     1.0  0.39228  0.94757  0.93102  1.0000
  H   H4648     1.0  0.24416  0.59749  0.94128  1.0000
  H   H4649     1.0  0.37869  0.69092  0.97089  1.0000
  C   C2710     1.0  0.35504  0.54821  0.97231  1.0000
  H   H4650     1.0  0.47080  0.92783  0.74046  1.0000
  H   H4651     1.0  0.33010  0.62380  0.97081  1.0000
  C   C2711     1.0  0.48297  0.78403  0.90233  1.0000
  C   C2712     1.0  0.37757  0.79050  0.97890  1.0000
  S   S793      1.0  0.47792  0.69179  0.95560  1.0000
  H   H4652     1.0  0.40652  0.83882  0.97618  1.0000
  H   H4653     1.0  0.48144  0.91447  0.92262  1.0000
  H   H4654     1.0  0.34611  0.62604  0.98257  1.0000
  H   H4655     1.0  0.46603  0.68282  0.90881  1.0000
  N   N194      1.0  0.45028  0.77835  0.98213  1.0000
  H   H4656     1.0  0.42947  0.96541  0.73502  1.0000
  H   H4657     1.0  0.45726  0.79257  0.97374  1.0000
  N   N195      1.0  0.47812  0.68422  0.89357  1.0000
  H   H4658     1.0  0.29686  0.48923  0.90171  1.0000
  H   H4659     1.0  0.43685  0.97943  0.75878  1.0000
  H   H4660     1.0  0.36907  0.82615  0.97652  1.0000
  C   C2713     1.0  0.24558  0.51228  0.98384  1.0000
  H   H4661     1.0  0.44148  0.64109  0.98115  1.0000
  H   H4662     1.0  0.48480  0.67834  0.90822  1.0000
  C   C2714     1.0  0.48131  0.63102  0.97770  1.0000
  H   H4663     1.0  0.45440  0.84020  0.98244  1.0000
  H   H4664     1.0  0.47139  0.68519  0.92314  1.0000
  C   C2715     1.0  0.45662  0.73751  0.98246  1.0000
  C   C2716     1.0  0.45840  0.76997  0.97621  1.0000
  C   C2717     1.0  0.47403  0.64979  0.98010  1.0000
  H   H4665     1.0  0.47199  0.83836  0.95105  1.0000
  H   H4666     1.0  0.42424  0.57130  0.97480  1.0000
  H   H4667     1.0  0.43275  0.59164  0.97204  1.0000
  H   H4668     1.0  0.45460  0.76361  0.97560  1.0000
  S   S794      1.0  0.48092  0.94000  0.88678  1.0000
  H   H4669     1.0  0.42498  0.98555  0.77432  1.0000
  S   S795      1.0  0.48195  0.72132  0.95291  1.0000
  H   H4670     1.0  0.38572  0.84428  0.98152  1.0000
  S   S796      1.0  0.48620  0.96870  0.86873  1.0000
  C   C2718     1.0  0.44016  0.59976  0.95580  1.0000
  C   C2719     1.0  0.47293  0.95808  0.92204  1.0000
  H   H4671     1.0  0.36421  0.66870  0.97594  1.0000
  C   C2720     1.0  0.47608  0.64187  0.97387  1.0000
  H   H4672     1.0  0.43867  0.77028  0.97121  1.0000
  H   H4673     1.0  0.35712  0.73366  0.98192  1.0000
  H   H4674     1.0  0.41433  0.60392  0.98174  1.0000
  H   H4675     1.0  0.48103  0.69681  0.87006  1.0000
  C   C2721     1.0  0.44863  0.84534  0.97716  1.0000
  H   H4676     1.0  0.37480  0.68029  0.96788  1.0000
  H   H4677     1.0  0.46758  0.95392  0.92930  1.0000
  H   H4678     1.0  0.47596  0.70926  0.90040  1.0000
  C   C2722     1.0  0.36516  0.72784  0.98067  1.0000
  C   C2723     1.0  0.47582  0.70038  0.90269  1.0000
  C   C2724     1.0  0.37893  0.65764  0.98149  1.0000
  C   C2725     1.0  0.42696  0.74491  0.98344  1.0000
  S   S797      1.0  0.38903  0.98775  0.78746  1.0000
  S   S798      1.0  0.23810  0.55671  0.92272  1.0000
  H   H4679     1.0  0.38463  0.98037  0.82715  1.0000
  H   H4680     1.0  0.29128  0.53060  0.98396  1.0000
  H   H4681     1.0  0.48531  0.69840  0.88670  1.0000
  C   C2726     1.0  0.38652  0.98351  0.80964  1.0000
  H   H4682     1.0  0.32557  0.50266  0.97814  1.0000
  H   H4683     1.0  0.36773  0.68555  0.98027  1.0000
  H   H4684     1.0  0.40083  0.65136  0.97912  1.0000
  H   H4685     1.0  0.41726  0.73038  0.98136  1.0000
  H   H4686     1.0  0.44571  0.94584  0.73456  1.0000
  H   H4687     1.0  0.48461  0.95367  0.90103  1.0000
  H   H4688     1.0  0.43665  0.81481  0.97880  1.0000
  H   H4689     1.0  0.33843  0.50437  0.97818  1.0000
  H   H4690     1.0  0.43511  0.63151  0.97895  1.0000
  H   H4691     1.0  0.48395  0.66101  0.90279  1.0000
  C   C2727     1.0  0.39774  0.90414  0.98348  1.0000
  H   H4692     1.0  0.47817  0.67365  0.88321  1.0000
  H   H4693     1.0  0.43552  0.79064  0.98044  1.0000
  H   H4694     1.0  0.43195  0.85557  0.98025  1.0000
  C   C2728     1.0  0.38414  0.67489  0.98077  1.0000
  H   H4695     1.0  0.35718  0.79386  0.97844  1.0000
  H   H4696     1.0  0.46423  0.78319  0.98363  1.0000
  H   H4697     1.0  0.47766  0.68637  0.86599  1.0000
  H   H4698     1.0  0.39128  0.79458  0.98265  1.0000
  H   H4699     1.0  0.46480  0.76546  0.98095  1.0000
  H   H4700     1.0  0.40505  0.66241  0.98175  1.0000
  H   H4701     1.0  0.46973  0.91146  0.98025  1.0000
  H   H4702     1.0  0.32677  0.56879  0.98416  1.0000
  H   H4703     1.0  0.25349  0.55743  0.98180  1.0000
  H   H4704     1.0  0.43389  0.83285  0.98226  1.0000
  C   C2729     1.0  0.32549  0.51816  0.98208  1.0000
  C   C2730     1.0  0.32977  0.50578  0.98251  1.0000
  C   C2731     1.0  0.31114  0.53432  0.98441  1.0000
  C   C2732     1.0  0.30652  0.51797  0.98307  1.0000
  C   C2733     1.0  0.45598  0.78701  0.98202  1.0000
  H   H4705     1.0  0.38111  0.75418  0.98313  1.0000
  H   H4706     1.0  0.43631  0.91819  0.98238  1.0000
  H   H4707     1.0  0.32656  0.53907  0.98243  1.0000
  H   H4708     1.0  0.37809  0.89141  0.98441  1.0000
  C   C2734     1.0  0.28049  0.49755  0.98369  1.0000
  C   C2735     1.0  0.44921  0.71874  0.98435  1.0000
  S   S799      1.0  0.49038  0.23208  0.01133  1.0000
  H   H4709     1.0  0.50311  0.03968  0.12512  1.0000
  C   C2736     1.0  0.51206  0.22428  0.98616  1.0000
  H   H4710     1.0  0.51382  0.22459  0.99393  1.0000
  H   H4711     1.0  0.48902  0.04146  0.12699  1.0000
  C   C2737     1.0  0.50633  0.01137  0.16305  1.0000
  H   H4712     1.0  0.50314  0.31051  0.03415  1.0000
  H   H4713     1.0  0.49056  0.00208  0.12948  1.0000
  C   C2738     1.0  0.54557  0.43739  0.04895  1.0000
  C   C2739     1.0  0.50235  0.43359  0.98531  1.0000
  H   H4714     1.0  0.49149  0.14748  0.03844  1.0000
  H   H4715     1.0  0.49351  0.34677  0.01077  1.0000
  H   H4716     1.0  0.64359  0.48649  0.05901  1.0000
  C   C2740     1.0  0.51839  0.45798  0.04572  1.0000
  H   H4717     1.0  0.67106  0.48648  0.05304  1.0000
  C   C2741     1.0  0.67627  0.48065  0.04790  1.0000
  H   H4718     1.0  0.69875  0.47744  0.98558  1.0000
  H   H4719     1.0  0.53280  0.44984  0.03598  1.0000
  H   H4720     1.0  0.61456  0.44407  0.99542  1.0000
  H   H4721     1.0  0.50473  0.05706  0.11813  1.0000
  H   H4722     1.0  0.51251  0.20719  0.99270  1.0000
  C   C2742     1.0  0.49620  0.00901  0.16457  1.0000
  H   H4723     1.0  0.52445  0.42799  0.06281  1.0000
  C   C2743     1.0  0.54763  0.45547  0.05748  1.0000
  S   S800      1.0  0.49835  0.40906  0.01240  1.0000
  H   H4724     1.0  0.60194  0.44627  0.98561  1.0000
  H   H4725     1.0  0.49165  0.00583  0.21929  1.0000
  H   H4726     1.0  0.49227  0.99408  0.20010  1.0000
  H   H4727     1.0  0.51049  0.00672  0.20922  1.0000
  S   S801      1.0  0.49867  0.42801  0.03184  1.0000
  C   C2744     1.0  0.50211  0.33322  0.04022  1.0000
  S   S802      1.0  0.50388  0.37678  0.01884  1.0000
  H   H4728     1.0  0.49067  0.40265  0.99567  1.0000
  H   H4729     1.0  0.50528  0.03545  0.14850  1.0000
  H   H4730     1.0  0.55566  0.41328  0.99805  1.0000
  H   H4731     1.0  0.51238  0.45749  0.04142  1.0000
  H   H4732     1.0  0.59772  0.48294  0.01249  1.0000
  H   H4733     1.0  0.50017  0.34225  0.03688  1.0000
  H   H4734     1.0  0.54234  0.45973  0.04227  1.0000
  Fe  Fe402     1.0  0.49413  0.39309  0.02277  1.0000
  H   H4735     1.0  0.50761  0.19142  0.99611  1.0000
  S   S803      1.0  0.72602  0.48379  0.00691  1.0000
  H   H4736     1.0  0.48964  0.02483  0.14365  1.0000
  C   C2745     1.0  0.49250  0.31611  0.05987  1.0000
  C   C2746     1.0  0.49232  0.32846  0.04112  1.0000
  H   H4737     1.0  0.49798  0.07070  0.11966  1.0000
  H   H4738     1.0  0.55584  0.45159  0.05335  1.0000
  C   C2747     1.0  0.52149  0.43523  0.06657  1.0000
  S   S804      1.0  0.55768  0.48171  0.00593  1.0000
  H   H4739     1.0  0.53203  0.46283  0.05382  1.0000
  C   C2748     1.0  0.49145  0.35259  0.01596  1.0000
  S   S805      1.0  0.49987  0.03240  0.18311  1.0000
  H   H4740     1.0  0.50093  0.31520  0.06068  1.0000
  H   H4741     1.0  0.54566  0.45101  0.06615  1.0000
  C   C2749     1.0  0.68832  0.48116  0.04534  1.0000
  C   C2750     1.0  0.52568  0.47164  0.99183  1.0000
  C   C2751     1.0  0.62119  0.43745  0.99242  1.0000
  H   H4742     1.0  0.51244  0.29290  0.04490  1.0000
  N   N196      1.0  0.49244  0.31699  0.04805  1.0000
  H   H4743     1.0  0.54803  0.46389  0.05755  1.0000
  H   H4744     1.0  0.49212  0.01893  0.21032  1.0000
  H   H4745     1.0  0.62749  0.43666  0.99694  1.0000
  Fe  Fe403     1.0  0.55105  0.47338  0.02305  1.0000
  S   S806      1.0  0.56254  0.45706  0.02181  1.0000
  H   H4746     1.0  0.60527  0.47257  0.98967  1.0000
  Fe  Fe404     1.0  0.54533  0.47611  0.00147  1.0000
  S   S807      1.0  0.55640  0.46035  0.99810  1.0000
  H   H4747     1.0  0.49929  0.21564  0.99438  1.0000
  Fe  Fe405     1.0  0.54960  0.45350  0.01581  1.0000
  S   S808      1.0  0.54626  0.43635  0.02043  1.0000
  Fe  Fe406     1.0  0.56826  0.46523  0.00426  1.0000
  S   S809      1.0  0.58523  0.46583  0.99443  1.0000
  S   S810      1.0  0.53754  0.46912  0.01875  1.0000
  H   H4748     1.0  0.51165  0.05195  0.15113  1.0000
  C   C2752     1.0  0.49555  0.36754  0.02096  1.0000
  Fe  Fe407     1.0  0.65752  0.46684  0.00514  1.0000
  H   H4749     1.0  0.55149  0.43583  0.05415  1.0000
  S   S811      1.0  0.67510  0.46134  0.99716  1.0000
  Fe  Fe408     1.0  0.63558  0.46082  0.01446  1.0000
  S   S812      1.0  0.62789  0.47674  0.01966  1.0000
  S   S813      1.0  0.62484  0.44895  0.01778  1.0000
  S   S814      1.0  0.65137  0.48356  0.00902  1.0000
  S   S815      1.0  0.49235  0.31797  0.01495  1.0000
  Fe  Fe409     1.0  0.64315  0.47466  0.02516  1.0000
  H   H4750     1.0  0.51335  0.00732  0.15781  1.0000
  S   S816      1.0  0.64368  0.46835  0.99748  1.0000
  S   S817      1.0  0.65007  0.45779  0.02170  1.0000
  H   H4751     1.0  0.51401  0.44024  0.06381  1.0000
  Fe  Fe410     1.0  0.49258  0.41485  0.02827  1.0000
  H   H4752     1.0  0.72651  0.47111  0.98970  1.0000
  C   C2753     1.0  0.50711  0.21421  0.98829  1.0000
  Fe  Fe411     1.0  0.72371  0.46714  0.01685  1.0000
  S   S818      1.0  0.70671  0.46460  0.02444  1.0000
  C   C2754     1.0  0.50372  0.04408  0.14371  1.0000
  H   H4753     1.0  0.58058  0.48171  0.01246  1.0000
  C   C2755     1.0  0.49843  0.02379  0.17556  1.0000
  H   H4754     1.0  0.51742  0.45883  0.99384  1.0000
  H   H4755     1.0  0.51890  0.99802  0.18004  1.0000
  H   H4756     1.0  0.49482  0.99329  0.11366  1.0000
  N   N197      1.0  0.49374  0.04652  0.13920  1.0000
  H   H4757     1.0  0.70766  0.47947  0.05106  1.0000
  H   H4758     1.0  0.51428  0.45812  0.05439  1.0000
  H   H4759     1.0  0.50423  0.02307  0.14010  1.0000
  C   C2756     1.0  0.50097  0.06225  0.12426  1.0000
  H   H4760     1.0  0.50314  0.29542  0.05736  1.0000
  H   H4761     1.0  0.52446  0.99285  0.20288  1.0000
  S   S819      1.0  0.54939  0.48156  0.03681  1.0000
  H   H4762     1.0  0.52489  0.44092  0.04533  1.0000
  C   C2757     1.0  0.52815  0.44815  0.04461  1.0000
  C   C2758     1.0  0.68395  0.46172  0.00493  1.0000
  C   C2759     1.0  0.69520  0.45918  0.00089  1.0000
  C   C2760     1.0  0.70231  0.46026  0.00666  1.0000
  C   C2761     1.0  0.69817  0.46348  0.01670  1.0000
  C   C2762     1.0  0.68695  0.46564  0.02090  1.0000
  C   C2763     1.0  0.67985  0.46495  0.01497  1.0000
  C   C2764     1.0  0.55125  0.43592  0.98833  1.0000
  H   H4763     1.0  0.71097  0.45837  0.00350  1.0000
  H   H4764     1.0  0.68369  0.46787  0.02879  1.0000
  H   H4765     1.0  0.67120  0.46680  0.01824  1.0000
  S   S820      1.0  0.49636  0.12086  0.99534  1.0000
  H   H4766     1.0  0.49849  0.43093  0.99410  1.0000
  H   H4767     1.0  0.51780  0.00434  0.11278  1.0000
  H   H4768     1.0  0.53474  0.41073  0.99551  1.0000
  C   C2765     1.0  0.54715  0.41799  0.99832  1.0000
  H   H4769     1.0  0.60815  0.48405  0.04612  1.0000
  H   H4770     1.0  0.70613  0.42684  0.98628  1.0000
  S   S821      1.0  0.49489  0.99930  0.15828  1.0000
  C   C2766     1.0  0.50264  0.30958  0.04306  1.0000
  N   N198      1.0  0.53553  0.44582  0.05239  1.0000
  C   C2767     1.0  0.48717  0.01431  0.17128  1.0000
  H   H4771     1.0  0.53776  0.42618  0.04516  1.0000
  C   C2768     1.0  0.56334  0.43283  0.98880  1.0000
  H   H4772     1.0  0.54508  0.42184  0.00550  1.0000
  H   H4773     1.0  0.52583  0.44930  0.06810  1.0000
  C   C2769     1.0  0.49132  0.05824  0.13277  1.0000
  H   H4774     1.0  0.67535  0.47229  0.05269  1.0000
  C   C2770     1.0  0.54004  0.40944  0.00121  1.0000
  H   H4775     1.0  0.53201  0.99557  0.18274  1.0000
  H   H4776     1.0  0.53621  0.43724  0.06918  1.0000
  C   C2771     1.0  0.59565  0.46185  0.00170  1.0000
  C   C2772     1.0  0.59523  0.45376  0.01142  1.0000
  C   C2773     1.0  0.60414  0.44999  0.01648  1.0000
  C   C2774     1.0  0.61331  0.45456  0.01207  1.0000
  C   C2775     1.0  0.61351  0.46299  0.00261  1.0000
  C   C2776     1.0  0.60482  0.46642  0.99729  1.0000
  H   H4777     1.0  0.58824  0.45011  0.01481  1.0000
  H   H4778     1.0  0.60397  0.44343  0.02378  1.0000
  H   H4779     1.0  0.62054  0.46657  0.99912  1.0000
  H   H4780     1.0  0.68411  0.48460  0.99554  1.0000
  S   S822      1.0  0.64282  0.47806  0.04134  1.0000
  H   H4781     1.0  0.49712  0.02217  0.13065  1.0000
  H   H4782     1.0  0.54221  0.42126  0.05810  1.0000
  C   C2777     1.0  0.49560  0.03897  0.13159  1.0000
  C   C2778     1.0  0.50075  0.99395  0.19537  1.0000
  C   C2779     1.0  0.50501  0.00585  0.20450  1.0000
  C   C2780     1.0  0.53905  0.45632  0.05109  1.0000
  C   C2781     1.0  0.52071  0.46553  0.98816  1.0000
  H   H4783     1.0  0.55170  0.42118  0.04531  1.0000
  C   C2782     1.0  0.50332  0.05120  0.15164  1.0000
  H   H4784     1.0  0.52632  0.46955  0.00032  1.0000
  H   H4785     1.0  0.49195  0.32875  0.03259  1.0000
  H   H4786     1.0  0.51905  0.43213  0.07558  1.0000
  C   C2783     1.0  0.50651  0.19106  0.98808  1.0000
  C   C2784     1.0  0.54398  0.42594  0.04949  1.0000
  H   H4787     1.0  0.49735  0.17736  0.01283  1.0000
  H   H4788     1.0  0.69843  0.45654  0.99320  1.0000
  S   S823      1.0  0.48963  0.39840  0.03891  1.0000
  H   H4789     1.0  0.51888  0.43947  0.99479  1.0000
  H   H4790     1.0  0.49222  0.20416  0.98877  1.0000
  H   H4791     1.0  0.48722  0.36102  0.99226  1.0000
  H   H4792     1.0  0.50998  0.31192  0.04351  1.0000
  H   H4793     1.0  0.54982  0.44053  0.04038  1.0000
  H   H4794     1.0  0.69044  0.47937  0.05345  1.0000
  C   C2785     1.0  0.51203  0.43013  0.02751  1.0000
  C   C2786     1.0  0.51361  0.44094  0.02450  1.0000
  C   C2787     1.0  0.52407  0.44297  0.02196  1.0000
  C   C2788     1.0  0.53303  0.43419  0.02280  1.0000
  C   C2789     1.0  0.53147  0.42338  0.02586  1.0000
  C   C2790     1.0  0.52104  0.42134  0.02806  1.0000
  H   H4795     1.0  0.50667  0.44777  0.02413  1.0000
  H   H4796     1.0  0.52514  0.45133  0.01950  1.0000
  H   H4797     1.0  0.53834  0.41653  0.02663  1.0000
  H   H4798     1.0  0.51989  0.41300  0.03058  1.0000
  H   H4799     1.0  0.50630  0.01189  0.19658  1.0000
  C   C2791     1.0  0.49830  0.35976  0.01443  1.0000
  H   H4800     1.0  0.68752  0.43031  0.98506  1.0000
  C   C2792     1.0  0.53006  0.44212  0.06426  1.0000
  H   H4801     1.0  0.69307  0.47406  0.04157  1.0000
  C   C2793     1.0  0.50747  0.01867  0.16864  1.0000
  H   H4802     1.0  0.50563  0.35944  0.00804  1.0000
  C   C2794     1.0  0.52696  0.43568  0.99680  1.0000
  C   C2795     1.0  0.48909  0.18091  0.01192  1.0000
  H   H4803     1.0  0.50716  0.06282  0.12825  1.0000
  H   H4804     1.0  0.52092  0.46588  0.04169  1.0000
  H   H4805     1.0  0.63535  0.45073  0.99133  1.0000
  H   H4806     1.0  0.56556  0.44002  0.98992  1.0000
  H   H4807     1.0  0.67174  0.48448  0.99337  1.0000
  H   H4808     1.0  0.50007  0.00155  0.18876  1.0000
  H   H4809     1.0  0.51534  0.02030  0.16766  1.0000
  H   H4810     1.0  0.51118  0.04437  0.13708  1.0000
  H   H4811     1.0  0.62404  0.41957  0.99866  1.0000
  H   H4812     1.0  0.54688  0.43948  0.99563  1.0000
  H   H4813     1.0  0.52940  0.44198  0.99922  1.0000
  H   H4814     1.0  0.62124  0.48617  0.03862  1.0000
  C   C2796     1.0  0.70857  0.48754  0.04556  1.0000
  C   C2797     1.0  0.51972  0.99177  0.19752  1.0000
  Fe  Fe412     1.0  0.48938  0.31991  0.99826  1.0000
  C   C2798     1.0  0.49669  0.02661  0.13697  1.0000
  S   S824      1.0  0.73331  0.46663  0.02888  1.0000
  H   H4815     1.0  0.52584  0.42873  0.00391  1.0000
  H   H4816     1.0  0.52220  0.00746  0.18593  1.0000
  S   S825      1.0  0.49191  0.19978  0.01533  1.0000
  H   H4817     1.0  0.50801  0.00465  0.12562  1.0000
  H   H4818     1.0  0.67317  0.48204  0.04040  1.0000
  H   H4819     1.0  0.54525  0.40104  0.00152  1.0000
  C   C2799     1.0  0.49328  0.01007  0.21050  1.0000
  H   H4820     1.0  0.61107  0.42722  0.00469  1.0000
  C   C2800     1.0  0.51071  0.00108  0.11821  1.0000
  H   H4821     1.0  0.50418  0.33190  0.04825  1.0000
  Fe  Fe413     1.0  0.63673  0.48422  0.00312  1.0000
  H   H4822     1.0  0.48977  0.16201  0.03601  1.0000
  H   H4823     1.0  0.49982  0.04743  0.16024  1.0000
  H   H4824     1.0  0.50932  0.32976  0.03436  1.0000
  H   H4825     1.0  0.70720  0.48315  0.03128  1.0000
  H   H4826     1.0  0.53473  0.40942  0.00953  1.0000
  H   H4827     1.0  0.58975  0.48628  0.99638  1.0000
  H   H4828     1.0  0.61300  0.42498  0.99151  1.0000
  H   H4829     1.0  0.49855  0.29343  0.04626  1.0000
  H   H4830     1.0  0.49074  0.33136  0.06514  1.0000
  C   C2801     1.0  0.50411  0.29717  0.04833  1.0000
  H   H4831     1.0  0.48987  0.30854  0.06517  1.0000
  C   C2802     1.0  0.52324  0.99869  0.18591  1.0000
  H   H4832     1.0  0.56510  0.42601  0.99585  1.0000
  H   H4833     1.0  0.49859  0.05972  0.14963  1.0000
  H   H4834     1.0  0.50200  0.18450  0.98976  1.0000
  N   N199      1.0  0.54644  0.42675  0.98795  1.0000
  C   C2803     1.0  0.53494  0.43194  0.98666  1.0000
  C   C2804     1.0  0.61723  0.42663  0.99691  1.0000
  H   H4835     1.0  0.50441  0.00417  0.11332  1.0000
  N   N200      1.0  0.50776  0.99431  0.20261  1.0000
  C   C2805     1.0  0.48827  0.02176  0.17665  1.0000
  H   H4836     1.0  0.58031  0.48792  0.02345  1.0000
  C   C2806     1.0  0.52984  0.48041  0.98449  1.0000
  H   H4837     1.0  0.48785  0.06413  0.13827  1.0000
  C   C2807     1.0  0.48789  0.99439  0.13397  1.0000
  H   H4838     1.0  0.48706  0.16643  0.00829  1.0000
  S   S826      1.0  0.53680  0.48752  0.98873  1.0000
  H   H4839     1.0  0.56820  0.48671  0.02055  1.0000
  H   H4840     1.0  0.71742  0.48702  0.04255  1.0000
  H   H4841     1.0  0.68826  0.48623  0.02517  1.0000
  H   H4842     1.0  0.60687  0.48737  0.99977  1.0000
  H   H4843     1.0  0.48717  0.00951  0.20643  1.0000
  C   C2808     1.0  0.57633  0.48845  0.01678  1.0000
  Fe  Fe414     1.0  0.49236  0.04317  0.38038  1.0000
  S   S827      1.0  0.50133  0.05675  0.37374  1.0000
  S   S828      1.0  0.50045  0.02529  0.38415  1.0000
  H   H4844     1.0  0.51153  0.00485  0.40354  1.0000
  N   N201      1.0  0.52149  0.09972  0.41986  1.0000
  C   C2809     1.0  0.66860  0.00853  0.45531  1.0000
  H   H4845     1.0  0.63577  0.03262  0.46348  1.0000
  S   S829      1.0  0.49426  0.06979  0.40048  1.0000
  H   H4846     1.0  0.54307  0.01372  0.47024  1.0000
  H   H4847     1.0  0.55638  0.00821  0.45272  1.0000
  H   H4848     1.0  0.50777  0.02176  0.25413  1.0000
  C   C2810     1.0  0.49048  0.01025  0.36191  1.0000
  H   H4849     1.0  0.68515  0.06595  0.47396  1.0000
  H   H4850     1.0  0.49046  0.04267  0.31533  1.0000
  C   C2811     1.0  0.54267  0.00729  0.47797  1.0000
  H   H4851     1.0  0.70016  0.01234  0.40650  1.0000
  H   H4852     1.0  0.57523  0.03731  0.47717  1.0000
  H   H4853     1.0  0.51344  0.00429  0.33235  1.0000
  H   H4854     1.0  0.49841  0.00331  0.38616  1.0000
  S   S830      1.0  0.53824  0.00478  0.42003  1.0000
  C   C2812     1.0  0.51164  0.09539  0.42090  1.0000
  N   N202      1.0  0.69068  0.03422  0.41975  1.0000
  Fe  Fe415     1.0  0.54629  0.06401  0.42132  1.0000
  S   S831      1.0  0.53437  0.06352  0.43750  1.0000
  S   S832      1.0  0.54177  0.06796  0.40478  1.0000
  Fe  Fe416     1.0  0.56600  0.05551  0.43220  1.0000
  S   S833      1.0  0.55554  0.05399  0.44923  1.0000
  S   S834      1.0  0.58402  0.04847  0.43001  1.0000
  Fe  Fe417     1.0  0.54517  0.04728  0.44286  1.0000
  S   S835      1.0  0.53836  0.03255  0.45267  1.0000
  Fe  Fe418     1.0  0.54582  0.07035  0.44237  1.0000
  S   S836      1.0  0.54002  0.08457  0.45080  1.0000
  S   S837      1.0  0.55650  0.04730  0.42642  1.0000
  S   S838      1.0  0.55693  0.07242  0.42559  1.0000
  C   C2813     1.0  0.50807  0.09682  0.41011  1.0000
  H   H4855     1.0  0.54469  0.09592  0.41776  1.0000
  S   S839      1.0  0.61142  0.00440  0.46396  1.0000
  Fe  Fe419     1.0  0.63058  0.06860  0.43285  1.0000
  S   S840      1.0  0.63087  0.05244  0.44481  1.0000
  S   S841      1.0  0.61396  0.07857  0.43078  1.0000
  Fe  Fe420     1.0  0.65511  0.06472  0.42657  1.0000
  S   S842      1.0  0.65725  0.04796  0.43757  1.0000
  S   S843      1.0  0.67055  0.07010  0.41691  1.0000
  Fe  Fe421     1.0  0.64384  0.04587  0.43158  1.0000
  S   S844      1.0  0.64485  0.02953  0.42840  1.0000
  Fe  Fe422     1.0  0.64416  0.05597  0.44973  1.0000
  S   S845      1.0  0.64518  0.04893  0.46715  1.0000
  S   S846      1.0  0.64291  0.06178  0.41914  1.0000
  S   S847      1.0  0.64266  0.07306  0.43928  1.0000
  C   C2814     1.0  0.57395  0.00243  0.44675  1.0000
  H   H4856     1.0  0.68574  0.02263  0.48126  1.0000
  Fe  Fe423     1.0  0.72180  0.05605  0.44189  1.0000
  H   H4857     1.0  0.67256  0.02206  0.46650  1.0000
  S   S848      1.0  0.70369  0.05880  0.44770  1.0000
  H   H4858     1.0  0.71902  0.01796  0.42734  1.0000
  S   S849      1.0  0.72313  0.00227  0.41388  1.0000
  H   H4859     1.0  0.64916  0.00104  0.45983  1.0000
  C   C2815     1.0  0.53500  0.03045  0.48135  1.0000
  H   H4860     1.0  0.68473  0.08479  0.47181  1.0000
  S   S850      1.0  0.72995  0.06457  0.42549  1.0000
  H   H4861     1.0  0.64911  0.02065  0.45193  1.0000
  H   H4862     1.0  0.50777  0.09778  0.44281  1.0000
  C   C2816     1.0  0.68087  0.03902  0.41472  1.0000
  H   H4863     1.0  0.70719  0.05133  0.40050  1.0000
  H   H4864     1.0  0.69762  0.06877  0.46542  1.0000
  H   H4865     1.0  0.66187  0.01158  0.44065  1.0000
  C   C2817     1.0  0.63997  0.02434  0.46731  1.0000
  H   H4866     1.0  0.49733  0.04269  0.42829  1.0000
  N   N203      1.0  0.57634  0.01315  0.43944  1.0000
  H   H4867     1.0  0.60776  0.08134  0.47017  1.0000
  H   H4868     1.0  0.64525  0.99625  0.40578  1.0000
  C   C2818     1.0  0.72864  0.01365  0.41217  1.0000
  H   H4869     1.0  0.51289  0.08647  0.42493  1.0000
  H   H4870     1.0  0.52905  0.99182  0.40599  1.0000
  C   C2819     1.0  0.65313  0.05471  0.47167  1.0000
  C   C2820     1.0  0.65467  0.06535  0.46666  1.0000
  C   C2821     1.0  0.65890  0.07077  0.47190  1.0000
  H   H4871     1.0  0.57264  0.01517  0.46077  1.0000
  H   H4872     1.0  0.55982  0.00093  0.44173  1.0000
  H   H4873     1.0  0.63086  0.03145  0.39345  1.0000
  H   H4874     1.0  0.65199  0.06966  0.45914  1.0000
  H   H4875     1.0  0.65942  0.07926  0.46846  1.0000
  H   H4876     1.0  0.51388  0.09158  0.40465  1.0000
  H   H4877     1.0  0.72626  0.03428  0.42447  1.0000
  C   C2822     1.0  0.67967  0.06778  0.42539  1.0000
  C   C2823     1.0  0.67641  0.06431  0.43675  1.0000
  C   C2824     1.0  0.68386  0.06170  0.44345  1.0000
  C   C2825     1.0  0.69467  0.06244  0.43885  1.0000
  C   C2826     1.0  0.69794  0.06609  0.42749  1.0000
  C   C2827     1.0  0.69040  0.06891  0.42077  1.0000
  H   H4878     1.0  0.66811  0.06368  0.44044  1.0000
  H   H4879     1.0  0.68120  0.05906  0.45224  1.0000
  H   H4880     1.0  0.70624  0.06680  0.42388  1.0000
  H   H4881     1.0  0.69293  0.07168  0.41198  1.0000
  C   C2828     1.0  0.62093  0.01167  0.45494  1.0000
  C   C2829     1.0  0.61821  0.02311  0.45166  1.0000
  C   C2830     1.0  0.62546  0.02865  0.44335  1.0000
  C   C2831     1.0  0.63550  0.02278  0.43852  1.0000
  C   C2832     1.0  0.63817  0.01135  0.44181  1.0000
  C   C2833     1.0  0.63093  0.00583  0.45003  1.0000
  H   H4882     1.0  0.61034  0.02764  0.45515  1.0000
  H   H4883     1.0  0.62303  0.03737  0.44033  1.0000
  H   H4884     1.0  0.64583  0.00671  0.43801  1.0000
  H   H4885     1.0  0.68836  0.04155  0.48105  1.0000
  C   C2834     1.0  0.54463  0.09194  0.47712  1.0000
  H   H4886     1.0  0.49090  0.01177  0.30588  1.0000
  H   H4887     1.0  0.66523  0.99720  0.44736  1.0000
  C   C2835     1.0  0.59249  0.05734  0.42869  1.0000
  C   C2836     1.0  0.60349  0.05289  0.42866  1.0000
  C   C2837     1.0  0.61026  0.05954  0.42861  1.0000
  C   C2838     1.0  0.60605  0.07067  0.42878  1.0000
  C   C2839     1.0  0.59517  0.07525  0.42825  1.0000
  C   C2840     1.0  0.58839  0.06860  0.42819  1.0000
  H   H4888     1.0  0.60676  0.04422  0.42893  1.0000
  H   H4889     1.0  0.61871  0.05602  0.42861  1.0000
  H   H4890     1.0  0.59192  0.08390  0.42816  1.0000
  H   H4891     1.0  0.57996  0.07215  0.42800  1.0000
  C   C2841     1.0  0.49559  0.07476  0.32451  1.0000
  H   H4892     1.0  0.50102  0.07988  0.32398  1.0000
  C   C2842     1.0  0.54515  0.07282  0.47089  1.0000
  C   C2843     1.0  0.54273  0.08309  0.46378  1.0000
  C   C2844     1.0  0.54239  0.09261  0.46701  1.0000
  H   H4893     1.0  0.61890  0.08820  0.46743  1.0000
  H   H4894     1.0  0.52162  0.04298  0.42008  1.0000
  H   H4895     1.0  0.54521  0.06543  0.46857  1.0000
  H   H4896     1.0  0.54047  0.10057  0.46161  1.0000
  H   H4897     1.0  0.50759  0.04670  0.31553  1.0000
  C   C2845     1.0  0.53798  0.01255  0.42916  1.0000
  C   C2846     1.0  0.53548  0.00837  0.44051  1.0000
  C   C2847     1.0  0.53537  0.01461  0.44777  1.0000
  C   C2848     1.0  0.53749  0.02513  0.44370  1.0000
  C   C2849     1.0  0.53936  0.02951  0.43241  1.0000
  C   C2850     1.0  0.53994  0.02312  0.42512  1.0000
  H   H4898     1.0  0.53363  0.00034  0.44372  1.0000
  H   H4899     1.0  0.53377  0.01122  0.45649  1.0000
  H   H4900     1.0  0.54011  0.03790  0.42924  1.0000
  H   H4901     1.0  0.54174  0.02647  0.41636  1.0000
  H   H4902     1.0  0.51383  0.99143  0.27331  1.0000
  C   C2851     1.0  0.65100  0.02103  0.45957  1.0000
  H   H4903     1.0  0.56509  0.01534  0.42910  1.0000
  H   H4904     1.0  0.66933  0.02950  0.42685  1.0000
  H   H4905     1.0  0.69293  0.05412  0.40160  1.0000
  C   C2852     1.0  0.50763  0.06894  0.40144  1.0000
  C   C2853     1.0  0.50942  0.06909  0.41155  1.0000
  C   C2854     1.0  0.51990  0.06832  0.41277  1.0000
  C   C2855     1.0  0.52866  0.06787  0.40376  1.0000
  C   C2856     1.0  0.52687  0.06784  0.39360  1.0000
  C   C2857     1.0  0.51643  0.06822  0.39246  1.0000
  H   H4906     1.0  0.50265  0.06968  0.41852  1.0000
  H   H4907     1.0  0.52117  0.06828  0.42064  1.0000
  H   H4908     1.0  0.53360  0.06753  0.38656  1.0000
  H   H4909     1.0  0.51515  0.06817  0.38461  1.0000
  H   H4910     1.0  0.49880  0.07671  0.30704  1.0000
  H   H4911     1.0  0.57256  0.03052  0.43915  1.0000
  C   C2858     1.0  0.69887  0.04142  0.41508  1.0000
  H   H4912     1.0  0.57609  0.00068  0.45478  1.0000
  C   C2859     1.0  0.68684  0.03398  0.43191  1.0000
  N   N204      1.0  0.65830  0.01041  0.46396  1.0000
  C   C2860     1.0  0.50038  0.02374  0.26057  1.0000
  H   H4913     1.0  0.49990  0.02024  0.24100  1.0000
  H   H4914     1.0  0.68924  0.05097  0.46784  1.0000
  C   C2861     1.0  0.52362  0.09717  0.43123  1.0000
  H   H4915     1.0  0.49527  0.03140  0.25659  1.0000
  H   H4916     1.0  0.52935  0.09424  0.40460  1.0000
  H   H4917     1.0  0.49912  0.02423  0.40951  1.0000
  C   C2862     1.0  0.49766  0.01919  0.37514  1.0000
  H   H4918     1.0  0.70765  0.04112  0.48035  1.0000
  C   C2863     1.0  0.50384  0.02707  0.26940  1.0000
  H   H4919     1.0  0.60346  0.03008  0.47922  1.0000
  H   H4920     1.0  0.49533  0.01854  0.33603  1.0000
  H   H4921     1.0  0.49775  0.03419  0.27213  1.0000
  H   H4922     1.0  0.54811  0.09081  0.40560  1.0000
  H   H4923     1.0  0.58682  0.02062  0.41561  1.0000
  C   C2864     1.0  0.52604  0.11881  0.41681  1.0000
  H   H4924     1.0  0.59008  0.02082  0.43219  1.0000
  C   C2865     1.0  0.58821  0.01294  0.43753  1.0000
  C   C2866     1.0  0.57396  0.01395  0.42846  1.0000
  H   H4925     1.0  0.68203  0.04223  0.43326  1.0000
  H   H4926     1.0  0.49082  0.01441  0.28193  1.0000
  C   C2867     1.0  0.49768  0.03137  0.41330  1.0000
  H   H4927     1.0  0.50868  0.04062  0.30447  1.0000
  C   C2868     1.0  0.67249  0.03179  0.41788  1.0000
  H   H4928     1.0  0.51349  0.00722  0.47377  1.0000
  H   H4929     1.0  0.52047  0.11314  0.40563  1.0000
  H   H4930     1.0  0.69188  0.03151  0.44714  1.0000
  H   H4931     1.0  0.68136  0.02822  0.43600  1.0000
  H   H4932     1.0  0.57609  0.03106  0.42116  1.0000
  H   H4933     1.0  0.51150  0.05039  0.42935  1.0000
  C   C2869     1.0  0.49685  0.00820  0.37832  1.0000
  C   C2870     1.0  0.51998  0.00386  0.47850  1.0000
  H   H4934     1.0  0.67514  0.00217  0.45881  1.0000
  H   H4935     1.0  0.52442  0.01950  0.47303  1.0000
  C   C2871     1.0  0.61667  0.08047  0.46781  1.0000
  C   C2872     1.0  0.70014  0.04739  0.40290  1.0000
  C   C2873     1.0  0.49906  0.01601  0.32812  1.0000
  H   H4936     1.0  0.51553  0.00512  0.27069  1.0000
  H   H4937     1.0  0.51760  0.10161  0.44714  1.0000
  C   C2874     1.0  0.65871  0.98966  0.47127  1.0000
  C   C2875     1.0  0.72516  0.01998  0.42011  1.0000
  C   C2876     1.0  0.66560  0.02094  0.47349  1.0000
  H   H4938     1.0  0.64184  0.02018  0.39152  1.0000
  H   H4939     1.0  0.69732  0.08223  0.47567  1.0000
  H   H4940     1.0  0.50621  0.99393  0.40234  1.0000
  H   H4941     1.0  0.49735  0.02908  0.30128  1.0000
  C   C2877     1.0  0.59278  0.01131  0.44769  1.0000
  C   C2878     1.0  0.57953  0.07972  0.47151  1.0000
  C   C2879     1.0  0.52593  0.00258  0.38395  1.0000
  C   C2880     1.0  0.57796  0.02305  0.41886  1.0000
  H   H4942     1.0  0.49878  0.01064  0.42500  1.0000
  C   C2881     1.0  0.54189  0.09660  0.41027  1.0000
  H   H4943     1.0  0.55933  0.02347  0.46034  1.0000
  H   H4944     1.0  0.49295  0.99518  0.37406  1.0000
  H   H4945     1.0  0.56109  0.99360  0.45526  1.0000
  H   H4946     1.0  0.52537  0.08812  0.43458  1.0000
  H   H4947     1.0  0.50657  0.10550  0.40555  1.0000
  Fe  Fe424     1.0  0.70566  0.99896  0.45406  1.0000
  Fe  Fe425     1.0  0.61555  0.98912  0.45751  1.0000
  H   H4948     1.0  0.69424  0.02603  0.40107  1.0000
  C   C2882     1.0  0.52296  0.01348  0.48100  1.0000
  C   C2883     1.0  0.72946  0.02913  0.41862  1.0000
  C   C2884     1.0  0.69576  0.03065  0.43857  1.0000
  C   C2885     1.0  0.64413  0.03114  0.40004  1.0000
  S   S851      1.0  0.73260  0.05867  0.45127  1.0000
  H   H4949     1.0  0.70305  0.01933  0.42203  1.0000
  H   H4950     1.0  0.50031  0.09412  0.41215  1.0000
  H   H4951     1.0  0.53384  0.11423  0.41901  1.0000
  C   C2886     1.0  0.49400  0.01486  0.24442  1.0000
  H   H4952     1.0  0.57910  0.99541  0.44304  1.0000
  H   H4953     1.0  0.57394  0.02423  0.41202  1.0000
  C   C2887     1.0  0.66760  0.00521  0.44518  1.0000
  H   H4954     1.0  0.55469  0.01217  0.48363  1.0000
  H   H4955     1.0  0.50933  0.02207  0.30576  1.0000
  C   C2888     1.0  0.69582  0.02264  0.41836  1.0000
  C   C2889     1.0  0.51931  0.11185  0.41469  1.0000
  H   H4956     1.0  0.65372  0.99750  0.41373  1.0000
  H   H4957     1.0  0.58207  0.08403  0.46293  1.0000
  C   C2890     1.0  0.49934  0.01146  0.30610  1.0000
  H   H4958     1.0  0.68307  0.04085  0.40563  1.0000
  H   H4959     1.0  0.61787  0.02454  0.39149  1.0000
  S   S852      1.0  0.69493  0.01078  0.46426  1.0000
  C   C2891     1.0  0.50750  0.03894  0.31355  1.0000
  N   N205      1.0  0.58206  0.06273  0.46326  1.0000
  C   C2892     1.0  0.58348  0.05039  0.46715  1.0000
  C   C2893     1.0  0.59289  0.06483  0.45642  1.0000
  C   C2894     1.0  0.57385  0.06665  0.45614  1.0000
  H   H4960     1.0  0.71523  0.99985  0.47117  1.0000
  C   C2895     1.0  0.51440  0.10232  0.43985  1.0000
  C   C2896     1.0  0.60224  0.06107  0.46254  1.0000
  C   C2897     1.0  0.57103  0.07906  0.45114  1.0000
  H   H4961     1.0  0.58755  0.04622  0.46015  1.0000
  H   H4962     1.0  0.58889  0.04714  0.47308  1.0000
  H   H4963     1.0  0.59257  0.07358  0.45236  1.0000
  H   H4964     1.0  0.59551  0.06055  0.44950  1.0000
  H   H4965     1.0  0.57649  0.06224  0.44929  1.0000
  H   H4966     1.0  0.56596  0.06467  0.46086  1.0000
  H   H4967     1.0  0.52116  0.12349  0.42319  1.0000
  H   H4968     1.0  0.54406  0.98998  0.39186  1.0000
  H   H4969     1.0  0.65918  0.02853  0.47293  1.0000
  H   H4970     1.0  0.51571  0.03595  0.43369  1.0000
  C   C2898     1.0  0.49429  0.07300  0.31488  1.0000
  H   H4971     1.0  0.60931  0.06431  0.45704  1.0000
  H   H4972     1.0  0.49667  0.03383  0.36230  1.0000
  H   H4973     1.0  0.60493  0.05198  0.46450  1.0000
  H   H4974     1.0  0.56647  0.08378  0.45754  1.0000
  H   H4975     1.0  0.56553  0.08050  0.44553  1.0000
  H   H4976     1.0  0.57815  0.08240  0.44614  1.0000
  C   C2899     1.0  0.50203  0.00346  0.26486  1.0000
  H   H4977     1.0  0.49808  0.00620  0.24407  1.0000
  Fe  Fe426     1.0  0.71710  0.99466  0.43160  1.0000
  C   C2900     1.0  0.50935  0.00008  0.27318  1.0000
  H   H4978     1.0  0.60015  0.06425  0.47011  1.0000
  H   H4979     1.0  0.67580  0.02424  0.41455  1.0000
  H   H4980     1.0  0.57057  0.02973  0.45704  1.0000
  C   C2901     1.0  0.49552  0.02550  0.36504  1.0000
  H   H4981     1.0  0.61983  0.06333  0.47459  1.0000
  H   H4982     1.0  0.65090  0.02545  0.40364  1.0000
  H   H4983     1.0  0.67194  0.01607  0.45215  1.0000
  C   C2902     1.0  0.56802  0.02262  0.45616  1.0000
  H   H4984     1.0  0.63453  0.01878  0.46844  1.0000
  C   C2903     1.0  0.65671  0.04911  0.48131  1.0000
  C   C2904     1.0  0.56940  0.02307  0.44382  1.0000
  H   H4985     1.0  0.52928  0.00342  0.37496  1.0000
  H   H4986     1.0  0.65514  0.02800  0.45709  1.0000
  C   C2905     1.0  0.63679  0.02501  0.39774  1.0000
  H   H4987     1.0  0.69689  0.04807  0.41961  1.0000
  H   H4988     1.0  0.66542  0.03651  0.41421  1.0000
  H   H4989     1.0  0.51360  0.01833  0.33151  1.0000
  H   H4990     1.0  0.64785  0.03611  0.39216  1.0000
  C   C2906     1.0  0.62245  0.07047  0.47531  1.0000
  H   H4991     1.0  0.58538  0.07979  0.47619  1.0000
  H   H4992     1.0  0.63444  0.00456  0.42146  1.0000
  H   H4993     1.0  0.50442  0.09955  0.42627  1.0000
  H   H4994     1.0  0.51714  0.00606  0.38448  1.0000
  H   H4995     1.0  0.50585  0.00455  0.43580  1.0000
  H   H4996     1.0  0.50031  0.02383  0.43587  1.0000
  C   C2907     1.0  0.49169  0.02114  0.35854  1.0000
  H   H4997     1.0  0.51140  0.03015  0.26556  1.0000
  H   H4998     1.0  0.73533  0.00340  0.45929  1.0000
  H   H4999     1.0  0.49471  0.03685  0.32795  1.0000
  H   H5000     1.0  0.70881  0.05056  0.46780  1.0000
  H   H5001     1.0  0.59319  0.00636  0.43310  1.0000
  C   C2908     1.0  0.70877  0.06161  0.48226  1.0000
  H   H5002     1.0  0.53898  0.01087  0.38215  1.0000
  H   H5003     1.0  0.51440  0.03263  0.31622  1.0000
  H   H5004     1.0  0.50471  0.00025  0.28169  1.0000
  H   H5005     1.0  0.70167  0.03604  0.43547  1.0000
  H   H5006     1.0  0.70168  0.04179  0.39734  1.0000
  H   H5007     1.0  0.70009  0.02194  0.43900  1.0000
  H   H5008     1.0  0.70706  0.03665  0.41627  1.0000
  C   C2909     1.0  0.57822  0.06783  0.47317  1.0000
  H   H5009     1.0  0.50554  0.02044  0.27655  1.0000
  H   H5010     1.0  0.70802  0.02269  0.40288  1.0000
  H   H5011     1.0  0.51107  0.11114  0.43676  1.0000
  N   N206      1.0  0.63099  0.01787  0.40763  1.0000
  C   C2910     1.0  0.50054  0.02233  0.30779  1.0000
  C   C2911     1.0  0.62561  0.01132  0.40367  1.0000
  C   C2912     1.0  0.63876  0.00997  0.41434  1.0000
  C   C2913     1.0  0.62285  0.02521  0.41471  1.0000
  H   H5012     1.0  0.57767  0.00609  0.42568  1.0000
  H   H5013     1.0  0.50443  0.01003  0.29801  1.0000
  H   H5014     1.0  0.60164  0.01071  0.44496  1.0000
  C   C2914     1.0  0.61535  0.01950  0.42474  1.0000
  H   H5015     1.0  0.56953  0.06780  0.47680  1.0000
  H   H5016     1.0  0.53102  0.09962  0.43123  1.0000
  H   H5017     1.0  0.62305  0.00442  0.41035  1.0000
  N   N207      1.0  0.69916  0.05803  0.48131  1.0000
  N   N208      1.0  0.49433  0.01456  0.26440  1.0000
  H   H5018     1.0  0.51354  0.00677  0.42201  1.0000
  H   H5019     1.0  0.62704  0.02938  0.41814  1.0000
  H   H5020     1.0  0.61777  0.03220  0.40988  1.0000
  H   H5021     1.0  0.52880  0.03365  0.47631  1.0000
  H   H5022     1.0  0.69780  0.03770  0.46905  1.0000
  C   C2915     1.0  0.49000  0.07001  0.33479  1.0000
  H   H5023     1.0  0.60892  0.02151  0.40482  1.0000
  H   H5024     1.0  0.50768  0.00296  0.25678  1.0000
  H   H5025     1.0  0.63148  0.00718  0.39725  1.0000
  C   C2916     1.0  0.53092  0.09340  0.41279  1.0000
  C   C2917     1.0  0.65241  0.00125  0.46679  1.0000
  C   C2918     1.0  0.56209  0.00139  0.44917  1.0000
  H   H5026     1.0  0.61944  0.01580  0.43171  1.0000
  H   H5027     1.0  0.61245  0.01307  0.42306  1.0000
  H   H5028     1.0  0.60793  0.02566  0.42727  1.0000
  N   N209      1.0  0.50668  0.03064  0.41866  1.0000
  C   C2919     1.0  0.51728  0.02831  0.41057  1.0000
  C   C2920     1.0  0.50687  0.02153  0.42884  1.0000
  C   C2921     1.0  0.50492  0.04138  0.42189  1.0000
  H   H5029     1.0  0.63311  0.99701  0.45246  1.0000
  C   C2922     1.0  0.51914  0.03732  0.40003  1.0000
  C   C2923     1.0  0.50619  0.01030  0.42765  1.0000
  H   H5030     1.0  0.54173  0.10492  0.40489  1.0000
  H   H5031     1.0  0.61273  0.01231  0.39579  1.0000
  H   H5032     1.0  0.52418  0.02674  0.41449  1.0000
  H   H5033     1.0  0.51821  0.02063  0.40788  1.0000
  C   C2924     1.0  0.66164  0.06542  0.48202  1.0000
  H   H5034     1.0  0.51448  0.02000  0.43170  1.0000
  H   H5035     1.0  0.50358  0.04844  0.41487  1.0000
  H   H5036     1.0  0.64500  0.00266  0.47337  1.0000
  H   H5037     1.0  0.49754  0.03843  0.40614  1.0000
  S   S853      1.0  0.73148  0.03909  0.44053  1.0000
  H   H5038     1.0  0.51340  0.03847  0.39476  1.0000
  H   H5039     1.0  0.51880  0.04527  0.40181  1.0000
  H   H5040     1.0  0.52740  0.03477  0.39508  1.0000
  H   H5041     1.0  0.52542  0.01864  0.38648  1.0000
  H   H5042     1.0  0.49744  0.99687  0.26675  1.0000
  S   S854      1.0  0.69959  0.99717  0.44036  1.0000
  C   C2925     1.0  0.51405  0.04258  0.42648  1.0000
  C   C2926     1.0  0.51133  0.01290  0.32767  1.0000
  C   C2927     1.0  0.55347  0.00494  0.48155  1.0000
  C   C2928     1.0  0.49645  0.03595  0.31931  1.0000
  H   H5043     1.0  0.53218  0.08447  0.41666  1.0000
  C   C2929     1.0  0.70297  0.04850  0.47568  1.0000
  H   H5044     1.0  0.64084  0.02484  0.47538  1.0000
  C   C2930     1.0  0.69297  0.06756  0.47408  1.0000
  C   C2931     1.0  0.73646  0.01653  0.40272  1.0000
  H   H5045     1.0  0.56109  0.02488  0.44233  1.0000
  N   N210      1.0  0.52809  0.99070  0.38985  1.0000
  H   H5046     1.0  0.59174  0.00358  0.45377  1.0000
  C   C2932     1.0  0.66119  0.01091  0.47420  1.0000
  H   H5047     1.0  0.63951  0.03697  0.40541  1.0000
  S   S855      1.0  0.62026  0.99104  0.43931  1.0000
  H   H5048     1.0  0.67561  0.00424  0.43939  1.0000
  C   C2933     1.0  0.57305  0.04604  0.47286  1.0000
  H   H5049     1.0  0.67661  0.04712  0.41682  1.0000
  C   C2934     1.0  0.53081  0.01030  0.38739  1.0000
  C   C2935     1.0  0.49348  0.00367  0.37158  1.0000
  H   H5050     1.0  0.56853  0.04619  0.46677  1.0000
  H   H5051     1.0  0.49622  0.00835  0.32935  1.0000
  H   H5052     1.0  0.51643  0.01288  0.31935  1.0000
  N   N211      1.0  0.49508  0.02489  0.31893  1.0000
  H   H5053     1.0  0.52799  0.12513  0.40923  1.0000
  C   C2936     1.0  0.64818  0.00229  0.40815  1.0000
  C   C2937     1.0  0.69979  0.02101  0.40648  1.0000
  C   C2938     1.0  0.69367  0.01789  0.48242  1.0000
  S   S856      1.0  0.72276  0.99839  0.44463  1.0000
  H   H5054     1.0  0.64233  0.01440  0.41809  1.0000
  H   H5055     1.0  0.66833  0.01983  0.48115  1.0000
  H   H5056     1.0  0.69046  0.01685  0.42312  1.0000
  H   H5057     1.0  0.65312  0.00682  0.40087  1.0000
  C   C2939     1.0  0.70010  0.01133  0.47509  1.0000
  H   H5058     1.0  0.48942  0.02634  0.35109  1.0000
  H   H5059     1.0  0.51066  0.11571  0.41771  1.0000
  H   H5060     1.0  0.61925  0.07912  0.45929  1.0000
  H   H5061     1.0  0.71285  0.06570  0.47398  1.0000
  H   H5062     1.0  0.72129  0.04595  0.48265  1.0000
  H   H5063     1.0  0.63126  0.06924  0.47146  1.0000
  H   H5064     1.0  0.53152  0.00779  0.39606  1.0000
  H   H5065     1.0  0.56025  0.00286  0.47462  1.0000
  H   H5066     1.0  0.65410  0.01080  0.48118  1.0000
  C   C2940     1.0  0.69005  0.07887  0.47715  1.0000
  H   H5067     1.0  0.50217  0.00428  0.31242  1.0000
  C   C2941     1.0  0.71030  0.00507  0.47674  1.0000
  H   H5068     1.0  0.66738  0.00348  0.47678  1.0000
  H   H5069     1.0  0.52687  0.99906  0.47341  1.0000
  C   C2942     1.0  0.61574  0.01794  0.39869  1.0000
  S   S857      1.0  0.49193  0.07327  0.34636  1.0000
  Fe  Fe427     1.0  0.48983  0.06431  0.38739  1.0000
  H   H5070     1.0  0.58255  0.06273  0.47974  1.0000
  C   C2943     1.0  0.69397  0.04457  0.47337  1.0000
  H   H5071     1.0  0.58957  0.01850  0.45156  1.0000
  H   H5072     1.0  0.54443  0.09939  0.47945  1.0000
  C   C2944     1.0  0.51211  0.99585  0.40573  1.0000
  H   H5073     1.0  0.69479  0.99142  0.48262  1.0000
  H   H5074     1.0  0.57166  0.08481  0.47500  1.0000
  H   H5075     1.0  0.56761  0.05064  0.47905  1.0000
  H   H5076     1.0  0.54316  0.02890  0.47594  1.0000
  H   H5077     1.0  0.73499  0.00928  0.47013  1.0000
  H   H5078     1.0  0.54262  0.99978  0.47553  1.0000
  H   H5079     1.0  0.52327  0.99265  0.36831  1.0000
  H   H5080     1.0  0.60015  0.01699  0.48282  1.0000
  C   C2945     1.0  0.54734  0.07215  0.48113  1.0000
  H   H5081     1.0  0.48818  0.01744  0.23893  1.0000
  H   H5082     1.0  0.50957  0.99337  0.41480  1.0000
  H   H5083     1.0  0.49251  0.98929  0.31265  1.0000
  C   C2946     1.0  0.52379  0.98945  0.40208  1.0000
  H   H5084     1.0  0.63405  0.07893  0.48333  1.0000
  H   H5085     1.0  0.54393  0.98854  0.37879  1.0000
  C   C2947     1.0  0.48765  0.01590  0.25616  1.0000
  H   H5086     1.0  0.62147  0.08822  0.48338  1.0000
  H   H5087     1.0  0.48815  0.05196  0.23537  1.0000
  Fe  Fe428     1.0  0.48806  0.06474  0.36425  1.0000
  H   H5088     1.0  0.57842  0.98861  0.42415  1.0000
  C   C2948     1.0  0.48715  0.06666  0.31526  1.0000
  C   C2949     1.0  0.48670  0.01466  0.27550  1.0000
  H   H5089     1.0  0.60442  0.08992  0.48434  1.0000
  C   C2950     1.0  0.54715  0.08175  0.48422  1.0000
  S   S858      1.0  0.52912  0.99885  0.53975  1.0000
  H   H5090     1.0  0.69261  0.02393  0.49658  1.0000
  S   S859      1.0  0.66932  0.05035  0.51598  1.0000
  H   H5091     1.0  0.51840  0.07613  0.53084  1.0000
  C   C2951     1.0  0.51875  0.02751  0.55955  1.0000
  H   H5092     1.0  0.53584  0.99562  0.58185  1.0000
  H   H5093     1.0  0.52872  0.07356  0.51914  1.0000
  Fe  Fe429     1.0  0.55322  0.05077  0.53024  1.0000
  H   H5094     1.0  0.62112  0.01219  0.53836  1.0000
  S   S860      1.0  0.56682  0.03704  0.52496  1.0000
  H   H5095     1.0  0.57952  0.99032  0.53968  1.0000
  H   H5096     1.0  0.50901  0.09097  0.53756  1.0000
  C   C2952     1.0  0.49999  0.99378  0.54923  1.0000
  S   S861      1.0  0.67391  0.05905  0.53868  1.0000
  H   H5097     1.0  0.52218  0.00931  0.58979  1.0000
  C   C2953     1.0  0.63016  0.02452  0.53444  1.0000
  S   S862      1.0  0.62069  0.06802  0.53128  1.0000
  H   H5098     1.0  0.49389  0.02533  0.65288  1.0000
  Fe  Fe430     1.0  0.57587  0.05019  0.51534  1.0000
  H   H5099     1.0  0.62586  0.04784  0.52393  1.0000
  S   S863      1.0  0.64879  0.04804  0.53704  1.0000
  C   C2954     1.0  0.60068  0.05189  0.51932  1.0000
  Fe  Fe431     1.0  0.72271  0.99060  0.53746  1.0000
  H   H5100     1.0  0.52234  0.01161  0.68326  1.0000
  H   H5101     1.0  0.49675  0.00041  0.56412  1.0000
  C   C2955     1.0  0.64890  0.99850  0.55833  1.0000
  H   H5102     1.0  0.54331  0.00513  0.57253  1.0000
  N   N212      1.0  0.51832  0.03441  0.68452  1.0000
  H   H5103     1.0  0.50896  0.99195  0.54788  1.0000
  Fe  Fe432     1.0  0.48953  0.05594  0.58834  1.0000
  C   C2956     1.0  0.53280  0.02020  0.49033  1.0000
  H   H5104     1.0  0.52621  0.02006  0.69518  1.0000
  C   C2957     1.0  0.69560  0.01413  0.54781  1.0000
  H   H5105     1.0  0.70087  0.02830  0.51829  1.0000
  H   H5106     1.0  0.52587  0.03993  0.66747  1.0000
  H   H5107     1.0  0.59033  0.02860  0.48734  1.0000
  S   S864      1.0  0.72075  0.99609  0.55305  1.0000
  C   C2958     1.0  0.62647  0.01396  0.55820  1.0000
  H   H5108     1.0  0.52004  0.10749  0.54465  1.0000
  H   H5109     1.0  0.63063  0.02083  0.55659  1.0000
  H   H5110     1.0  0.68382  0.05452  0.49123  1.0000
  H   H5111     1.0  0.57396  0.00681  0.51654  1.0000
  H   H5112     1.0  0.52497  0.02297  0.49590  1.0000
  C   C2959     1.0  0.49907  0.03920  0.73072  1.0000
  H   H5113     1.0  0.63075  0.99178  0.56209  1.0000
  C   C2960     1.0  0.68532  0.06228  0.52859  1.0000
  H   H5114     1.0  0.70410  0.09999  0.52476  1.0000
  H   H5115     1.0  0.51283  0.05502  0.66844  1.0000
  C   C2961     1.0  0.68410  0.06904  0.51834  1.0000
  C   C2962     1.0  0.70480  0.06098  0.52290  1.0000
  C   C2963     1.0  0.69569  0.05831  0.53087  1.0000
  H   H5116     1.0  0.53912  0.09334  0.54661  1.0000
  C   C2964     1.0  0.52810  0.01740  0.56147  1.0000
  C   C2965     1.0  0.72784  0.02605  0.53932  1.0000
  H   H5117     1.0  0.69670  0.05323  0.53883  1.0000
  C   C2966     1.0  0.64565  0.00835  0.50423  1.0000
  C   C2967     1.0  0.64467  0.01976  0.50171  1.0000
  H   H5118     1.0  0.49921  0.01001  0.55139  1.0000
  C   C2968     1.0  0.72837  0.02961  0.54832  1.0000
  H   H5119     1.0  0.61251  0.02004  0.49377  1.0000
  C   C2969     1.0  0.65158  0.00171  0.51201  1.0000
  H   H5120     1.0  0.64022  0.02493  0.49559  1.0000
  S   S865      1.0  0.49942  0.01573  0.60399  1.0000
  H   H5121     1.0  0.53854  0.99874  0.50001  1.0000
  H   H5122     1.0  0.55427  0.99773  0.48850  1.0000
  H   H5123     1.0  0.61446  0.99829  0.54705  1.0000
  H   H5124     1.0  0.68577  0.09498  0.53110  1.0000
  S   S866      1.0  0.54520  0.05333  0.51629  1.0000
  C   C2970     1.0  0.72333  0.00914  0.55123  1.0000
  C   C2971     1.0  0.69582  0.04517  0.50069  1.0000
  S   S867      1.0  0.56974  0.05264  0.50021  1.0000
  H   H5125     1.0  0.62742  0.00914  0.56655  1.0000
  C   C2972     1.0  0.70780  0.01258  0.49267  1.0000
  H   H5126     1.0  0.53643  0.07137  0.53484  1.0000
  S   S868      1.0  0.71471  0.07230  0.50314  1.0000
  H   H5127     1.0  0.58739  0.06538  0.52297  1.0000
  H   H5128     1.0  0.49401  0.02391  0.58260  1.0000
  C   C2973     1.0  0.61753  0.05172  0.52368  1.0000
  C   C2974     1.0  0.64923  0.02449  0.50736  1.0000
  H   H5129     1.0  0.58604  0.01257  0.49985  1.0000
  C   C2975     1.0  0.65609  0.00640  0.51761  1.0000
  H   H5130     1.0  0.51627  0.05077  0.68717  1.0000
  C   C2976     1.0  0.62695  0.06033  0.49286  1.0000
  C   C2977     1.0  0.53630  0.00738  0.52892  1.0000
  C   C2978     1.0  0.53666  0.01768  0.52994  1.0000
  C   C2979     1.0  0.54374  0.02367  0.52203  1.0000
  C   C2980     1.0  0.55024  0.01956  0.51291  1.0000
  C   C2981     1.0  0.54954  0.00947  0.51163  1.0000
  C   C2982     1.0  0.54242  0.00350  0.51954  1.0000
  H   H5131     1.0  0.53171  0.02097  0.53691  1.0000
  H   H5132     1.0  0.54426  0.03140  0.52315  1.0000
  C   C2983     1.0  0.51021  0.08939  0.54598  1.0000
  H   H5133     1.0  0.54174  0.99583  0.51841  1.0000
  H   H5134     1.0  0.52221  0.04178  0.70238  1.0000
  C   C2984     1.0  0.69317  0.08828  0.53158  1.0000
  H   H5135     1.0  0.54735  0.09018  0.53398  1.0000
  H   H5136     1.0  0.53837  0.01721  0.58344  1.0000
  C   C2985     1.0  0.53158  0.00085  0.49601  1.0000
  C   C2986     1.0  0.72599  0.02304  0.55887  1.0000
  H   H5137     1.0  0.55456  0.00623  0.50461  1.0000
  C   C2987     1.0  0.53392  0.07988  0.53012  1.0000
  C   C2988     1.0  0.52283  0.01528  0.58174  1.0000
  C   C2989     1.0  0.72538  0.01586  0.54077  1.0000
  H   H5138     1.0  0.70322  0.03951  0.49742  1.0000
  S   S869      1.0  0.55921  0.02702  0.50317  1.0000
  C   C2990     1.0  0.48709  0.03863  0.66127  1.0000
  C   C2991     1.0  0.54088  0.08756  0.54111  1.0000
  N   N213      1.0  0.59952  0.01347  0.50601  1.0000
  C   C2992     1.0  0.59576  0.06151  0.52325  1.0000
  H   H5139     1.0  0.55232  0.07730  0.55114  1.0000
  C   C2993     1.0  0.61721  0.99522  0.55489  1.0000
  H   H5140     1.0  0.53562  0.02041  0.56002  1.0000
  H   H5141     1.0  0.64511  0.00212  0.56564  1.0000
  Fe  Fe433     1.0  0.63880  0.06157  0.52645  1.0000
  H   H5142     1.0  0.49807  0.00535  0.64753  1.0000
  H   H5143     1.0  0.54269  0.99832  0.55650  1.0000
  H   H5144     1.0  0.51123  0.02517  0.55971  1.0000
  H   H5145     1.0  0.53448  0.04904  0.57053  1.0000
  C   C2994     1.0  0.68412  0.99798  0.50837  1.0000
  H   H5146     1.0  0.63421  0.99025  0.54832  1.0000
  Fe  Fe434     1.0  0.65589  0.04141  0.52176  1.0000
  H   H5147     1.0  0.68657  0.07453  0.55837  1.0000
  S   S870      1.0  0.73158  0.06928  0.52428  1.0000
  H   H5148     1.0  0.63136  0.07490  0.50298  1.0000
  H   H5149     1.0  0.67218  0.08695  0.54179  1.0000
  C   C2995     1.0  0.52820  0.03595  0.67550  1.0000
  H   H5150     1.0  0.67823  0.99445  0.51545  1.0000
  C   C2996     1.0  0.52210  0.08526  0.54731  1.0000
  C   C2997     1.0  0.49524  0.00300  0.55571  1.0000
  H   H5151     1.0  0.52163  0.00843  0.50984  1.0000
  H   H5152     1.0  0.69504  0.99696  0.55570  1.0000
  S   S871      1.0  0.73247  0.04192  0.54657  1.0000
  C   C2998     1.0  0.50654  0.05267  0.67579  1.0000
  C   C2999     1.0  0.70353  0.06804  0.51279  1.0000
  H   H5153     1.0  0.51555  0.01780  0.48605  1.0000
  H   H5154     1.0  0.59810  0.99962  0.49350  1.0000
  C   C3000     1.0  0.53684  0.02549  0.67360  1.0000
  H   H5155     1.0  0.50952  0.01015  0.57288  1.0000
  Fe  Fe435     1.0  0.55963  0.04067  0.51033  1.0000
  Fe  Fe436     1.0  0.66145  0.05821  0.53029  1.0000
  H   H5156     1.0  0.66359  0.05016  0.49402  1.0000
  S   S872      1.0  0.64514  0.05417  0.51164  1.0000
  C   C3001     1.0  0.53155  0.05207  0.55433  1.0000
  H   H5157     1.0  0.70090  0.09806  0.54275  1.0000
  H   H5158     1.0  0.51358  0.99690  0.59073  1.0000
  H   H5159     1.0  0.54013  0.02098  0.68099  1.0000
  H   H5160     1.0  0.69212  0.07767  0.50281  1.0000
  C   C3002     1.0  0.69415  0.09394  0.54758  1.0000
  H   H5161     1.0  0.52595  0.05569  0.53939  1.0000
  H   H5162     1.0  0.68962  0.04013  0.50427  1.0000
  C   C3003     1.0  0.52512  0.07940  0.52468  1.0000
  H   H5163     1.0  0.52350  0.07622  0.55054  1.0000
  C   C3004     1.0  0.51155  0.02840  0.68161  1.0000
  C   C3005     1.0  0.60619  0.99770  0.49537  1.0000
  H   H5164     1.0  0.72633  0.02573  0.56591  1.0000
  H   H5165     1.0  0.62328  0.03001  0.53881  1.0000
  C   C3006     1.0  0.51374  0.01574  0.68548  1.0000
  H   H5166     1.0  0.53499  0.03567  0.69421  1.0000
  H   H5167     1.0  0.52951  0.01316  0.55472  1.0000
  H   H5168     1.0  0.54912  0.06424  0.48665  1.0000
  S   S873      1.0  0.66387  0.07279  0.49020  1.0000
  N   N214      1.0  0.53250  0.01046  0.48635  1.0000
  C   C3007     1.0  0.54083  0.99357  0.56507  1.0000
  H   H5169     1.0  0.62639  0.08929  0.49896  1.0000
  Fe  Fe437     1.0  0.73009  0.06514  0.50924  1.0000
  H   H5170     1.0  0.50624  0.09682  0.54943  1.0000
  S   S874      1.0  0.49584  0.06371  0.57050  1.0000
  C   C3008     1.0  0.54598  0.07629  0.54763  1.0000
  H   H5171     1.0  0.67033  0.03532  0.56189  1.0000
  H   H5172     1.0  0.64832  0.03330  0.50555  1.0000
  H   H5173     1.0  0.49329  0.03722  0.63425  1.0000
  Fe  Fe438     1.0  0.49166  0.03355  0.60310  1.0000
  H   H5174     1.0  0.61075  0.01804  0.55276  1.0000
  H   H5175     1.0  0.53897  0.01793  0.49535  1.0000
  H   H5176     1.0  0.60951  0.01572  0.56725  1.0000
  H   H5177     1.0  0.63781  0.02605  0.53497  1.0000
  H   H5178     1.0  0.50283  0.03115  0.68534  1.0000
  C   C3009     1.0  0.60066  0.01586  0.51631  1.0000
  Fe  Fe439     1.0  0.71925  0.99863  0.51427  1.0000
  C   C3010     1.0  0.62398  0.04966  0.49279  1.0000
  N   N215      1.0  0.69475  0.08412  0.54324  1.0000
  H   H5179     1.0  0.68256  0.03914  0.55384  1.0000
  H   H5180     1.0  0.51375  0.00514  0.50223  1.0000
  C   C3011     1.0  0.62902  0.99579  0.55382  1.0000
  C   C3012     1.0  0.52362  0.05554  0.54808  1.0000
  H   H5181     1.0  0.63477  0.00781  0.53241  1.0000
  C   C3013     1.0  0.69327  0.03175  0.53464  1.0000
  C   C3014     1.0  0.61189  0.01744  0.51621  1.0000
  H   H5182     1.0  0.60018  0.08694  0.49916  1.0000
  S   S875      1.0  0.56294  0.06377  0.52167  1.0000
  H   H5183     1.0  0.62827  0.04272  0.49835  1.0000
  C   C3015     1.0  0.49038  0.04079  0.64141  1.0000
  S   S876      1.0  0.71261  0.01422  0.50326  1.0000
  H   H5184     1.0  0.69181  0.08166  0.52860  1.0000
  H   H5185     1.0  0.59887  0.00912  0.52357  1.0000
  C   C3016     1.0  0.60638  0.00219  0.50508  1.0000
  H   H5186     1.0  0.71010  0.08644  0.52183  1.0000
  H   H5187     1.0  0.70021  0.09566  0.51482  1.0000
  C   C3017     1.0  0.52135  0.00251  0.50525  1.0000
  H   H5188     1.0  0.59460  0.02339  0.51823  1.0000
  C   C3018     1.0  0.61282  0.06155  0.52720  1.0000
  C   C3019     1.0  0.52779  0.09950  0.53052  1.0000
  C   C3020     1.0  0.67854  0.03210  0.55724  1.0000
  C   C3021     1.0  0.51734  0.00404  0.57281  1.0000
  H   H5189     1.0  0.53433  0.10100  0.52304  1.0000
  H   H5190     1.0  0.62981  0.02702  0.52562  1.0000
  H   H5191     1.0  0.67254  0.09221  0.55327  1.0000
  S   S877      1.0  0.63901  0.00225  0.49830  1.0000
  H   H5192     1.0  0.53229  0.04166  0.67698  1.0000
  H   H5193     1.0  0.61136  0.01974  0.52397  1.0000
  N   N216      1.0  0.63187  0.00694  0.54985  1.0000
  C   C3022     1.0  0.60185  0.06634  0.52717  1.0000
  S   S878      1.0  0.63135  0.98898  0.52750  1.0000
  C   C3023     1.0  0.70576  0.07638  0.54304  1.0000
  C   C3024     1.0  0.60349  0.02211  0.49632  1.0000
  C   C3025     1.0  0.51264  0.05892  0.55313  1.0000
  H   H5194     1.0  0.52955  0.02853  0.70765  1.0000
  Fe  Fe440     1.0  0.65796  0.06389  0.50733  1.0000
  H   H5195     1.0  0.61450  0.02419  0.50946  1.0000
  C   C3026     1.0  0.62535  0.08008  0.48772  1.0000
  C   C3027     1.0  0.69488  0.09182  0.55965  1.0000
  H   H5196     1.0  0.61505  0.00207  0.50419  1.0000
  H   H5197     1.0  0.71519  0.04955  0.49600  1.0000
  S   S879      1.0  0.54550  0.04841  0.54844  1.0000
  H   H5198     1.0  0.61520  0.04991  0.49582  1.0000
  C   C3028     1.0  0.62488  0.08116  0.49940  1.0000
  C   C3029     1.0  0.50952  0.05862  0.56446  1.0000
  C   C3030     1.0  0.67740  0.02722  0.54818  1.0000
  C   C3031     1.0  0.68592  0.07806  0.54971  1.0000
  H   H5199     1.0  0.71227  0.08105  0.54080  1.0000
  H   H5200     1.0  0.60801  0.06875  0.50179  1.0000
  H   H5201     1.0  0.61821  0.00978  0.51584  1.0000
  H   H5202     1.0  0.61696  0.08052  0.50509  1.0000
  H   H5203     1.0  0.52114  0.03267  0.55126  1.0000
  H   H5204     1.0  0.70755  0.03605  0.52258  1.0000
  H   H5205     1.0  0.69286  0.00545  0.56508  1.0000
  H   H5206     1.0  0.50470  0.04499  0.69303  1.0000
  H   H5207     1.0  0.60135  0.03022  0.49864  1.0000
  H   H5208     1.0  0.71610  0.06325  0.55247  1.0000
  H   H5209     1.0  0.50187  0.01642  0.63714  1.0000
  H   H5210     1.0  0.49825  0.99749  0.54092  1.0000
  H   H5211     1.0  0.64672  0.01295  0.54561  1.0000
  C   C3032     1.0  0.70329  0.02914  0.52545  1.0000
  H   H5212     1.0  0.54378  0.02788  0.66703  1.0000
  H   H5213     1.0  0.68076  0.02394  0.52755  1.0000
  H   H5214     1.0  0.67238  0.03385  0.54295  1.0000
  H   H5215     1.0  0.70770  0.07164  0.53656  1.0000
  H   H5216     1.0  0.60463  0.99595  0.51280  1.0000
  C   C3033     1.0  0.72346  0.01283  0.56033  1.0000
  N   N217      1.0  0.68791  0.02233  0.54116  1.0000
  H   H5217     1.0  0.61534  0.03951  0.51674  1.0000
  H   H5218     1.0  0.62588  0.06026  0.50166  1.0000
  H   H5219     1.0  0.52204  0.08735  0.51941  1.0000
  H   H5220     1.0  0.52144  0.11669  0.53145  1.0000
  H   H5221     1.0  0.69602  0.03511  0.54010  1.0000
  H   H5222     1.0  0.51518  0.05475  0.57939  1.0000
  H   H5223     1.0  0.51456  0.02064  0.58197  1.0000
  C   C3034     1.0  0.51524  0.99450  0.58279  1.0000
  H   H5224     1.0  0.69094  0.09948  0.56272  1.0000
  S   S880      1.0  0.50044  0.04695  0.60012  1.0000
  H   H5225     1.0  0.64831  0.00054  0.54158  1.0000
  H   H5226     1.0  0.70250  0.00970  0.54239  1.0000
  H   H5227     1.0  0.69042  0.08564  0.56527  1.0000
  H   H5228     1.0  0.70346  0.08940  0.56043  1.0000
  C   C3035     1.0  0.70740  0.06753  0.55355  1.0000
  C   C3036     1.0  0.67419  0.08475  0.54998  1.0000
  C   C3037     1.0  0.70251  0.09283  0.52293  1.0000
  H   H5229     1.0  0.59336  0.08345  0.49113  1.0000
  H   H5230     1.0  0.70529  0.07091  0.56096  1.0000
  C   C3038     1.0  0.52736  0.03408  0.69999  1.0000
  H   H5231     1.0  0.66855  0.07955  0.55549  1.0000
  H   H5232     1.0  0.51206  0.03043  0.67258  1.0000
  C   C3039     1.0  0.58230  0.00638  0.51724  1.0000
  C   C3040     1.0  0.60153  0.08382  0.49163  1.0000
  H   H5233     1.0  0.69315  0.01401  0.52761  1.0000
  H   H5234     1.0  0.60502  0.06695  0.49001  1.0000
  H   H5235     1.0  0.68911  0.06242  0.49637  1.0000
  H   H5236     1.0  0.55012  0.07039  0.54224  1.0000
  H   H5237     1.0  0.54107  0.08147  0.52337  1.0000
  H   H5238     1.0  0.48899  0.01416  0.62671  1.0000
  H   H5239     1.0  0.67221  0.02124  0.55232  1.0000
  H   H5240     1.0  0.70918  0.02161  0.52814  1.0000
  H   H5241     1.0  0.51676  0.99819  0.48608  1.0000
  C   C3041     1.0  0.49071  0.03408  0.65193  1.0000
  H   H5242     1.0  0.52103  0.99456  0.51125  1.0000
  H   H5243     1.0  0.51885  0.00091  0.56523  1.0000
  H   H5244     1.0  0.59813  0.07392  0.52998  1.0000
  H   H5245     1.0  0.71276  0.05782  0.52471  1.0000
  S   S881      1.0  0.70838  0.99297  0.53030  1.0000
  H   H5246     1.0  0.67128  0.01046  0.54282  1.0000
  C   C3042     1.0  0.53044  0.02233  0.58187  1.0000
  S   S882      1.0  0.73560  0.04694  0.51456  1.0000
  C   C3043     1.0  0.51151  0.04568  0.68571  1.0000
  H   H5247     1.0  0.52251  0.08870  0.55410  1.0000
  Fe  Fe441     1.0  0.55600  0.06508  0.50724  1.0000
  H   H5248     1.0  0.66036  0.00117  0.52386  1.0000
  C   C3044     1.0  0.69758  0.01866  0.49107  1.0000
  C   C3045     1.0  0.52839  0.05168  0.56565  1.0000
  H   H5249     1.0  0.65765  0.99859  0.55628  1.0000
  H   H5250     1.0  0.52055  0.10061  0.52726  1.0000
  H   H5251     1.0  0.68680  0.10050  0.54627  1.0000
  H   H5252     1.0  0.69950  0.01841  0.55145  1.0000
  C   C3046     1.0  0.62933  0.01238  0.53870  1.0000
  H   H5253     1.0  0.70279  0.06111  0.55492  1.0000
  H   H5254     1.0  0.54002  0.07265  0.55458  1.0000
  C   C3047     1.0  0.48873  0.00137  0.60219  1.0000
  C   C3048     1.0  0.61151  0.04695  0.51971  1.0000
  H   H5255     1.0  0.51701  0.03282  0.56547  1.0000
  H   H5256     1.0  0.68743  0.03868  0.53066  1.0000
  H   H5257     1.0  0.48835  0.99568  0.62888  1.0000
  C   C3049     1.0  0.52120  0.02846  0.69544  1.0000
  H   H5258     1.0  0.61273  0.02817  0.55837  1.0000
  H   H5259     1.0  0.68425  0.00058  0.54240  1.0000
  C   C3050     1.0  0.65484  0.01778  0.51543  1.0000
  S   S883      1.0  0.65080  0.07250  0.52124  1.0000
  S   S884      1.0  0.59409  0.04632  0.51280  1.0000
  S   S885      1.0  0.49949  0.03993  0.71684  1.0000
  H   H5260     1.0  0.53310  0.11047  0.53718  1.0000
  H   H5261     1.0  0.58674  0.99770  0.51788  1.0000
  H   H5262     1.0  0.68676  0.07079  0.54637  1.0000
  H   H5263     1.0  0.68294  0.02584  0.56319  1.0000
  N   N218      1.0  0.53086  0.08808  0.53732  1.0000
  C   C3051     1.0  0.60878  0.07208  0.49280  1.0000
  S   S886      1.0  0.66007  0.02315  0.52332  1.0000
  H   H5264     1.0  0.68134  0.99491  0.48927  1.0000
  H   H5265     1.0  0.67613  0.07222  0.51652  1.0000
  C   C3052     1.0  0.69317  0.07209  0.51055  1.0000
  C   C3053     1.0  0.68554  0.01741  0.53307  1.0000
  H   H5266     1.0  0.68744  0.00330  0.51136  1.0000
  C   C3054     1.0  0.61423  0.01916  0.55908  1.0000
  C   C3055     1.0  0.59903  0.02443  0.48590  1.0000
  C   C3056     1.0  0.51744  0.05486  0.57071  1.0000
  C   C3057     1.0  0.53664  0.00103  0.57347  1.0000
  H   H5267     1.0  0.50655  0.06179  0.54825  1.0000
  N   N219      1.0  0.52623  0.00944  0.57239  1.0000
  H   H5268     1.0  0.58294  0.02269  0.50753  1.0000
  H   H5269     1.0  0.53174  0.02870  0.57424  1.0000
  H   H5270     1.0  0.67828  0.00539  0.53087  1.0000
  H   H5271     1.0  0.69736  0.04777  0.50745  1.0000
  H   H5272     1.0  0.51371  0.02721  0.70179  1.0000
  S   S887      1.0  0.73303  0.99765  0.52160  1.0000
  H   H5273     1.0  0.53373  0.02003  0.67064  1.0000
  C   C3058     1.0  0.69098  0.00527  0.55732  1.0000
  H   H5274     1.0  0.52667  0.02673  0.58869  1.0000
  C   C3059     1.0  0.69161  0.05540  0.49227  1.0000
  H   H5275     1.0  0.50906  0.01252  0.68163  1.0000
  H   H5276     1.0  0.69970  0.99326  0.49827  1.0000
  C   C3060     1.0  0.52547  0.10898  0.53642  1.0000
  H   H5277     1.0  0.67989  0.00343  0.50191  1.0000
  H   H5278     1.0  0.51077  0.01327  0.69450  1.0000
  C   C3061     1.0  0.64404  0.00505  0.54827  1.0000
  C   C3062     1.0  0.49261  0.01091  0.59711  1.0000
  H   H5279     1.0  0.51610  0.03176  0.72876  1.0000
  H   H5280     1.0  0.61211  0.00066  0.48790  1.0000
  C   C3063     1.0  0.67948  0.00797  0.53782  1.0000
  H   H5281     1.0  0.68216  0.00603  0.55887  1.0000
  H   H5282     1.0  0.50556  0.08307  0.55106  1.0000
  H   H5283     1.0  0.72182  0.00770  0.56848  1.0000
  H   H5284     1.0  0.72945  0.03102  0.53120  1.0000
  H   H5285     1.0  0.50130  0.04858  0.67366  1.0000
  S   S888      1.0  0.55011  0.08149  0.49675  1.0000
  H   H5286     1.0  0.65258  0.99291  0.51390  1.0000
  H   H5287     1.0  0.50400  0.00345  0.63358  1.0000
  H   H5288     1.0  0.58142  0.00894  0.52496  1.0000
  C   C3064     1.0  0.58765  0.01415  0.50713  1.0000
  H   H5289     1.0  0.72512  0.01321  0.53375  1.0000
  C   C3065     1.0  0.49068  0.01675  0.58676  1.0000
  H   H5290     1.0  0.50129  0.06045  0.67795  1.0000
  H   H5291     1.0  0.61148  0.99925  0.56137  1.0000
  C   C3066     1.0  0.49838  0.00913  0.63873  1.0000
  H   H5292     1.0  0.70603  0.06785  0.48738  1.0000
  C   C3067     1.0  0.71781  0.05273  0.48708  1.0000
  H   H5293     1.0  0.63579  0.05951  0.48933  1.0000
  H   H5294     1.0  0.72459  0.05663  0.48620  1.0000
  H   H5295     1.0  0.50787  0.99198  0.58272  1.0000
  H   H5296     1.0  0.49025  0.99675  0.61013  1.0000
  H   H5297     1.0  0.65556  0.04087  0.48518  1.0000
  N   N220      1.0  0.62061  0.07098  0.48717  1.0000
  H   H5298     1.0  0.68544  0.07867  0.48573  1.0000
  H   H5299     1.0  0.72193  0.00076  0.48694  1.0000
  C   C3068     1.0  0.66111  0.05443  0.48640  1.0000
  H   H5300     1.0  0.53201  0.99332  0.49331  1.0000
  H   H5301     1.0  0.53473  0.03709  0.48534  1.0000
  H   H5302     1.0  0.62673  0.04763  0.48459  1.0000
  H   H5303     1.0  0.73445  0.01153  0.48842  1.0000
  C   C3069     1.0  0.71410  0.00560  0.48563  1.0000
  C   C3070     1.0  0.69356  0.98893  0.50417  1.0000
  S   S889      1.0  0.48800  0.02977  0.67421  1.0000
  H   H5304     1.0  0.64850  0.98972  0.56033  1.0000
  C   C3071     1.0  0.48719  0.01292  0.63578  1.0000
  H   H5305     1.0  0.60849  0.98859  0.49746  1.0000
  C   C3072     1.0  0.50875  0.03477  0.73435  1.0000
  C   C3073     1.0  0.48667  0.05216  0.64012  1.0000
  S   S890      1.0  0.48678  0.02399  0.70526  1.0000
  S   S891      1.0  0.48666  0.06082  0.62693  1.0000
  C   C3074     1.0  0.49102  0.02458  0.85481  1.0000
  H   H5306     1.0  0.51565  0.28702  0.94070  1.0000
  C   C3075     1.0  0.50860  0.28952  0.92116  1.0000
  C   C3076     1.0  0.52883  0.48323  0.97358  1.0000
  C   C3077     1.0  0.49976  0.03830  0.75249  1.0000
  H   H5307     1.0  0.67584  0.48703  0.89126  1.0000
  H   H5308     1.0  0.68414  0.47538  0.90352  1.0000
  Fe  Fe442     1.0  0.70953  0.48343  0.93092  1.0000
  H   H5309     1.0  0.62980  0.41747  0.98057  1.0000
  S   S892      1.0  0.71498  0.47572  0.91639  1.0000
  C   C3078     1.0  0.52426  0.47684  0.96983  1.0000
  C   C3079     1.0  0.50942  0.08004  0.90509  1.0000
  C   C3080     1.0  0.54852  0.46566  0.90126  1.0000
  H   H5310     1.0  0.57733  0.47210  0.94848  1.0000
  H   H5311     1.0  0.53035  0.48657  0.94222  1.0000
  H   H5312     1.0  0.49024  0.33619  0.95161  1.0000
  N   N221      1.0  0.50692  0.27822  0.92731  1.0000
  Fe  Fe443     1.0  0.63301  0.48531  0.92529  1.0000
  H   H5313     1.0  0.49981  0.00020  0.73701  1.0000
  C   C3081     1.0  0.50331  0.08869  0.92489  1.0000
  H   H5314     1.0  0.55466  0.45937  0.89717  1.0000
  S   S893      1.0  0.48785  0.43132  0.92470  1.0000
  S   S894      1.0  0.70231  0.46974  0.94235  1.0000
  C   C3082     1.0  0.72372  0.46366  0.97823  1.0000
  H   H5315     1.0  0.52804  0.45168  0.91054  1.0000
  C   C3083     1.0  0.51513  0.27304  0.93440  1.0000
  C   C3084     1.0  0.62785  0.45191  0.97763  1.0000
  H   H5316     1.0  0.62303  0.48162  0.96854  1.0000
  H   H5317     1.0  0.51854  0.11423  0.90242  1.0000
  H   H5318     1.0  0.51927  0.21653  0.96630  1.0000
  H   H5319     1.0  0.70089  0.47051  0.97483  1.0000
  H   H5320     1.0  0.51064  0.10628  0.98209  1.0000
  C   C3085     1.0  0.56192  0.46685  0.96678  1.0000
  C   C3086     1.0  0.50908  0.03426  0.74516  1.0000
  H   H5321     1.0  0.68384  0.43816  0.92860  1.0000
  H   H5322     1.0  0.49336  0.26245  0.93720  1.0000
  H   H5323     1.0  0.52247  0.09641  0.92216  1.0000
  S   S895      1.0  0.49762  0.05402  0.84979  1.0000
  C   C3087     1.0  0.63588  0.43277  0.97652  1.0000
  C   C3088     1.0  0.49859  0.00612  0.74220  1.0000
  H   H5324     1.0  0.50180  0.07773  0.91034  1.0000
  H   H5325     1.0  0.53144  0.47227  0.91614  1.0000
  S   S896      1.0  0.49071  0.39868  0.93492  1.0000
  H   H5326     1.0  0.54972  0.47906  0.88629  1.0000
  S   S897      1.0  0.50067  0.11733  0.94646  1.0000
  S   S898      1.0  0.54551  0.48199  0.92244  1.0000
  H   H5327     1.0  0.49982  0.00159  0.75050  1.0000
  H   H5328     1.0  0.53709  0.45257  0.91768  1.0000
  H   H5329     1.0  0.55463  0.46364  0.97166  1.0000
  C   C3089     1.0  0.54935  0.41317  0.97538  1.0000
  H   H5330     1.0  0.49914  0.45200  0.96756  1.0000
  H   H5331     1.0  0.67149  0.46685  0.91575  1.0000
  H   H5332     1.0  0.66525  0.44200  0.97855  1.0000
  C   C3090     1.0  0.48741  0.36340  0.95200  1.0000
  C   C3091     1.0  0.67979  0.43705  0.96590  1.0000
  C   C3092     1.0  0.56658  0.48201  0.93807  1.0000
  H   H5333     1.0  0.51609  0.09442  0.89762  1.0000
  H   H5334     1.0  0.50741  0.34798  0.95302  1.0000
  H   H5335     1.0  0.63213  0.42416  0.96614  1.0000
  H   H5336     1.0  0.68919  0.45427  0.97532  1.0000
  H   H5337     1.0  0.50561  0.12340  0.90427  1.0000
  H   H5338     1.0  0.49296  0.46296  0.95081  1.0000
  Fe  Fe444     1.0  0.53689  0.44414  0.93857  1.0000
  S   S899      1.0  0.52623  0.46083  0.93960  1.0000
  S   S900      1.0  0.53324  0.43073  0.93319  1.0000
  Fe  Fe445     1.0  0.55345  0.44717  0.94947  1.0000
  S   S901      1.0  0.54394  0.46386  0.95168  1.0000
  S   S902      1.0  0.56838  0.44083  0.95666  1.0000
  Fe  Fe446     1.0  0.52930  0.45665  0.95655  1.0000
  S   S903      1.0  0.51672  0.45868  0.97189  1.0000
  Fe  Fe447     1.0  0.54192  0.46654  0.93456  1.0000
  H   H5339     1.0  0.50128  0.27299  0.91584  1.0000
  S   S904      1.0  0.53891  0.43963  0.95591  1.0000
  S   S905      1.0  0.55244  0.45014  0.93190  1.0000
  Fe  Fe448     1.0  0.61762  0.46958  0.93431  1.0000
  H   H5340     1.0  0.51900  0.26470  0.90551  1.0000
  S   S906      1.0  0.60685  0.46356  0.92767  1.0000
  Fe  Fe449     1.0  0.63687  0.46630  0.94439  1.0000
  C   C3093     1.0  0.49819  0.34628  0.93719  1.0000
  S   S907      1.0  0.65005  0.45375  0.95193  1.0000
  H   H5341     1.0  0.57152  0.47735  0.93171  1.0000
  H   H5342     1.0  0.50864  0.98919  0.79036  1.0000
  H   H5343     1.0  0.49709  0.20019  0.97617  1.0000
  H   H5344     1.0  0.50196  0.22870  0.97005  1.0000
  S   S908      1.0  0.61901  0.46717  0.95166  1.0000
  S   S909      1.0  0.63554  0.46712  0.92734  1.0000
  H   H5345     1.0  0.50233  0.21998  0.95553  1.0000
  C   C3094     1.0  0.50976  0.11480  0.90363  1.0000
  C   C3095     1.0  0.66316  0.45394  0.94373  1.0000
  C   C3096     1.0  0.66880  0.44527  0.93851  1.0000
  C   C3097     1.0  0.67930  0.46160  0.93753  1.0000
  C   C3098     1.0  0.66842  0.46212  0.94321  1.0000
  H   H5346     1.0  0.66484  0.43885  0.93897  1.0000
  H   H5347     1.0  0.68327  0.46795  0.93715  1.0000
  H   H5348     1.0  0.66413  0.46879  0.94734  1.0000
  C   C3099     1.0  0.52043  0.46784  0.97706  1.0000
  H   H5349     1.0  0.49309  0.45098  0.94657  1.0000
  C   C3100     1.0  0.68717  0.48435  0.97441  1.0000
  C   C3101     1.0  0.48852  0.39600  0.98320  1.0000
  C   C3102     1.0  0.51410  0.27861  0.94381  1.0000
  C   C3103     1.0  0.57909  0.44722  0.94879  1.0000
  C   C3104     1.0  0.57940  0.45217  0.93773  1.0000
  C   C3105     1.0  0.58799  0.45712  0.93140  1.0000
  C   C3106     1.0  0.59617  0.45746  0.93615  1.0000
  C   C3107     1.0  0.59577  0.45277  0.94732  1.0000
  C   C3108     1.0  0.58728  0.44753  0.95361  1.0000
  H   H5350     1.0  0.57315  0.45200  0.93394  1.0000
  H   H5351     1.0  0.58829  0.46071  0.92276  1.0000
  H   H5352     1.0  0.60210  0.45298  0.95100  1.0000
  H   H5353     1.0  0.58702  0.44377  0.96220  1.0000
  H   H5354     1.0  0.49870  0.29075  0.90928  1.0000
  H   H5355     1.0  0.50648  0.10967  0.92115  1.0000
  H   H5356     1.0  0.59135  0.47675  0.95479  1.0000
  C   C3109     1.0  0.51728  0.47342  0.91038  1.0000
  H   H5357     1.0  0.51666  0.03087  0.74781  1.0000
  C   C3110     1.0  0.69584  0.48493  0.90028  1.0000
  N   N222      1.0  0.51008  0.09480  0.91492  1.0000
  H   H5358     1.0  0.70197  0.44818  0.96022  1.0000
  H   H5359     1.0  0.50732  0.29484  0.92698  1.0000
  H   H5360     1.0  0.66758  0.48022  0.92698  1.0000
  H   H5361     1.0  0.70901  0.43838  0.94549  1.0000
  H   H5362     1.0  0.52258  0.46636  0.88310  1.0000
  C   C3111     1.0  0.49515  0.44814  0.96360  1.0000
  C   C3112     1.0  0.72691  0.46184  0.96759  1.0000
  H   H5363     1.0  0.49236  0.01904  0.78184  1.0000
  H   H5364     1.0  0.56782  0.46421  0.97211  1.0000
  S   S910      1.0  0.49549  0.30477  0.94530  1.0000
  H   H5365     1.0  0.49286  0.01603  0.85374  1.0000
  C   C3113     1.0  0.57533  0.48475  0.96334  1.0000
  C   C3114     1.0  0.48952  0.34517  0.94794  1.0000
  H   H5366     1.0  0.52383  0.47877  0.96130  1.0000
  H   H5367     1.0  0.51451  0.18843  0.98278  1.0000
  H   H5368     1.0  0.67239  0.42782  0.98201  1.0000
  C   C3115     1.0  0.51642  0.20884  0.97077  1.0000
  H   H5369     1.0  0.51981  0.22382  0.97997  1.0000
  N   N223      1.0  0.68809  0.44100  0.96888  1.0000
  C   C3116     1.0  0.50839  0.27090  0.91958  1.0000
  H   H5370     1.0  0.52272  0.99285  0.81217  1.0000
  C   C3117     1.0  0.48857  0.31188  0.96466  1.0000
  H   H5371     1.0  0.51520  0.46552  0.91519  1.0000
  H   H5372     1.0  0.56007  0.47617  0.89375  1.0000
  C   C3118     1.0  0.49922  0.11876  0.95995  1.0000
  C   C3119     1.0  0.50940  0.09206  0.90459  1.0000
  H   H5373     1.0  0.50180  0.00628  0.78072  1.0000
  H   H5374     1.0  0.51174  0.08813  0.93764  1.0000
  C   C3120     1.0  0.50517  0.11206  0.97721  1.0000
  C   C3121     1.0  0.50615  0.11129  0.96641  1.0000
  H   H5375     1.0  0.49334  0.30071  0.91772  1.0000
  H   H5376     1.0  0.67667  0.44301  0.95889  1.0000
  H   H5377     1.0  0.66888  0.45824  0.96608  1.0000
  H   H5378     1.0  0.51235  0.10489  0.96304  1.0000
  H   H5379     1.0  0.62044  0.44429  0.96483  1.0000
  C   C3122     1.0  0.49727  0.30925  0.95606  1.0000
  H   H5380     1.0  0.50697  0.00748  0.80726  1.0000
  H   H5381     1.0  0.55049  0.40542  0.98165  1.0000
  H   H5382     1.0  0.49722  0.34120  0.93206  1.0000
  C   C3123     1.0  0.50927  0.31379  0.96443  1.0000
  C   C3124     1.0  0.50761  0.31016  0.95598  1.0000
  H   H5383     1.0  0.68057  0.46436  0.95958  1.0000
  C   C3125     1.0  0.66995  0.43466  0.97523  1.0000
  H   H5384     1.0  0.51727  0.31456  0.96431  1.0000
  H   H5385     1.0  0.51435  0.30812  0.94934  1.0000
  H   H5386     1.0  0.51715  0.28938  0.91663  1.0000
  C   C3126     1.0  0.49133  0.12709  0.96437  1.0000
  H   H5387     1.0  0.56504  0.46304  0.95958  1.0000
  C   C3127     1.0  0.49440  0.43050  0.96006  1.0000
  H   H5388     1.0  0.48955  0.01402  0.80220  1.0000
  H   H5389     1.0  0.55188  0.48134  0.95897  1.0000
  H   H5390     1.0  0.51365  0.43643  0.95299  1.0000
  C   C3128     1.0  0.49590  0.43149  0.97815  1.0000
  H   H5391     1.0  0.52066  0.20703  0.95372  1.0000
  H   H5392     1.0  0.54700  0.48355  0.89903  1.0000
  S   S911      1.0  0.49176  0.25177  0.91670  1.0000
  H   H5393     1.0  0.52524  0.41982  0.96485  1.0000
  C   C3129     1.0  0.54438  0.44348  0.90493  1.0000
  S   S912      1.0  0.63577  0.48437  0.94180  1.0000
  H   H5394     1.0  0.51080  0.42871  0.98406  1.0000
  C   C3130     1.0  0.69340  0.43186  0.97707  1.0000
  H   H5395     1.0  0.70454  0.48336  0.97172  1.0000
  H   H5396     1.0  0.50335  0.04495  0.83046  1.0000
  H   H5397     1.0  0.51275  0.47962  0.91540  1.0000
  H   H5398     1.0  0.49050  0.22380  0.97871  1.0000
  H   H5399     1.0  0.50182  0.09695  0.90193  1.0000
  C   C3131     1.0  0.67958  0.44485  0.93268  1.0000
  C   C3132     1.0  0.67578  0.46055  0.96749  1.0000
  H   H5400     1.0  0.68890  0.47440  0.91516  1.0000
  H   H5401     1.0  0.52652  0.09689  0.90809  1.0000
  H   H5402     1.0  0.49247  0.17488  0.93959  1.0000
  C   C3133     1.0  0.48997  0.04274  0.74894  1.0000
  H   H5403     1.0  0.50499  0.01093  0.73839  1.0000
  H   H5404     1.0  0.49705  0.35485  0.93229  1.0000
  C   C3134     1.0  0.49708  0.36852  0.94484  1.0000
  H   H5405     1.0  0.68353  0.42930  0.96293  1.0000
  C   C3135     1.0  0.51690  0.42088  0.96384  1.0000
  C   C3136     1.0  0.49218  0.00742  0.79752  1.0000
  C   C3137     1.0  0.50019  0.43107  0.92775  1.0000
  C   C3138     1.0  0.50286  0.44100  0.92715  1.0000
  C   C3139     1.0  0.51279  0.44100  0.92926  1.0000
  C   C3140     1.0  0.52027  0.43109  0.93156  1.0000
  C   C3141     1.0  0.51758  0.42119  0.93219  1.0000
  C   C3142     1.0  0.50753  0.42116  0.93046  1.0000
  H   H5406     1.0  0.50878  0.26218  0.92408  1.0000
  H   H5407     1.0  0.51475  0.44865  0.92886  1.0000
  H   H5408     1.0  0.52333  0.41348  0.93396  1.0000
  H   H5409     1.0  0.50561  0.41348  0.93087  1.0000
  H   H5410     1.0  0.54293  0.46262  0.88547  1.0000
  H   H5411     1.0  0.52609  0.26874  0.91309  1.0000
  H   H5412     1.0  0.50572  0.07968  0.92560  1.0000
  C   C3143     1.0  0.60599  0.44903  0.97693  1.0000
  H   H5413     1.0  0.53187  0.07802  0.90975  1.0000
  C   C3144     1.0  0.49124  0.05384  0.82094  1.0000
  C   C3145     1.0  0.52798  0.08056  0.91768  1.0000
  Fe  Fe450     1.0  0.70890  0.46134  0.92829  1.0000
  H   H5414     1.0  0.55035  0.44286  0.98105  1.0000
  H   H5415     1.0  0.64323  0.41681  0.97243  1.0000
  H   H5416     1.0  0.50960  0.20092  0.96154  1.0000
  H   H5417     1.0  0.49848  0.08541  0.94271  1.0000
  H   H5418     1.0  0.50614  0.27889  0.94967  1.0000
  H   H5419     1.0  0.55235  0.44229  0.90695  1.0000
  C   C3146     1.0  0.50093  0.29601  0.91329  1.0000
  H   H5420     1.0  0.56873  0.43095  0.98100  1.0000
  C   C3147     1.0  0.49254  0.26877  0.94180  1.0000
  H   H5421     1.0  0.49563  0.38938  0.98365  1.0000
  H   H5422     1.0  0.49377  0.28557  0.93919  1.0000
  H   H5423     1.0  0.50800  0.11357  0.89625  1.0000
  C   C3148     1.0  0.72929  0.46941  0.98158  1.0000
  C   C3149     1.0  0.68293  0.45083  0.97401  1.0000
  H   H5424     1.0  0.51491  0.26425  0.93814  1.0000
  H   H5425     1.0  0.48793  0.02116  0.74530  1.0000
  H   H5426     1.0  0.58015  0.48518  0.94181  1.0000
  H   H5427     1.0  0.49457  0.02436  0.86171  1.0000
  C   C3150     1.0  0.50039  0.34668  0.95988  1.0000
  S   S913      1.0  0.69851  0.45201  0.92491  1.0000
  C   C3151     1.0  0.49152  0.99352  0.81469  1.0000
  H   H5428     1.0  0.60063  0.44874  0.97181  1.0000
  C   C3152     1.0  0.50152  0.35129  0.96913  1.0000
  H   H5429     1.0  0.51448  0.00072  0.79662  1.0000
  H   H5430     1.0  0.49721  0.44870  0.92508  1.0000
  S   S914      1.0  0.48803  0.99010  0.88338  1.0000
  H   H5431     1.0  0.56154  0.41878  0.97858  1.0000
  H   H5432     1.0  0.55927  0.47859  0.94193  1.0000
  H   H5433     1.0  0.50185  0.33759  0.96271  1.0000
  H   H5434     1.0  0.63806  0.46142  0.97957  1.0000
  H   H5435     1.0  0.49671  0.34778  0.97720  1.0000
  H   H5436     1.0  0.49957  0.37302  0.94952  1.0000
  C   C3153     1.0  0.61718  0.44145  0.97378  1.0000
  H   H5437     1.0  0.51044  0.99007  0.82136  1.0000
  N   N224      1.0  0.50550  0.21150  0.97835  1.0000
  H   H5438     1.0  0.50504  0.30183  0.90650  1.0000
  C   C3154     1.0  0.51851  0.27094  0.91010  1.0000
  H   H5439     1.0  0.49079  0.00914  0.76691  1.0000
  H   H5440     1.0  0.55315  0.42911  0.97054  1.0000
  H   H5441     1.0  0.51646  0.07406  0.90784  1.0000
  H   H5442     1.0  0.53442  0.07966  0.92207  1.0000
  C   C3155     1.0  0.48810  0.00144  0.82263  1.0000
  C   C3156     1.0  0.49025  0.31540  0.97321  1.0000
  H   H5443     1.0  0.50424  0.36284  0.94120  1.0000
  H   H5444     1.0  0.69219  0.45063  0.95245  1.0000
  C   C3157     1.0  0.49553  0.27940  0.93412  1.0000
  H   H5445     1.0  0.63003  0.45504  0.96860  1.0000
  H   H5446     1.0  0.67789  0.44838  0.98233  1.0000
  C   C3158     1.0  0.55129  0.47680  0.89467  1.0000
  C   C3159     1.0  0.53531  0.46618  0.89088  1.0000
  C   C3160     1.0  0.68606  0.48043  0.90801  1.0000
  H   H5447     1.0  0.55023  0.46419  0.90955  1.0000
  H   H5448     1.0  0.54145  0.43579  0.90910  1.0000
  C   C3161     1.0  0.49522  0.22051  0.96250  1.0000
  C   C3162     1.0  0.49821  0.22143  0.97280  1.0000
  H   H5449     1.0  0.52301  0.07471  0.92305  1.0000
  H   H5450     1.0  0.49012  0.99693  0.83068  1.0000
  N   N225      1.0  0.56743  0.48533  0.95654  1.0000
  H   H5451     1.0  0.53029  0.48155  0.90339  1.0000
  H   H5452     1.0  0.49266  0.27002  0.89818  1.0000
  N   N226      1.0  0.49854  0.99714  0.80362  1.0000
  H   H5453     1.0  0.52306  0.19437  0.96339  1.0000
  H   H5454     1.0  0.51796  0.27898  0.90415  1.0000
  C   C3163     1.0  0.49163  0.05726  0.83839  1.0000
  C   C3164     1.0  0.50529  0.10694  0.91425  1.0000
  H   H5455     1.0  0.52348  0.27293  0.92934  1.0000
  H   H5456     1.0  0.53476  0.43926  0.97970  1.0000
  C   C3165     1.0  0.50346  0.09058  0.93605  1.0000
  H   H5457     1.0  0.66436  0.43213  0.97189  1.0000
  H   H5458     1.0  0.64501  0.44767  0.97893  1.0000
  C   C3166     1.0  0.69627  0.44427  0.95857  1.0000
  H   H5459     1.0  0.48959  0.28272  0.92873  1.0000
  H   H5460     1.0  0.50656  0.34316  0.93853  1.0000
  N   N227      1.0  0.48973  0.35109  0.95632  1.0000
  C   C3167     1.0  0.70300  0.43499  0.95260  1.0000
  N   N228      1.0  0.53716  0.46451  0.90225  1.0000
  H   H5461     1.0  0.49470  0.09090  0.92414  1.0000
  Fe  Fe451     1.0  0.71881  0.46264  0.94593  1.0000
  H   H5462     1.0  0.49924  0.36039  0.96748  1.0000
  H   H5463     1.0  0.64096  0.43019  0.98275  1.0000
  H   H5464     1.0  0.70764  0.42810  0.95786  1.0000
  H   H5465     1.0  0.49637  0.10872  0.91508  1.0000
  H   H5466     1.0  0.49475  0.04934  0.81446  1.0000
  H   H5467     1.0  0.51985  0.45992  0.89723  1.0000
  H   H5468     1.0  0.49734  0.26532  0.94824  1.0000
  N   N229      1.0  0.49921  0.43583  0.96593  1.0000
  C   C3168     1.0  0.50062  0.31633  0.97309  1.0000
  H   H5469     1.0  0.62063  0.45799  0.98070  1.0000
  H   H5470     1.0  0.51430  0.47615  0.90267  1.0000
  C   C3169     1.0  0.51134  0.43322  0.96198  1.0000
  H   H5471     1.0  0.50553  0.45364  0.94754  1.0000
  C   C3170     1.0  0.49684  0.45410  0.95139  1.0000
  H   H5472     1.0  0.70264  0.47788  0.89854  1.0000
  Fe  Fe452     1.0  0.61786  0.48534  0.94753  1.0000
  C   C3171     1.0  0.52945  0.47315  0.90811  1.0000
  C   C3172     1.0  0.66508  0.47442  0.91438  1.0000
  H   H5473     1.0  0.60638  0.45776  0.97535  1.0000
  H   H5474     1.0  0.52033  0.27379  0.94861  1.0000
  H   H5475     1.0  0.48726  0.43521  0.98127  1.0000
  C   C3173     1.0  0.51727  0.20244  0.96200  1.0000
  H   H5476     1.0  0.68227  0.47797  0.97693  1.0000
  H   H5477     1.0  0.51532  0.43761  0.96542  1.0000
  H   H5478     1.0  0.52262  0.20395  0.97563  1.0000
  H   H5479     1.0  0.49523  0.02983  0.84749  1.0000
  C   C3174     1.0  0.55859  0.47941  0.96333  1.0000
  H   H5480     1.0  0.54099  0.41561  0.97406  1.0000
  S   S915      1.0  0.72545  0.47733  0.93600  1.0000
  C   C3175     1.0  0.49024  0.12777  0.97528  1.0000
  S   S916      1.0  0.72510  0.45310  0.93269  1.0000
  H   H5481     1.0  0.61553  0.43334  0.97450  1.0000
  H   H5482     1.0  0.49184  0.00865  0.81970  1.0000
  H   H5483     1.0  0.66439  0.47675  0.90571  1.0000
  C   C3176     1.0  0.49821  0.01235  0.78598  1.0000
  Fe  Fe453     1.0  0.73052  0.46847  0.92231  1.0000
  C   C3177     1.0  0.53617  0.45325  0.90925  1.0000
  C   C3178     1.0  0.63502  0.42223  0.97386  1.0000
  H   H5484     1.0  0.49660  0.42137  0.96272  1.0000
  H   H5485     1.0  0.49440  0.37482  0.93781  1.0000
  C   C3179     1.0  0.69840  0.47871  0.97693  1.0000
  S   S917      1.0  0.71950  0.45510  0.96345  1.0000
  C   C3180     1.0  0.70332  0.43382  0.97976  1.0000
  C   C3181     1.0  0.63712  0.45277  0.98223  1.0000
  C   C3182     1.0  0.57340  0.48094  0.94637  1.0000
  H   H5486     1.0  0.49982  0.09919  0.93681  1.0000
  H   H5487     1.0  0.64084  0.43691  0.96884  1.0000
  H   H5488     1.0  0.54548  0.44439  0.89598  1.0000
  H   H5489     1.0  0.49626  0.42250  0.98019  1.0000
  S   S918      1.0  0.50097  0.03765  0.76588  1.0000
  H   H5490     1.0  0.69598  0.42397  0.97430  1.0000
  H   H5491     1.0  0.69790  0.43190  0.94916  1.0000
  H   H5492     1.0  0.70139  0.44138  0.98295  1.0000
  C   C3183     1.0  0.68492  0.45295  0.93224  1.0000
  C   C3184     1.0  0.52170  0.09264  0.91577  1.0000
  N   N230      1.0  0.62542  0.44064  0.98020  1.0000
  H   H5493     1.0  0.49107  0.21376  0.96397  1.0000
  C   C3185     1.0  0.50870  0.99954  0.80473  1.0000
  C   C3186     1.0  0.49721  0.12027  0.98171  1.0000
  C   C3187     1.0  0.51500  0.99063  0.81272  1.0000
  H   H5494     1.0  0.53334  0.47512  0.88706  1.0000
  H   H5495     1.0  0.49492  0.00945  0.88276  1.0000
  C   C3188     1.0  0.58563  0.47537  0.96289  1.0000
  H   H5496     1.0  0.50629  0.23211  0.98380  1.0000
  H   H5497     1.0  0.51011  0.34876  0.96990  1.0000
  C   C3189     1.0  0.66687  0.48378  0.91834  1.0000
  H   H5498     1.0  0.50461  0.01615  0.78642  1.0000
  H   H5499     1.0  0.50968  0.07921  0.89672  1.0000
  S   S919      1.0  0.50284  0.32113  0.98340  1.0000
  H   H5500     1.0  0.58997  0.47529  0.96912  1.0000
  H   H5501     1.0  0.53016  0.45299  0.88741  1.0000
  H   H5502     1.0  0.55466  0.41128  0.96752  1.0000
  H   H5503     1.0  0.49051  0.99290  0.78629  1.0000
  H   H5504     1.0  0.50232  0.44241  0.98388  1.0000
  H   H5505     1.0  0.71025  0.43418  0.97258  1.0000
  C   C3190     1.0  0.48964  0.04321  0.73802  1.0000
  H   H5506     1.0  0.57119  0.48425  0.97216  1.0000
  C   C3191     1.0  0.55296  0.42231  0.97796  1.0000
  H   H5507     1.0  0.58390  0.46713  0.96465  1.0000
  H   H5508     1.0  0.65733  0.47223  0.91936  1.0000
  C   C3192     1.0  0.73594  0.46547  0.96037  1.0000
  H   H5509     1.0  0.51734  0.41752  0.95670  1.0000
  H   H5510     1.0  0.55484  0.48224  0.97112  1.0000
  H   H5511     1.0  0.49787  0.43222  0.95107  1.0000
  C   C3193     1.0  0.49611  0.05139  0.82998  1.0000
  C   C3194     1.0  0.49985  0.20202  0.98261  1.0000
  C   C3195     1.0  0.52647  0.46099  0.88988  1.0000
  H   H5512     1.0  0.67219  0.46700  0.97236  1.0000
  H   H5513     1.0  0.48941  0.22817  0.95978  1.0000
  H   H5514     1.0  0.63112  0.48280  0.98312  1.0000
  H   H5515     1.0  0.51278  0.41584  0.97135  1.0000
  S   S920      1.0  0.48737  0.05168  0.88197  1.0000
  S   S921      1.0  0.48862  0.13703  0.92086  1.0000
  H   H5516     1.0  0.68874  0.48672  0.96531  1.0000
  H   H5517     1.0  0.71682  0.46077  0.98383  1.0000
  Fe  Fe454     1.0  0.48702  0.12616  0.93785  1.0000
  C   C3196     1.0  0.48671  0.27292  0.90498  1.0000
  C   C3197     1.0  0.48739  0.01406  0.74255  1.0000
  H   H5518     1.0  0.53123  0.42648  0.98441  1.0000
  H   H5519     1.0  0.48672  0.09364  0.88197  1.0000
  H   H5520     1.0  0.68343  0.48722  0.92571  1.0000
  S   S922      1.0  0.61503  0.48786  0.93078  1.0000
  H   H5521     1.0  0.49063  0.57814  0.05852  1.0000
  C   C3198     1.0  0.50552  0.98668  0.21370  1.0000
  C   C3199     1.0  0.62377  0.50556  0.02343  1.0000
  H   H5522     1.0  0.70545  0.54325  0.00203  1.0000
  C   C3200     1.0  0.68722  0.49405  0.02772  1.0000
  H   H5523     1.0  0.62344  0.52681  0.03617  1.0000
  H   H5524     1.0  0.57269  0.50574  0.01479  1.0000
  H   H5525     1.0  0.67656  0.50504  0.99703  1.0000
  H   H5526     1.0  0.55366  0.51742  0.03875  1.0000
  H   H5527     1.0  0.53439  0.59324  0.98790  1.0000
  H   H5528     1.0  0.50358  0.85753  0.01045  1.0000
  C   C3201     1.0  0.69272  0.50152  0.01746  1.0000
  H   H5529     1.0  0.50648  0.78162  0.01605  1.0000
  C   C3202     1.0  0.48751  0.66371  0.04314  1.0000
  C   C3203     1.0  0.60198  0.48955  0.00763  1.0000
  C   C3204     1.0  0.51805  0.51424  0.00875  1.0000
  H   H5530     1.0  0.60134  0.50446  0.04465  1.0000
  H   H5531     1.0  0.57172  0.52358  0.00632  1.0000
  H   H5532     1.0  0.49669  0.84396  0.02150  1.0000
  C   C3205     1.0  0.60097  0.52095  0.02221  1.0000
  H   H5533     1.0  0.49814  0.58868  0.05406  1.0000
  C   C3206     1.0  0.50861  0.97424  0.21407  1.0000
  H   H5534     1.0  0.52213  0.96903  0.13620  1.0000
  H   H5535     1.0  0.49676  0.98841  0.21754  1.0000
  H   H5536     1.0  0.60284  0.52321  0.03731  1.0000
  H   H5537     1.0  0.58030  0.58911  0.02277  1.0000
  H   H5538     1.0  0.57721  0.58322  0.07084  1.0000
  H   H5539     1.0  0.69570  0.53109  0.99186  1.0000
  H   H5540     1.0  0.63524  0.51641  0.03211  1.0000
  H   H5541     1.0  0.61486  0.51129  0.04932  1.0000
  H   H5542     1.0  0.58300  0.57477  0.02858  1.0000
  H   H5543     1.0  0.50288  0.79392  0.00586  1.0000
  H   H5544     1.0  0.71893  0.52448  0.02704  1.0000
  H   H5545     1.0  0.72997  0.52427  0.00848  1.0000
  H   H5546     1.0  0.52188  0.50486  0.99644  1.0000
  Fe  Fe455     1.0  0.56463  0.56072  0.00759  1.0000
  S   S923      1.0  0.54704  0.56160  0.01501  1.0000
  C   C3207     1.0  0.57516  0.49999  0.00915  1.0000
  Fe  Fe456     1.0  0.57121  0.55060  0.02930  1.0000
  S   S924      1.0  0.55401  0.55011  0.03859  1.0000
  S   S925      1.0  0.58566  0.54439  0.03722  1.0000
  Fe  Fe457     1.0  0.55268  0.54437  0.02422  1.0000
  Fe  Fe458     1.0  0.54989  0.56727  0.02844  1.0000
  H   H5547     1.0  0.69561  0.49481  0.99093  1.0000
  S   S926      1.0  0.57024  0.54330  0.01604  1.0000
  S   S927      1.0  0.56717  0.56803  0.02005  1.0000
  Fe  Fe459     1.0  0.64506  0.55067  0.01323  1.0000
  S   S928      1.0  0.64954  0.53243  0.01474  1.0000
  S   S929      1.0  0.62867  0.56037  0.00972  1.0000
  Fe  Fe460     1.0  0.66827  0.55167  0.01330  1.0000
  S   S930      1.0  0.67439  0.53351  0.01498  1.0000
  S   S931      1.0  0.68007  0.56279  0.00900  1.0000
  Fe  Fe461     1.0  0.66483  0.53538  0.00260  1.0000
  C   C3208     1.0  0.54241  0.51241  0.99109  1.0000
  Fe  Fe462     1.0  0.65862  0.53229  0.02704  1.0000
  S   S932      1.0  0.49109  0.63797  0.02064  1.0000
  S   S933      1.0  0.65972  0.55361  0.99993  1.0000
  S   S934      1.0  0.65306  0.55047  0.02655  1.0000
  H   H5548     1.0  0.50937  0.96556  0.14421  1.0000
  C   C3209     1.0  0.61375  0.48969  0.04404  1.0000
  S   S935      1.0  0.72316  0.54854  0.02725  1.0000
  H   H5549     1.0  0.52093  0.98558  0.11489  1.0000
  H   H5550     1.0  0.63752  0.51057  0.01101  1.0000
  C   C3210     1.0  0.49156  0.58593  0.05248  1.0000
  C   C3211     1.0  0.70579  0.53516  0.00046  1.0000
  C   C3212     1.0  0.71703  0.51617  0.00068  1.0000
  C   C3213     1.0  0.55108  0.51304  0.03433  1.0000
  H   H5551     1.0  0.67670  0.50212  0.04564  1.0000
  H   H5552     1.0  0.73100  0.57497  0.98973  1.0000
  N   N231      1.0  0.49659  0.77264  0.00510  1.0000
  S   S936      1.0  0.67291  0.52817  0.98789  1.0000
  H   H5553     1.0  0.72430  0.51057  0.00359  1.0000
  H   H5554     1.0  0.57780  0.55844  0.06520  1.0000
  S   S937      1.0  0.49283  0.95589  0.11566  1.0000
  C   C3214     1.0  0.55622  0.57994  0.05549  1.0000
  H   H5555     1.0  0.49857  0.68211  0.04815  1.0000
  C   C3215     1.0  0.53917  0.58564  0.99215  1.0000
  H   H5556     1.0  0.50121  0.98552  0.09790  1.0000
  C   C3216     1.0  0.48980  0.67933  0.00624  1.0000
  H   H5557     1.0  0.57004  0.57287  0.07255  1.0000
  C   C3217     1.0  0.57466  0.58217  0.05536  1.0000
  C   C3218     1.0  0.70038  0.53739  0.99071  1.0000
  H   H5558     1.0  0.54120  0.49739  0.01886  1.0000
  H   H5559     1.0  0.56331  0.58719  0.07009  1.0000
  H   H5560     1.0  0.60783  0.48972  0.01225  1.0000
  H   H5561     1.0  0.59989  0.50658  0.00042  1.0000
  H   H5562     1.0  0.72085  0.53707  0.00944  1.0000
  C   C3219     1.0  0.62799  0.51833  0.03860  1.0000
  H   H5563     1.0  0.65173  0.52310  0.99612  1.0000
  C   C3220     1.0  0.49417  0.66774  0.04704  1.0000
  C   C3221     1.0  0.69203  0.55866  0.01410  1.0000
  C   C3222     1.0  0.69286  0.55077  0.02385  1.0000
  C   C3223     1.0  0.70236  0.54797  0.02789  1.0000
  C   C3224     1.0  0.71125  0.55270  0.02203  1.0000
  C   C3225     1.0  0.71053  0.56039  0.01213  1.0000
  C   C3226     1.0  0.70088  0.56349  0.00829  1.0000
  H   H5564     1.0  0.68606  0.54707  0.02842  1.0000
  H   H5565     1.0  0.70285  0.54205  0.03557  1.0000
  H   H5566     1.0  0.71734  0.56407  0.00753  1.0000
  H   H5567     1.0  0.70028  0.56960  0.00075  1.0000
  H   H5568     1.0  0.52020  0.52166  0.00928  1.0000
  H   H5569     1.0  0.48907  0.61989  0.99039  1.0000
  H   H5570     1.0  0.66357  0.50308  0.99681  1.0000
  C   C3227     1.0  0.65043  0.50081  0.05181  1.0000
  C   C3228     1.0  0.50279  0.77557  0.99338  1.0000
  C   C3229     1.0  0.67171  0.49888  0.99844  1.0000
  C   C3230     1.0  0.62101  0.50977  0.04172  1.0000
  C   C3231     1.0  0.59746  0.54918  0.02968  1.0000
  C   C3232     1.0  0.59788  0.55591  0.01915  1.0000
  C   C3233     1.0  0.60745  0.55941  0.01319  1.0000
  C   C3234     1.0  0.61676  0.55597  0.01757  1.0000
  C   C3235     1.0  0.61633  0.54930  0.02812  1.0000
  C   C3236     1.0  0.60665  0.54605  0.03422  1.0000
  H   H5571     1.0  0.59086  0.55838  0.01555  1.0000
  H   H5572     1.0  0.60768  0.56475  0.00513  1.0000
  H   H5573     1.0  0.62342  0.54681  0.03163  1.0000
  H   H5574     1.0  0.60635  0.54097  0.04242  1.0000
  H   H5575     1.0  0.48770  0.78950  0.00409  1.0000
  H   H5576     1.0  0.50661  0.75625  0.00821  1.0000
  N   N232      1.0  0.50528  0.98212  0.12436  1.0000
  H   H5577     1.0  0.55851  0.54815  0.99999  1.0000
  C   C3237     1.0  0.54403  0.50168  0.02315  1.0000
  C   C3238     1.0  0.71701  0.51287  0.99018  1.0000
  S   S938      1.0  0.48988  0.97373  0.08658  1.0000
  C   C3239     1.0  0.49969  0.78770  0.01292  1.0000
  H   H5578     1.0  0.50987  0.51405  0.01414  1.0000
  C   C3240     1.0  0.51459  0.77652  0.99166  1.0000
  H   H5579     1.0  0.49039  0.76010  0.00218  1.0000
  H   H5580     1.0  0.65334  0.49397  0.02385  1.0000
  C   C3241     1.0  0.54840  0.49589  0.03230  1.0000
  H   H5581     1.0  0.67401  0.58559  0.98604  1.0000
  C   C3242     1.0  0.50650  0.59942  0.02709  1.0000
  H   H5582     1.0  0.68696  0.51651  0.04594  1.0000
  H   H5583     1.0  0.50921  0.83290  0.98668  1.0000
  H   H5584     1.0  0.50451  0.75420  0.02846  1.0000
  C   C3243     1.0  0.56898  0.58464  0.03820  1.0000
  H   H5585     1.0  0.50625  0.54675  0.99174  1.0000
  H   H5586     1.0  0.63830  0.52217  0.98650  1.0000
  H   H5587     1.0  0.51743  0.59069  0.99155  1.0000
  H   H5588     1.0  0.60631  0.53357  0.99399  1.0000
  H   H5589     1.0  0.57190  0.49628  0.98990  1.0000
  C   C3244     1.0  0.72489  0.53204  0.98937  1.0000
  H   H5590     1.0  0.49451  0.58443  0.04405  1.0000
  C   C3245     1.0  0.72550  0.54416  0.98722  1.0000
  C   C3246     1.0  0.51118  0.53852  0.99475  1.0000
  C   C3247     1.0  0.49562  0.67180  0.98490  1.0000
  H   H5591     1.0  0.57506  0.51567  0.99077  1.0000
  H   H5592     1.0  0.54797  0.59544  0.04622  1.0000
  N   N233      1.0  0.56809  0.57825  0.04996  1.0000
  H   H5593     1.0  0.56630  0.59364  0.03780  1.0000
  H   H5594     1.0  0.58332  0.57774  0.05365  1.0000
  H   H5595     1.0  0.52657  0.57652  0.02379  1.0000
  C   C3248     1.0  0.62898  0.51438  0.01436  1.0000
  S   S939      1.0  0.48963  0.97192  0.17755  1.0000
  H   H5596     1.0  0.57482  0.59100  0.05178  1.0000
  H   H5597     1.0  0.71602  0.51444  0.02198  1.0000
  H   H5598     1.0  0.49746  0.93882  0.13392  1.0000
  H   H5599     1.0  0.52283  0.98309  0.19689  1.0000
  H   H5600     1.0  0.60451  0.54332  0.00233  1.0000
  C   C3249     1.0  0.65253  0.49580  0.03164  1.0000
  H   H5601     1.0  0.51113  0.76599  0.01183  1.0000
  H   H5602     1.0  0.49521  0.79186  0.01979  1.0000
  C   C3250     1.0  0.56177  0.54770  0.99153  1.0000
  H   H5603     1.0  0.49776  0.97932  0.19262  1.0000
  H   H5604     1.0  0.68286  0.51713  0.03367  1.0000
  C   C3251     1.0  0.52123  0.59840  0.03544  1.0000
  H   H5605     1.0  0.69278  0.50946  0.01895  1.0000
  H   H5606     1.0  0.50488  0.98719  0.18066  1.0000
  H   H5607     1.0  0.50383  0.97189  0.20967  1.0000
  H   H5608     1.0  0.50676  0.61143  0.03550  1.0000
  H   H5609     1.0  0.49179  0.93758  0.15397  1.0000
  H   H5610     1.0  0.55199  0.57575  0.05209  1.0000
  H   H5611     1.0  0.50569  0.53423  0.00170  1.0000
  H   H5612     1.0  0.50653  0.96981  0.22276  1.0000
  H   H5613     1.0  0.50325  0.76934  0.98876  1.0000
  H   H5614     1.0  0.55514  0.53376  0.99339  1.0000
  C   C3252     1.0  0.57992  0.52298  0.00085  1.0000
  H   H5615     1.0  0.55544  0.49712  0.04491  1.0000
  H   H5616     1.0  0.52359  0.50687  0.01252  1.0000
  H   H5617     1.0  0.58911  0.51578  0.98702  1.0000
  H   H5618     1.0  0.49955  0.83158  0.01672  1.0000
  H   H5619     1.0  0.51923  0.95626  0.13673  1.0000
  C   C3253     1.0  0.64707  0.49161  0.05146  1.0000
  H   H5620     1.0  0.56788  0.50175  0.00567  1.0000
  H   H5621     1.0  0.60567  0.51778  0.01478  1.0000
  H   H5622     1.0  0.68684  0.49820  0.05300  1.0000
  H   H5623     1.0  0.70657  0.52751  0.02263  1.0000
  H   H5624     1.0  0.50979  0.97369  0.10428  1.0000
  C   C3254     1.0  0.50416  0.98414  0.18967  1.0000
  C   C3255     1.0  0.54993  0.59203  0.05446  1.0000
  C   C3256     1.0  0.51557  0.96513  0.13645  1.0000
  H   H5625     1.0  0.63100  0.51805  0.04587  1.0000
  C   C3257     1.0  0.64798  0.48915  0.04138  1.0000
  H   H5626     1.0  0.53228  0.52728  0.99546  1.0000
  C   C3258     1.0  0.49446  0.68577  0.99471  1.0000
  H   H5627     1.0  0.51998  0.76830  0.99366  1.0000
  H   H5628     1.0  0.70010  0.53156  0.00777  1.0000
  C   C3259     1.0  0.60090  0.54091  0.99683  1.0000
  H   H5629     1.0  0.70538  0.49416  0.05022  1.0000
  C   C3260     1.0  0.53359  0.52295  0.98883  1.0000
  C   C3261     1.0  0.49937  0.98465  0.11523  1.0000
  H   H5630     1.0  0.54631  0.56916  0.99034  1.0000
  H   H5631     1.0  0.51181  0.97831  0.19096  1.0000
  H   H5632     1.0  0.50933  0.51440  0.99682  1.0000
  H   H5633     1.0  0.51296  0.98720  0.10093  1.0000
  H   H5634     1.0  0.51886  0.57264  0.98843  1.0000
  C   C3262     1.0  0.60832  0.50123  0.03837  1.0000
  H   H5635     1.0  0.58000  0.53107  0.99503  1.0000
  H   H5636     1.0  0.56359  0.55881  0.06614  1.0000
  H   H5637     1.0  0.49998  0.66207  0.05159  1.0000
  H   H5638     1.0  0.67355  0.57160  0.98855  1.0000
  S   S940      1.0  0.48832  0.64946  0.04648  1.0000
  H   H5639     1.0  0.54893  0.51443  0.99353  1.0000
  C   C3263     1.0  0.58823  0.49506  0.99231  1.0000
  C   C3264     1.0  0.49826  0.75988  0.02406  1.0000
  H   H5640     1.0  0.56822  0.56374  0.04480  1.0000
  C   C3265     1.0  0.50641  0.98259  0.10403  1.0000
  H   H5641     1.0  0.51768  0.53997  0.99766  1.0000
  H   H5642     1.0  0.54206  0.59244  0.06053  1.0000
  H   H5643     1.0  0.50166  0.98499  0.14085  1.0000
  C   C3266     1.0  0.49186  0.78271  0.00991  1.0000
  H   H5644     1.0  0.71544  0.50447  0.99235  1.0000
  H   H5645     1.0  0.59090  0.54963  0.98510  1.0000
  C   C3267     1.0  0.50365  0.76365  0.01187  1.0000
  H   H5646     1.0  0.55444  0.59730  0.05595  1.0000
  H   H5647     1.0  0.62653  0.50174  0.04416  1.0000
  H   H5648     1.0  0.49849  0.78351  0.98893  1.0000
  H   H5649     1.0  0.67049  0.49491  0.00732  1.0000
  H   H5650     1.0  0.68815  0.50342  0.01090  1.0000
  C   C3268     1.0  0.55200  0.50158  0.03784  1.0000
  H   H5651     1.0  0.50220  0.87186  0.00489  1.0000
  C   C3269     1.0  0.57185  0.55799  0.06086  1.0000
  H   H5652     1.0  0.49564  0.67154  0.00867  1.0000
  C   C3270     1.0  0.51107  0.60385  0.03289  1.0000
  H   H5653     1.0  0.62498  0.51705  0.00728  1.0000
  N   N234      1.0  0.61554  0.50938  0.03310  1.0000
  C   C3271     1.0  0.53820  0.57477  0.99018  1.0000
  H   H5654     1.0  0.55493  0.57604  0.06436  1.0000
  C   C3272     1.0  0.67741  0.48997  0.99171  1.0000
  N   N235      1.0  0.71709  0.52802  0.99972  1.0000
  C   C3273     1.0  0.49337  0.67908  0.04510  1.0000
  H   H5655     1.0  0.59452  0.55790  0.99138  1.0000
  H   H5656     1.0  0.57422  0.54954  0.05934  1.0000
  C   C3274     1.0  0.58018  0.49672  0.98505  1.0000
  H   H5657     1.0  0.51723  0.96815  0.11905  1.0000
  H   H5658     1.0  0.53257  0.57105  0.99751  1.0000
  H   H5659     1.0  0.54782  0.58617  0.99009  1.0000
  C   C3275     1.0  0.59441  0.50104  0.00563  1.0000
  H   H5660     1.0  0.51541  0.78199  0.99638  1.0000
  C   C3276     1.0  0.51060  0.97001  0.12619  1.0000
  H   H5661     1.0  0.70629  0.49718  0.02979  1.0000
  H   H5662     1.0  0.51739  0.97111  0.21116  1.0000
  S   S941      1.0  0.62725  0.50013  0.99482  1.0000
  C   C3277     1.0  0.62454  0.54806  0.98513  1.0000
  C   C3278     1.0  0.68828  0.51213  0.03929  1.0000
  C   C3279     1.0  0.51792  0.51349  0.99708  1.0000
  H   H5663     1.0  0.70991  0.51383  0.00698  1.0000
  H   H5664     1.0  0.49462  0.76683  0.02828  1.0000
  H   H5665     1.0  0.53912  0.51760  0.01299  1.0000
  H   H5666     1.0  0.59691  0.52966  0.01957  1.0000
  H   H5667     1.0  0.61997  0.50184  0.01913  1.0000
  H   H5668     1.0  0.69681  0.51189  0.03499  1.0000
  C   C3280     1.0  0.65468  0.50763  0.04209  1.0000
  C   C3281     1.0  0.71524  0.52338  0.02081  1.0000
  H   H5669     1.0  0.62919  0.52171  0.01693  1.0000
  C   C3282     1.0  0.60827  0.52044  0.02985  1.0000
  S   S942      1.0  0.54357  0.53333  0.02146  1.0000
  H   H5670     1.0  0.49308  0.97970  0.11763  1.0000
  H   H5671     1.0  0.52522  0.55582  0.98522  1.0000
  H   H5672     1.0  0.65943  0.51011  0.02445  1.0000
  H   H5673     1.0  0.70109  0.49724  0.01416  1.0000
  C   C3283     1.0  0.51216  0.58955  0.02381  1.0000
  H   H5674     1.0  0.59438  0.51652  0.02658  1.0000
  H   H5675     1.0  0.50864  0.58603  0.01938  1.0000
  C   C3284     1.0  0.72125  0.52846  0.00928  1.0000
  C   C3285     1.0  0.49737  0.98425  0.13490  1.0000
  H   H5676     1.0  0.53930  0.50590  0.99780  1.0000
  H   H5677     1.0  0.61288  0.52694  0.02572  1.0000
  H   H5678     1.0  0.50340  0.68344  0.99382  1.0000
  C   C3286     1.0  0.57247  0.56625  0.04971  1.0000
  C   C3287     1.0  0.49753  0.86537  0.00918  1.0000
  H   H5679     1.0  0.49345  0.97716  0.13910  1.0000
  C   C3288     1.0  0.49011  0.86528  0.00193  1.0000
  H   H5680     1.0  0.59145  0.50354  0.01367  1.0000
  N   N236      1.0  0.58503  0.50233  0.00045  1.0000
  H   H5681     1.0  0.49207  0.75520  0.02504  1.0000
  C   C3289     1.0  0.54629  0.51886  0.02542  1.0000
  H   H5682     1.0  0.67838  0.49776  0.02910  1.0000
  H   H5683     1.0  0.58659  0.58415  0.03431  1.0000
  H   H5684     1.0  0.58120  0.56466  0.04557  1.0000
  C   C3290     1.0  0.58043  0.58297  0.03067  1.0000
  C   C3291     1.0  0.49203  0.94576  0.13706  1.0000
  H   H5685     1.0  0.50470  0.96505  0.12691  1.0000
  C   C3292     1.0  0.57099  0.58121  0.06790  1.0000
  H   H5686     1.0  0.58601  0.52177  0.00570  1.0000
  H   H5687     1.0  0.64950  0.50277  0.05963  1.0000
  H   H5688     1.0  0.60475  0.49986  0.03217  1.0000
  H   H5689     1.0  0.62171  0.54146  0.99188  1.0000
  H   H5690     1.0  0.61557  0.48975  0.05186  1.0000
  S   S943      1.0  0.57023  0.56530  0.98935  1.0000
  S   S944      1.0  0.65812  0.51949  0.04277  1.0000
  H   H5691     1.0  0.56342  0.58271  0.03427  1.0000
  C   C3293     1.0  0.65593  0.50500  0.03199  1.0000
  C   C3294     1.0  0.52234  0.58415  0.02627  1.0000
  H   H5692     1.0  0.49243  0.69469  0.99478  1.0000
  S   S945      1.0  0.53955  0.58182  0.03565  1.0000
  C   C3295     1.0  0.54286  0.51312  0.01983  1.0000
  H   H5693     1.0  0.52470  0.60185  0.03997  1.0000
  C   C3296     1.0  0.52691  0.58854  0.03213  1.0000
  C   C3297     1.0  0.68562  0.50071  0.04443  1.0000
  C   C3298     1.0  0.59796  0.55069  0.98749  1.0000
  H   H5694     1.0  0.53636  0.58554  0.00108  1.0000
  C   C3299     1.0  0.58235  0.51408  0.99420  1.0000
  C   C3300     1.0  0.65337  0.52511  0.98726  1.0000
  H   H5695     1.0  0.59338  0.53820  0.00169  1.0000
  S   S946      1.0  0.49349  0.60558  0.02432  1.0000
  H   H5696     1.0  0.63047  0.49888  0.02628  1.0000
  N   N237      1.0  0.69121  0.49176  0.03816  1.0000
  H   H5697     1.0  0.49184  0.66656  0.99258  1.0000
  H   H5698     1.0  0.49755  0.84525  0.00045  1.0000
  H   H5699     1.0  0.71755  0.54981  0.98655  1.0000
  H   H5700     1.0  0.51794  0.98671  0.12852  1.0000
  C   C3301     1.0  0.48884  0.94506  0.14840  1.0000
  H   H5701     1.0  0.69464  0.54554  0.99027  1.0000
  C   C3302     1.0  0.70339  0.49002  0.03561  1.0000
  H   H5702     1.0  0.59606  0.49622  0.98664  1.0000
  C   C3303     1.0  0.53380  0.55481  0.98542  1.0000
  H   H5703     1.0  0.50445  0.66922  0.98473  1.0000
  H   H5704     1.0  0.48896  0.88943  0.00259  1.0000
  H   H5705     1.0  0.72861  0.54582  0.99354  1.0000
  H   H5706     1.0  0.62914  0.55196  0.98838  1.0000
  S   S947      1.0  0.49483  0.81794  0.00069  1.0000
  H   H5707     1.0  0.48819  0.68444  0.01235  1.0000
  H   H5708     1.0  0.49551  0.86414  0.99388  1.0000
  H   H5709     1.0  0.71067  0.51833  0.98589  1.0000
  S   S948      1.0  0.73435  0.49669  0.02573  1.0000
  H   H5710     1.0  0.69582  0.50883  0.98521  1.0000
  H   H5711     1.0  0.73323  0.52691  0.98943  1.0000
  H   H5712     1.0  0.53462  0.55408  0.99387  1.0000
  C   C3304     1.0  0.49330  0.83916  0.01799  1.0000
  N   N238      1.0  0.52316  0.52133  0.98746  1.0000
  C   C3305     1.0  0.55980  0.53953  0.98777  1.0000
  H   H5713     1.0  0.49291  0.86745  0.01717  1.0000
  H   H5714     1.0  0.49244  0.84854  0.04204  1.0000
  H   H5715     1.0  0.61142  0.56219  0.98672  1.0000
  N   N239      1.0  0.49140  0.68379  0.98521  1.0000
  H   H5716     1.0  0.71492  0.57311  0.98453  1.0000
  C   C3306     1.0  0.51407  0.98844  0.12145  1.0000
  C   C3307     1.0  0.48732  0.76805  0.00490  1.0000
  C   C3308     1.0  0.51549  0.53236  0.98530  1.0000
  C   C3309     1.0  0.48820  0.95534  0.12980  1.0000
  C   C3310     1.0  0.49001  0.84538  0.00702  1.0000
  C   C3311     1.0  0.48930  0.81546  0.99104  1.0000
  H   H5717     1.0  0.50969  0.98807  0.21940  1.0000
  H   H5718     1.0  0.49275  0.95290  0.42745  1.0000
  H   H5719     1.0  0.49355  0.97430  0.39726  1.0000
  C   C3312     1.0  0.55300  0.95063  0.46369  1.0000
  S   S949      1.0  0.61764  0.94956  0.47493  1.0000
  Fe  Fe463     1.0  0.53151  0.97372  0.45258  1.0000
  H   H5720     1.0  0.56596  0.97703  0.42542  1.0000
  C   C3313     1.0  0.49143  0.93599  0.39827  1.0000
  S   S950      1.0  0.50618  0.95769  0.38478  1.0000
  S   S951      1.0  0.72066  0.97625  0.43772  1.0000
  H   H5721     1.0  0.68534  0.98609  0.47299  1.0000
  S   S952      1.0  0.49694  0.97381  0.35782  1.0000
  Fe  Fe464     1.0  0.54964  0.96440  0.43536  1.0000
  S   S953      1.0  0.62992  0.97563  0.46058  1.0000
  C   C3314     1.0  0.68027  0.94318  0.47290  1.0000
  C   C3315     1.0  0.67012  0.92915  0.48355  1.0000
  C   C3316     1.0  0.54016  0.98621  0.38768  1.0000
  H   H5722     1.0  0.69532  0.93977  0.46092  1.0000
  H   H5723     1.0  0.55402  0.95355  0.47864  1.0000
  C   C3317     1.0  0.52245  0.98450  0.38577  1.0000
  Fe  Fe465     1.0  0.52626  0.96952  0.43249  1.0000
  C   C3318     1.0  0.59014  0.97527  0.43127  1.0000
  S   S954      1.0  0.49055  0.98398  0.29326  1.0000
  Fe  Fe466     1.0  0.70347  0.97916  0.44775  1.0000
  C   C3319     1.0  0.57415  0.94217  0.48163  1.0000
  C   C3320     1.0  0.59292  0.96389  0.43524  1.0000
  H   H5724     1.0  0.49858  0.93460  0.40181  1.0000
  C   C3321     1.0  0.67993  0.97810  0.43644  1.0000
  H   H5725     1.0  0.54204  0.96921  0.38617  1.0000
  H   H5726     1.0  0.51358  0.98788  0.38732  1.0000
  C   C3322     1.0  0.68447  0.98154  0.48170  1.0000
  H   H5727     1.0  0.66734  0.98803  0.46701  1.0000
  Fe  Fe467     1.0  0.49247  0.96634  0.37588  1.0000
  H   H5728     1.0  0.52338  0.97582  0.39040  1.0000
  S   S955      1.0  0.70873  0.98116  0.46191  1.0000
  C   C3323     1.0  0.58594  0.95725  0.43565  1.0000
  Fe  Fe468     1.0  0.72541  0.98020  0.45125  1.0000
  H   H5729     1.0  0.64724  0.94060  0.47743  1.0000
  H   H5730     1.0  0.59304  0.96727  0.48232  1.0000
  C   C3324     1.0  0.57338  0.97333  0.42830  1.0000
  C   C3325     1.0  0.54385  0.97363  0.39139  1.0000
  C   C3326     1.0  0.48993  0.98160  0.31512  1.0000
  H   H5731     1.0  0.59187  0.94207  0.45645  1.0000
  H   H5732     1.0  0.66830  0.96795  0.46278  1.0000
  S   S956      1.0  0.69028  0.96947  0.45389  1.0000
  C   C3327     1.0  0.66023  0.97313  0.44934  1.0000
  C   C3328     1.0  0.55839  0.94734  0.47359  1.0000
  H   H5733     1.0  0.64801  0.95488  0.47219  1.0000
  C   C3329     1.0  0.51854  0.95835  0.40987  1.0000
  H   H5734     1.0  0.65518  0.98350  0.46982  1.0000
  H   H5735     1.0  0.65808  0.98833  0.48023  1.0000
  H   H5736     1.0  0.62354  0.96612  0.48178  1.0000
  C   C3330     1.0  0.53416  0.97347  0.47877  1.0000
  C   C3331     1.0  0.58815  0.93500  0.46105  1.0000
  C   C3332     1.0  0.58336  0.96021  0.46552  1.0000
  C   C3333     1.0  0.57568  0.93834  0.46366  1.0000
  H   H5737     1.0  0.58673  0.96511  0.45742  1.0000
  C   C3334     1.0  0.57270  0.95773  0.46498  1.0000
  H   H5738     1.0  0.57339  0.94154  0.45554  1.0000
  S   S957      1.0  0.60431  0.97818  0.45984  1.0000
  H   H5739     1.0  0.68757  0.97982  0.43139  1.0000
  H   H5740     1.0  0.58301  0.94099  0.48048  1.0000
  H   H5741     1.0  0.68378  0.94048  0.45602  1.0000
  H   H5742     1.0  0.58166  0.96560  0.47137  1.0000
  H   H5743     1.0  0.66604  0.93607  0.46416  1.0000
  H   H5744     1.0  0.49135  0.94326  0.39138  1.0000
  C   C3335     1.0  0.68727  0.93755  0.46344  1.0000
  S   S958      1.0  0.52536  0.97361  0.47069  1.0000
  H   H5745     1.0  0.54016  0.97051  0.40009  1.0000
  H   H5746     1.0  0.66266  0.95749  0.48046  1.0000
  H   H5747     1.0  0.49554  0.97803  0.41426  1.0000
  H   H5748     1.0  0.55520  0.94394  0.45917  1.0000
  Fe  Fe469     1.0  0.61030  0.97880  0.44178  1.0000
  C   C3336     1.0  0.57599  0.96201  0.43251  1.0000
  S   S959      1.0  0.62444  0.96438  0.44340  1.0000
  H   H5749     1.0  0.68507  0.94052  0.47937  1.0000
  C   C3337     1.0  0.67103  0.97993  0.43164  1.0000
  C   C3338     1.0  0.50804  0.96157  0.39599  1.0000
  H   H5750     1.0  0.68875  0.92847  0.46595  1.0000
  N   N240      1.0  0.66899  0.94103  0.47754  1.0000
  H   H5751     1.0  0.65276  0.97105  0.45436  1.0000
  C   C3339     1.0  0.54388  0.97701  0.47409  1.0000
  H   H5752     1.0  0.55634  0.93941  0.47865  1.0000
  H   H5753     1.0  0.67412  0.92365  0.47769  1.0000
  H   H5754     1.0  0.67185  0.98315  0.42289  1.0000
  S   S960      1.0  0.65042  0.97880  0.43176  1.0000
  C   C3340     1.0  0.58048  0.97990  0.42757  1.0000
  H   H5755     1.0  0.52546  0.95382  0.41340  1.0000
  C   C3341     1.0  0.50045  0.96978  0.40079  1.0000
  C   C3342     1.0  0.66911  0.97125  0.45409  1.0000
  H   H5756     1.0  0.52207  0.97870  0.37179  1.0000
  H   H5757     1.0  0.55494  0.95826  0.45797  1.0000
  C   C3343     1.0  0.66120  0.97729  0.43806  1.0000
  C   C3344     1.0  0.50166  0.97194  0.41035  1.0000
  C   C3345     1.0  0.66353  0.94327  0.46807  1.0000
  H   H5758     1.0  0.55799  0.97991  0.47723  1.0000
  H   H5759     1.0  0.55278  0.97143  0.39057  1.0000
  H   H5760     1.0  0.66615  0.95016  0.46144  1.0000
  S   S961      1.0  0.51133  0.96858  0.42748  1.0000
  C   C3346     1.0  0.51712  0.95592  0.40052  1.0000
  Fe  Fe470     1.0  0.61913  0.96466  0.46142  1.0000
  C   C3347     1.0  0.65104  0.94648  0.47054  1.0000
  S   S962      1.0  0.54683  0.97883  0.44281  1.0000
  H   H5761     1.0  0.52304  0.94954  0.39686  1.0000
  S   S963      1.0  0.56660  0.95392  0.43440  1.0000
  H   H5762     1.0  0.58816  0.94845  0.43850  1.0000
  Fe  Fe471     1.0  0.63399  0.97671  0.44248  1.0000
  H   H5763     1.0  0.58988  0.95301  0.46748  1.0000
  H   H5764     1.0  0.57267  0.93061  0.46737  1.0000
  C   C3348     1.0  0.48822  0.97718  0.30720  1.0000
  C   C3349     1.0  0.67904  0.97349  0.44767  1.0000
  C   C3350     1.0  0.48837  0.97603  0.32623  1.0000
  H   H5765     1.0  0.64817  0.94670  0.46319  1.0000
  S   S964      1.0  0.54162  0.97385  0.42126  1.0000
  S   S965      1.0  0.59851  0.98401  0.43061  1.0000
  S   S966      1.0  0.53466  0.95860  0.44597  1.0000
  H   H5766     1.0  0.60050  0.96021  0.43784  1.0000
  C   C3351     1.0  0.51069  0.96623  0.41494  1.0000
  H   H5767     1.0  0.67994  0.95214  0.46979  1.0000
  H   H5768     1.0  0.48981  0.97939  0.33229  1.0000
  H   H5769     1.0  0.52397  0.98068  0.40614  1.0000
  H   H5770     1.0  0.49048  0.93769  0.42102  1.0000
  N   N241      1.0  0.57049  0.94652  0.47091  1.0000
  Fe  Fe472     1.0  0.53753  0.98775  0.42973  1.0000
  H   H5771     1.0  0.56610  0.96421  0.46828  1.0000
  S   S967      1.0  0.52185  0.98412  0.44017  1.0000
  H   H5772     1.0  0.59075  0.92908  0.45558  1.0000
  H   H5773     1.0  0.53488  0.98151  0.37073  1.0000
  H   H5774     1.0  0.59147  0.93073  0.46846  1.0000
  H   H5775     1.0  0.57244  0.95939  0.45617  1.0000
  H   H5776     1.0  0.71088  0.98061  0.48306  1.0000
  H   H5777     1.0  0.49258  0.92880  0.39471  1.0000
  H   H5778     1.0  0.49376  0.94899  0.41034  1.0000
  H   H5779     1.0  0.54617  0.97986  0.46530  1.0000
  C   C3352     1.0  0.55055  0.97703  0.48085  1.0000
  H   H5780     1.0  0.54406  0.95224  0.46673  1.0000
  H   H5781     1.0  0.68965  0.97328  0.48132  1.0000
  C   C3353     1.0  0.52602  0.98444  0.37343  1.0000
  C   C3354     1.0  0.48704  0.94629  0.41704  1.0000
  H   H5782     1.0  0.51401  0.90486  0.70619  1.0000
  H   H5783     1.0  0.68957  0.95211  0.53034  1.0000
  H   H5784     1.0  0.71436  0.97921  0.49590  1.0000
  H   H5785     1.0  0.50015  0.93646  0.67869  1.0000
  C   C3355     1.0  0.50205  0.97495  0.54752  1.0000
  C   C3356     1.0  0.54761  0.97340  0.49228  1.0000
  H   H5786     1.0  0.51016  0.94213  0.69205  1.0000
  C   C3357     1.0  0.51017  0.92617  0.66753  1.0000
  C   C3358     1.0  0.50784  0.93004  0.67834  1.0000
  S   S968      1.0  0.72928  0.97302  0.53578  1.0000
  H   H5787     1.0  0.66941  0.95695  0.53490  1.0000
  C   C3359     1.0  0.50347  0.94320  0.55668  1.0000
  H   H5788     1.0  0.59270  0.97040  0.52059  1.0000
  C   C3360     1.0  0.67443  0.97985  0.53849  1.0000
  S   S969      1.0  0.55127  0.95341  0.53040  1.0000
  N   N242      1.0  0.69079  0.98128  0.49901  1.0000
  H   H5789     1.0  0.66741  0.93901  0.50068  1.0000
  H   H5790     1.0  0.70193  0.96698  0.50584  1.0000
  S   S970      1.0  0.52159  0.94907  0.54274  1.0000
  H   H5791     1.0  0.66232  0.95332  0.50016  1.0000
  C   C3361     1.0  0.68537  0.95990  0.53255  1.0000
  C   C3362     1.0  0.50418  0.92683  0.69826  1.0000
  H   H5792     1.0  0.66152  0.91800  0.49659  1.0000
  H   H5793     1.0  0.49326  0.91001  0.70748  1.0000
  S   S971      1.0  0.72558  0.98198  0.51046  1.0000
  C   C3363     1.0  0.70058  0.97194  0.49762  1.0000
  H   H5794     1.0  0.67985  0.96489  0.49815  1.0000
  N   N243      1.0  0.59145  0.96005  0.51071  1.0000
  C   C3364     1.0  0.67395  0.96266  0.53506  1.0000
  S   S972      1.0  0.70566  0.96391  0.52857  1.0000
  H   H5795     1.0  0.49153  0.98403  0.57149  1.0000
  C   C3365     1.0  0.63116  0.95753  0.49528  1.0000
  C   C3366     1.0  0.58877  0.96089  0.49991  1.0000
  H   H5796     1.0  0.57253  0.93380  0.48550  1.0000
  H   H5797     1.0  0.50987  0.93616  0.70621  1.0000
  H   H5798     1.0  0.67271  0.96360  0.51213  1.0000
  S   S973      1.0  0.65010  0.97189  0.51416  1.0000
  H   H5799     1.0  0.51887  0.90729  0.68315  1.0000
  H   H5800     1.0  0.59062  0.93737  0.52180  1.0000
  H   H5801     1.0  0.63320  0.96474  0.49600  1.0000
  C   C3367     1.0  0.57877  0.96322  0.54626  1.0000
  H   H5802     1.0  0.58116  0.94247  0.51275  1.0000
  H   H5803     1.0  0.59815  0.97454  0.50652  1.0000
  H   H5804     1.0  0.58251  0.98761  0.50555  1.0000
  C   C3368     1.0  0.68114  0.97703  0.50662  1.0000
  C   C3369     1.0  0.59350  0.97694  0.54082  1.0000
  H   H5805     1.0  0.59101  0.95266  0.49786  1.0000
  C   C3370     1.0  0.68583  0.97721  0.53573  1.0000
  C   C3371     1.0  0.62371  0.94886  0.48561  1.0000
  Fe  Fe473     1.0  0.63717  0.96232  0.51815  1.0000
  H   H5806     1.0  0.52597  0.89814  0.69819  1.0000
  C   C3372     1.0  0.53793  0.96986  0.49694  1.0000
  H   H5807     1.0  0.58436  0.95527  0.52795  1.0000
  Fe  Fe474     1.0  0.61994  0.97823  0.53017  1.0000
  C   C3373     1.0  0.51260  0.94721  0.55566  1.0000
  H   H5808     1.0  0.51768  0.91968  0.66650  1.0000
  H   H5809     1.0  0.49264  0.97974  0.53454  1.0000
  H   H5810     1.0  0.59091  0.97732  0.49012  1.0000
  H   H5811     1.0  0.60127  0.94580  0.52858  1.0000
  C   C3374     1.0  0.60269  0.95296  0.51073  1.0000
  H   H5812     1.0  0.52475  0.91766  0.68410  1.0000
  Fe  Fe475     1.0  0.55526  0.96189  0.54120  1.0000
  H   H5813     1.0  0.57485  0.96013  0.51959  1.0000
  C   C3375     1.0  0.51169  0.93416  0.69801  1.0000
  C   C3376     1.0  0.60659  0.95019  0.52154  1.0000
  H   H5814     1.0  0.60754  0.95760  0.52347  1.0000
  C   C3377     1.0  0.57510  0.97464  0.54394  1.0000
  C   C3378     1.0  0.51401  0.95010  0.56470  1.0000
  C   C3379     1.0  0.50112  0.97796  0.53542  1.0000
  H   H5815     1.0  0.51432  0.93442  0.67728  1.0000
  H   H5816     1.0  0.69938  0.96612  0.49348  1.0000
  C   C3380     1.0  0.68023  0.96550  0.50633  1.0000
  H   H5817     1.0  0.57469  0.97749  0.50865  1.0000
  C   C3381     1.0  0.51812  0.91316  0.68828  1.0000
  S   S974      1.0  0.62441  0.97684  0.51263  1.0000
  H   H5818     1.0  0.48856  0.90409  0.69944  1.0000
  S   S975      1.0  0.55612  0.97350  0.50055  1.0000
  H   H5819     1.0  0.67340  0.98293  0.50529  1.0000
  H   H5820     1.0  0.68120  0.97643  0.51526  1.0000
  S   S976      1.0  0.53812  0.96648  0.55062  1.0000
  C   C3382     1.0  0.59128  0.97115  0.51233  1.0000
  S   S977      1.0  0.53146  0.97507  0.52631  1.0000
  Fe  Fe476     1.0  0.54906  0.96991  0.51883  1.0000
  C   C3383     1.0  0.52097  0.90636  0.69935  1.0000
  Fe  Fe477     1.0  0.53400  0.95925  0.53889  1.0000
  Fe  Fe478     1.0  0.53707  0.98178  0.53727  1.0000
  C   C3384     1.0  0.49726  0.97886  0.56589  1.0000
  C   C3385     1.0  0.66757  0.94726  0.49524  1.0000
  H   H5821     1.0  0.52037  0.93006  0.69611  1.0000
  H   H5822     1.0  0.68693  0.95898  0.50927  1.0000
  C   C3386     1.0  0.58297  0.94321  0.52030  1.0000
  H   H5823     1.0  0.52202  0.98718  0.58252  1.0000
  C   C3387     1.0  0.63382  0.94746  0.50249  1.0000
  H   H5824     1.0  0.50042  0.91141  0.68252  1.0000
  S   S978      1.0  0.60258  0.98570  0.53701  1.0000
  H   H5825     1.0  0.50236  0.94088  0.54976  1.0000
  H   H5826     1.0  0.60875  0.95705  0.50437  1.0000
  H   H5827     1.0  0.52619  0.91017  0.70188  1.0000
  H   H5828     1.0  0.50736  0.95122  0.58170  1.0000
  H   H5829     1.0  0.51086  0.97313  0.54732  1.0000
  C   C3388     1.0  0.69136  0.96723  0.53272  1.0000
  S   S979      1.0  0.55459  0.97781  0.52892  1.0000
  S   S980      1.0  0.65416  0.97614  0.54183  1.0000
  C   C3389     1.0  0.66845  0.97267  0.53800  1.0000
  Fe  Fe479     1.0  0.71566  0.97610  0.52716  1.0000
  H   H5830     1.0  0.60569  0.96196  0.54300  1.0000
  S   S981      1.0  0.56990  0.95444  0.54868  1.0000
  C   C3390     1.0  0.49842  0.91562  0.68943  1.0000
  N   N244      1.0  0.49580  0.98340  0.55424  1.0000
  H   H5831     1.0  0.52123  0.95283  0.56407  1.0000
  H   H5832     1.0  0.57990  0.96361  0.50033  1.0000
  C   C3391     1.0  0.50617  0.94919  0.57465  1.0000
  C   C3392     1.0  0.49567  0.90683  0.69987  1.0000
  C   C3393     1.0  0.63138  0.93810  0.50129  1.0000
  H   H5833     1.0  0.61473  0.94460  0.52058  1.0000
  C   C3394     1.0  0.58243  0.98149  0.54135  1.0000
  H   H5834     1.0  0.59264  0.94984  0.54802  1.0000
  C   C3395     1.0  0.58068  0.97997  0.51142  1.0000
  C   C3396     1.0  0.49698  0.94527  0.57558  1.0000
  H   H5835     1.0  0.50497  0.98491  0.53059  1.0000
  H   H5836     1.0  0.57641  0.94065  0.52729  1.0000
  H   H5837     1.0  0.57667  0.98210  0.51953  1.0000
  N   N245      1.0  0.50728  0.92119  0.68878  1.0000
  H   H5838     1.0  0.71768  0.96765  0.48984  1.0000
  H   H5839     1.0  0.65369  0.93138  0.49441  1.0000
  H   H5840     1.0  0.62449  0.93153  0.49195  1.0000
  S   S982      1.0  0.63187  0.96298  0.53609  1.0000
  C   C3397     1.0  0.71140  0.97519  0.49120  1.0000
  H   H5841     1.0  0.53561  0.96696  0.50573  1.0000
  C   C3398     1.0  0.59718  0.96553  0.54324  1.0000
  S   S983      1.0  0.64040  0.94640  0.51287  1.0000
  H   H5842     1.0  0.56658  0.97821  0.54432  1.0000
  Fe  Fe480     1.0  0.64393  0.97376  0.53161  1.0000
  C   C3399     1.0  0.58318  0.95512  0.51991  1.0000
  H   H5843     1.0  0.50363  0.92097  0.70632  1.0000
  H   H5844     1.0  0.51128  0.93327  0.66050  1.0000
  H   H5845     1.0  0.69729  0.98418  0.51130  1.0000
  C   C3400     1.0  0.58979  0.95868  0.54612  1.0000
  H   H5846     1.0  0.63342  0.93029  0.50688  1.0000
  H   H5847     1.0  0.49958  0.96700  0.55131  1.0000
  H   H5848     1.0  0.60358  0.94507  0.50843  1.0000
  H   H5849     1.0  0.50236  0.89942  0.70036  1.0000
  H   H5850     1.0  0.52366  0.96727  0.49388  1.0000
  H   H5851     1.0  0.50327  0.92334  0.66677  1.0000
  C   C3401     1.0  0.53118  0.97000  0.49021  1.0000
  H   H5852     1.0  0.51490  0.97186  0.56287  1.0000
  H   H5853     1.0  0.57320  0.94623  0.49707  1.0000
  H   H5854     1.0  0.49075  0.92185  0.68860  1.0000
  H   H5855     1.0  0.69033  0.98286  0.53600  1.0000
  H   H5856     1.0  0.49519  0.97067  0.56919  1.0000
  C   C3402     1.0  0.68809  0.98767  0.48814  1.0000
  H   H5857     1.0  0.49436  0.97827  0.64049  1.0000
  H   H5858     1.0  0.60323  0.96675  0.48912  1.0000
  C   C3403     1.0  0.62630  0.93880  0.49289  1.0000
  C   C3404     1.0  0.59437  0.96854  0.48989  1.0000
  H   H5859     1.0  0.61670  0.98643  0.55750  1.0000
  H   H5860     1.0  0.50559  0.97078  0.53167  1.0000
  H   H5861     1.0  0.67584  0.94882  0.49301  1.0000
  C   C3405     1.0  0.49574  0.94218  0.56660  1.0000
  H   H5862     1.0  0.49586  0.93206  0.69870  1.0000
  Fe  Fe481     1.0  0.63679  0.98652  0.51041  1.0000
  C   C3406     1.0  0.65961  0.92532  0.48999  1.0000
  H   H5863     1.0  0.56030  0.94873  0.49396  1.0000
  C   C3407     1.0  0.62600  0.95824  0.48695  1.0000
  H   H5864     1.0  0.65439  0.94833  0.48828  1.0000
  C   C3408     1.0  0.56887  0.94929  0.49025  1.0000
  H   H5865     1.0  0.56929  0.95800  0.48678  1.0000
  H   H5866     1.0  0.50878  0.97375  0.57646  1.0000
  H   H5867     1.0  0.67574  0.92684  0.48923  1.0000
  C   C3409     1.0  0.50872  0.97745  0.56766  1.0000
  H   H5868     1.0  0.67023  0.98753  0.54092  1.0000
  C   C3410     1.0  0.49130  0.98546  0.64442  1.0000
  H   H5869     1.0  0.48880  0.93891  0.56734  1.0000
  H   H5870     1.0  0.51120  0.98537  0.56563  1.0000
  H   H5871     1.0  0.49846  0.98801  0.64484  1.0000
  C   C3411     1.0  0.66299  0.94882  0.48507  1.0000
  H   H5872     1.0  0.67588  0.98098  0.48513  1.0000
  S   S984      1.0  0.48752  0.94303  0.58814  1.0000
  H   H5873     1.0  0.53509  0.98849  0.56569  1.0000
  H   H5874     1.0  0.54850  0.98778  0.56668  1.0000
  S   S985      1.0  0.48740  0.93581  0.72148  1.0000
  C   C3412     1.0  0.48695  0.94482  0.72957  1.0000
  H   H5875     1.0  0.48681  0.98248  0.65286  1.0000
  H   H5876     1.0  0.65577  0.92308  0.48456  1.0000
  S   S986      1.0  0.49915  0.80485  0.92355  1.0000
  H   H5877     1.0  0.73507  0.56519  0.95430  1.0000
  C   C3413     1.0  0.61192  0.51700  0.91538  1.0000
  H   H5878     1.0  0.55987  0.58637  0.90287  1.0000
  H   H5879     1.0  0.69117  0.55832  0.97195  1.0000
  H   H5880     1.0  0.69449  0.56798  0.95421  1.0000
  C   C3414     1.0  0.67778  0.52817  0.92854  1.0000
  H   H5881     1.0  0.56656  0.60146  0.89880  1.0000
  H   H5882     1.0  0.51010  0.93576  0.91054  1.0000
  C   C3415     1.0  0.52294  0.82718  0.95136  1.0000
  C   C3416     1.0  0.51812  0.75618  0.93206  1.0000
  H   H5883     1.0  0.60127  0.52589  0.90352  1.0000
  H   H5884     1.0  0.61791  0.54419  0.91897  1.0000
  H   H5885     1.0  0.53197  0.49005  0.96791  1.0000
  H   H5886     1.0  0.67222  0.54340  0.89805  1.0000
  H   H5887     1.0  0.48886  0.84125  0.93915  1.0000
  H   H5888     1.0  0.56431  0.49066  0.93367  1.0000
  S   S987      1.0  0.72846  0.53457  0.93547  1.0000
  H   H5889     1.0  0.56856  0.57764  0.91700  1.0000
  H   H5890     1.0  0.50796  0.78231  0.89801  1.0000
  C   C3417     1.0  0.72277  0.57203  0.97896  1.0000
  H   H5891     1.0  0.68145  0.56161  0.91029  1.0000
  C   C3418     1.0  0.70396  0.50510  0.93979  1.0000
  C   C3419     1.0  0.60537  0.53579  0.91958  1.0000
  H   H5892     1.0  0.50407  0.80560  0.98341  1.0000
  C   C3420     1.0  0.49074  0.66530  0.89957  1.0000
  H   H5893     1.0  0.49183  0.76306  0.89738  1.0000
  C   C3421     1.0  0.56929  0.54675  0.96945  1.0000
  C   C3422     1.0  0.49277  0.98613  0.79321  1.0000
  H   H5894     1.0  0.59423  0.57949  0.96520  1.0000
  C   C3423     1.0  0.68252  0.55976  0.97152  1.0000
  H   H5895     1.0  0.66368  0.58219  0.98198  1.0000
  H   H5896     1.0  0.68555  0.54267  0.89025  1.0000
  C   C3424     1.0  0.66714  0.57265  0.96466  1.0000
  Fe  Fe482     1.0  0.53764  0.55839  0.94663  1.0000
  S   S988      1.0  0.55488  0.55579  0.94764  1.0000
  S   S989      1.0  0.52640  0.57362  0.95177  1.0000
  Fe  Fe483     1.0  0.54138  0.53555  0.94199  1.0000
  S   S990      1.0  0.55910  0.53129  0.94202  1.0000
  S   S991      1.0  0.53145  0.52311  0.94448  1.0000
  Fe  Fe484     1.0  0.55384  0.53865  0.95674  1.0000
  S   S992      1.0  0.55990  0.52965  0.97195  1.0000
  Fe  Fe485     1.0  0.55893  0.54872  0.93273  1.0000
  S   S993      1.0  0.57312  0.55345  0.91947  1.0000
  S   S994      1.0  0.53620  0.54195  0.95743  1.0000
  S   S995      1.0  0.54156  0.55247  0.93101  1.0000
  Fe  Fe486     1.0  0.64545  0.56203  0.93619  1.0000
  S   S996      1.0  0.65286  0.54440  0.93578  1.0000
  S   S997      1.0  0.65540  0.57338  0.93670  1.0000
  Fe  Fe487     1.0  0.62279  0.55955  0.93682  1.0000
  S   S998      1.0  0.62851  0.54171  0.93647  1.0000
  S   S999      1.0  0.60485  0.56716  0.93928  1.0000
  Fe  Fe488     1.0  0.63810  0.54096  0.94849  1.0000
  H   H5897     1.0  0.72504  0.51251  0.98439  1.0000
  Fe  Fe489     1.0  0.64267  0.54686  0.92376  1.0000
  S   S1000     1.0  0.64977  0.54068  0.90819  1.0000
  S   S1001     1.0  0.63139  0.55847  0.94991  1.0000
  S   S1002     1.0  0.63624  0.56493  0.92305  1.0000
  S   S1003     1.0  0.50551  0.73210  0.93009  1.0000
  Fe  Fe490     1.0  0.71604  0.55038  0.93450  1.0000
  S   S1004     1.0  0.70796  0.54672  0.95223  1.0000
  S   S1005     1.0  0.70597  0.55651  0.92176  1.0000
  Fe  Fe491     1.0  0.71968  0.55500  0.95442  1.0000
  H   H5898     1.0  0.66427  0.50778  0.96064  1.0000
  Fe  Fe492     1.0  0.72126  0.53174  0.95351  1.0000
  S   S1006     1.0  0.72698  0.55990  0.93647  1.0000
  H   H5899     1.0  0.70723  0.52794  0.94516  1.0000
  C   C3425     1.0  0.54752  0.57736  0.91062  1.0000
  N   N246      1.0  0.67874  0.57128  0.96522  1.0000
  C   C3426     1.0  0.66954  0.56853  0.93343  1.0000
  C   C3427     1.0  0.67448  0.55758  0.93738  1.0000
  C   C3428     1.0  0.68581  0.55395  0.93434  1.0000
  C   C3429     1.0  0.69214  0.56122  0.92718  1.0000
  C   C3430     1.0  0.68720  0.57218  0.92349  1.0000
  C   C3431     1.0  0.67597  0.57587  0.92677  1.0000
  H   H5900     1.0  0.66958  0.55193  0.94275  1.0000
  H   H5901     1.0  0.68962  0.54547  0.93725  1.0000
  H   H5902     1.0  0.69204  0.57780  0.91792  1.0000
  H   H5903     1.0  0.67220  0.58434  0.92378  1.0000
  C   C3432     1.0  0.70356  0.51620  0.93876  1.0000
  N   N247      1.0  0.68102  0.49405  0.97949  1.0000
  H   H5904     1.0  0.67368  0.50476  0.93097  1.0000
  C   C3433     1.0  0.56214  0.49727  0.95287  1.0000
  H   H5905     1.0  0.69157  0.58372  0.93876  1.0000
  H   H5906     1.0  0.67335  0.52399  0.91590  1.0000
  H   H5907     1.0  0.65054  0.53038  0.89128  1.0000
  H   H5908     1.0  0.49452  0.68120  0.89583  1.0000
  S   S1007     1.0  0.64036  0.49535  0.90924  1.0000
  H   H5909     1.0  0.66584  0.50834  0.92076  1.0000
  H   H5910     1.0  0.57853  0.49239  0.96075  1.0000
  H   H5911     1.0  0.65932  0.53201  0.95546  1.0000
  S   S1008     1.0  0.48913  0.63084  0.93880  1.0000
  C   C3434     1.0  0.70753  0.51936  0.94606  1.0000
  H   H5912     1.0  0.70059  0.52238  0.93215  1.0000
  C   C3435     1.0  0.67235  0.50357  0.96251  1.0000
  H   H5913     1.0  0.57215  0.54638  0.96090  1.0000
  C   C3436     1.0  0.53609  0.51159  0.93843  1.0000
  C   C3437     1.0  0.54408  0.51141  0.92873  1.0000
  C   C3438     1.0  0.71245  0.50035  0.95533  1.0000
  C   C3439     1.0  0.60990  0.52235  0.90370  1.0000
  H   H5914     1.0  0.70458  0.49858  0.97813  1.0000
  H   H5915     1.0  0.54781  0.51838  0.92489  1.0000
  C   C3440     1.0  0.50926  0.76334  0.93704  1.0000
  S   S1009     1.0  0.51156  0.77545  0.93866  1.0000
  C   C3441     1.0  0.58264  0.55638  0.92483  1.0000
  C   C3442     1.0  0.59034  0.56227  0.91786  1.0000
  C   C3443     1.0  0.59762  0.56508  0.92218  1.0000
  C   C3444     1.0  0.59716  0.56210  0.93350  1.0000
  C   C3445     1.0  0.58960  0.55604  0.94041  1.0000
  C   C3446     1.0  0.58253  0.55301  0.93605  1.0000
  H   H5916     1.0  0.59057  0.56481  0.90914  1.0000
  H   H5917     1.0  0.60336  0.56987  0.91682  1.0000
  H   H5918     1.0  0.58915  0.55377  0.94916  1.0000
  H   H5919     1.0  0.57705  0.54797  0.94138  1.0000
  H   H5920     1.0  0.51123  0.78334  0.90991  1.0000
  C   C3447     1.0  0.61605  0.53968  0.91387  1.0000
  H   H5921     1.0  0.53727  0.52846  0.98132  1.0000
  H   H5922     1.0  0.51183  0.68012  0.96900  1.0000
  C   C3448     1.0  0.62525  0.48970  0.97992  1.0000
  C   C3449     1.0  0.61216  0.54324  0.97247  1.0000
  H   H5923     1.0  0.69173  0.50382  0.96769  1.0000
  C   C3450     1.0  0.61461  0.50824  0.97971  1.0000
  H   H5924     1.0  0.67912  0.58987  0.94669  1.0000
  C   C3451     1.0  0.61291  0.49793  0.96756  1.0000
  H   H5925     1.0  0.49548  0.98533  0.81902  1.0000
  H   H5926     1.0  0.67954  0.53505  0.93071  1.0000
  H   H5927     1.0  0.49897  0.95694  0.82191  1.0000
  H   H5928     1.0  0.48882  0.93194  0.74399  1.0000
  C   C3452     1.0  0.50844  0.93954  0.91768  1.0000
  C   C3453     1.0  0.69632  0.50095  0.98310  1.0000
  C   C3454     1.0  0.49995  0.86385  0.93110  1.0000
  H   H5929     1.0  0.67881  0.58769  0.96645  1.0000
  H   H5930     1.0  0.57625  0.58282  0.92769  1.0000
  H   H5931     1.0  0.49732  0.67284  0.96719  1.0000
  C   C3455     1.0  0.50431  0.78459  0.90605  1.0000
  H   H5932     1.0  0.60107  0.54453  0.96194  1.0000
  C   C3456     1.0  0.51013  0.59161  0.94801  1.0000
  C   C3457     1.0  0.51716  0.58262  0.94395  1.0000
  C   C3458     1.0  0.51688  0.58121  0.93375  1.0000
  C   C3459     1.0  0.50956  0.58882  0.92766  1.0000
  H   H5933     1.0  0.51217  0.76119  0.90570  1.0000
  H   H5934     1.0  0.51031  0.59277  0.95588  1.0000
  H   H5935     1.0  0.52223  0.57426  0.93058  1.0000
  H   H5936     1.0  0.50931  0.58770  0.91979  1.0000
  H   H5937     1.0  0.61458  0.52881  0.89948  1.0000
  H   H5938     1.0  0.69879  0.48995  0.90396  1.0000
  N   N248      1.0  0.60660  0.52362  0.92415  1.0000
  H   H5939     1.0  0.59079  0.57352  0.97947  1.0000
  H   H5940     1.0  0.71638  0.49418  0.96138  1.0000
  H   H5941     1.0  0.55290  0.50232  0.91611  1.0000
  C   C3460     1.0  0.64823  0.52490  0.89908  1.0000
  H   H5942     1.0  0.48768  0.75968  0.92146  1.0000
  H   H5943     1.0  0.66360  0.59094  0.96137  1.0000
  H   H5944     1.0  0.67053  0.52591  0.93465  1.0000
  H   H5945     1.0  0.67564  0.49703  0.95776  1.0000
  C   C3461     1.0  0.68702  0.58417  0.94729  1.0000
  H   H5946     1.0  0.63981  0.50530  0.92699  1.0000
  C   C3462     1.0  0.53426  0.49342  0.93848  1.0000
  H   H5947     1.0  0.69182  0.58760  0.95077  1.0000
  C   C3463     1.0  0.53876  0.56411  0.97707  1.0000
  H   H5948     1.0  0.49583  0.97849  0.79001  1.0000
  H   H5949     1.0  0.57438  0.59419  0.90917  1.0000
  H   H5950     1.0  0.48821  0.92055  0.90250  1.0000
  H   H5951     1.0  0.52178  0.83035  0.94276  1.0000
  C   C3464     1.0  0.58780  0.52209  0.92288  1.0000
  C   C3465     1.0  0.66318  0.52791  0.98121  1.0000
  C   C3466     1.0  0.49293  0.83594  0.96573  1.0000
  C   C3467     1.0  0.60987  0.50751  0.97162  1.0000
  H   H5952     1.0  0.55588  0.49814  0.94825  1.0000
  H   H5953     1.0  0.49359  0.94166  0.90596  1.0000
  H   H5954     1.0  0.67934  0.50326  0.89889  1.0000
  C   C3468     1.0  0.70809  0.49722  0.94830  1.0000
  C   C3469     1.0  0.59566  0.52112  0.93008  1.0000
  C   C3470     1.0  0.68601  0.57248  0.95384  1.0000
  H   H5955     1.0  0.51981  0.59662  0.97679  1.0000
  C   C3471     1.0  0.54690  0.50236  0.92374  1.0000
  H   H5956     1.0  0.49734  0.60596  0.94528  1.0000
  C   C3472     1.0  0.61367  0.51983  0.93246  1.0000
  H   H5957     1.0  0.68344  0.56871  0.94857  1.0000
  H   H5958     1.0  0.69398  0.48977  0.89227  1.0000
  H   H5959     1.0  0.51711  0.98245  0.81064  1.0000
  H   H5960     1.0  0.50417  0.82090  0.96365  1.0000
  C   C3473     1.0  0.49623  0.69107  0.97476  1.0000
  Fe  Fe493     1.0  0.48930  0.72766  0.93533  1.0000
  C   C3474     1.0  0.50277  0.59912  0.94199  1.0000
  H   H5961     1.0  0.55610  0.57865  0.97365  1.0000
  H   H5962     1.0  0.61650  0.53625  0.97793  1.0000
  C   C3475     1.0  0.64211  0.51076  0.91920  1.0000
  C   C3476     1.0  0.67548  0.53125  0.91694  1.0000
  H   H5963     1.0  0.53354  0.59515  0.94259  1.0000
  H   H5964     1.0  0.68433  0.52077  0.92960  1.0000
  H   H5965     1.0  0.65916  0.49011  0.91890  1.0000
  H   H5966     1.0  0.54681  0.58727  0.94330  1.0000
  H   H5967     1.0  0.49296  0.69105  0.96776  1.0000
  S   S1010     1.0  0.49819  0.87725  0.93283  1.0000
  S   S1011     1.0  0.49993  0.80211  0.94889  1.0000
  C   C3477     1.0  0.53121  0.50257  0.94327  1.0000
  H   H5968     1.0  0.61284  0.51597  0.89871  1.0000
  H   H5969     1.0  0.60128  0.54025  0.92626  1.0000
  H   H5970     1.0  0.67601  0.53156  0.88546  1.0000
  C   C3478     1.0  0.64782  0.52731  0.97034  1.0000
  C   C3479     1.0  0.49550  0.80878  0.98369  1.0000
  C   C3480     1.0  0.51123  0.83776  0.97816  1.0000
  C   C3481     1.0  0.66541  0.53015  0.96973  1.0000
  C   C3482     1.0  0.49463  0.84637  0.93506  1.0000
  C   C3483     1.0  0.50665  0.74395  0.93337  1.0000
  H   H5971     1.0  0.66580  0.50409  0.90558  1.0000
  H   H5972     1.0  0.66793  0.53774  0.91695  1.0000
  H   H5973     1.0  0.59988  0.53885  0.91375  1.0000
  Fe  Fe494     1.0  0.49903  0.79128  0.93860  1.0000
  C   C3484     1.0  0.52298  0.84974  0.95215  1.0000
  H   H5974     1.0  0.56823  0.50188  0.94712  1.0000
  C   C3485     1.0  0.49227  0.85734  0.93628  1.0000
  H   H5975     1.0  0.49450  0.94554  0.84558  1.0000
  H   H5976     1.0  0.59074  0.51572  0.91792  1.0000
  H   H5977     1.0  0.54919  0.50022  0.96744  1.0000
  H   H5978     1.0  0.48988  0.74885  0.94131  1.0000
  C   C3486     1.0  0.71211  0.51142  0.95425  1.0000
  C   C3487     1.0  0.49675  0.76715  0.90001  1.0000
  C   C3488     1.0  0.68040  0.53781  0.89708  1.0000
  C   C3489     1.0  0.67951  0.49384  0.91955  1.0000
  C   C3490     1.0  0.53978  0.58327  0.96998  1.0000
  H   H5979     1.0  0.49943  0.96166  0.88784  1.0000
  H   H5980     1.0  0.53733  0.56437  0.96895  1.0000
  H   H5981     1.0  0.54443  0.60189  0.93668  1.0000
  C   C3491     1.0  0.55700  0.60070  0.91580  1.0000
  H   H5982     1.0  0.53890  0.57845  0.91505  1.0000
  C   C3492     1.0  0.51680  0.74661  0.93014  1.0000
  H   H5983     1.0  0.49269  0.83452  0.97457  1.0000
  H   H5984     1.0  0.52604  0.75812  0.92950  1.0000
  H   H5985     1.0  0.49111  0.78248  0.91968  1.0000
  H   H5986     1.0  0.50281  0.93545  0.92466  1.0000
  C   C3493     1.0  0.48693  0.96748  0.83182  1.0000
  H   H5987     1.0  0.59662  0.51261  0.93529  1.0000
  C   C3494     1.0  0.50366  0.82972  0.95965  1.0000
  C   C3495     1.0  0.56769  0.58249  0.93175  1.0000
  S   S1012     1.0  0.63796  0.52749  0.96361  1.0000
  C   C3496     1.0  0.73635  0.50490  0.92446  1.0000
  C   C3497     1.0  0.49357  0.66837  0.97534  1.0000
  C   C3498     1.0  0.73185  0.57304  0.98191  1.0000
  C   C3499     1.0  0.51216  0.84859  0.92357  1.0000
  C   C3500     1.0  0.68139  0.55039  0.96708  1.0000
  H   H5988     1.0  0.62088  0.51478  0.91432  1.0000
  S   S1013     1.0  0.49325  0.60724  0.92416  1.0000
  S   S1014     1.0  0.71807  0.51528  0.96258  1.0000
  H   H5989     1.0  0.56173  0.50360  0.96724  1.0000
  C   C3501     1.0  0.67928  0.52818  0.89303  1.0000
  H   H5990     1.0  0.54020  0.58283  0.92988  1.0000
  H   H5991     1.0  0.51207  0.50884  0.98083  1.0000
  H   H5992     1.0  0.61232  0.51568  0.98278  1.0000
  H   H5993     1.0  0.64358  0.52314  0.92655  1.0000
  H   H5994     1.0  0.60956  0.50895  0.91794  1.0000
  H   H5995     1.0  0.69228  0.51751  0.90773  1.0000
  H   H5996     1.0  0.66662  0.56720  0.95963  1.0000
  H   H5997     1.0  0.50296  0.75194  0.91136  1.0000
  C   C3502     1.0  0.67811  0.55474  0.91009  1.0000
  H   H5998     1.0  0.67343  0.52358  0.89909  1.0000
  H   H5999     1.0  0.61858  0.54532  0.96517  1.0000
  H   H6000     1.0  0.58610  0.53042  0.91758  1.0000
  H   H6001     1.0  0.49647  0.66138  0.90514  1.0000
  C   C3503     1.0  0.50869  0.68833  0.97106  1.0000
  H   H6002     1.0  0.50022  0.79344  0.90464  1.0000
  H   H6003     1.0  0.50041  0.77243  0.89229  1.0000
  H   H6004     1.0  0.57600  0.56068  0.96768  1.0000
  C   C3504     1.0  0.55205  0.58760  0.90898  1.0000
  H   H6005     1.0  0.51625  0.93778  0.92022  1.0000
  C   C3505     1.0  0.60933  0.52461  0.94289  1.0000
  C   C3506     1.0  0.48713  0.67774  0.89946  1.0000
  H   H6006     1.0  0.50366  0.84352  0.97649  1.0000
  H   H6007     1.0  0.67230  0.50114  0.88544  1.0000
  H   H6008     1.0  0.53197  0.50888  0.97809  1.0000
  H   H6009     1.0  0.59127  0.52673  0.93579  1.0000
  C   C3507     1.0  0.64292  0.50783  0.90937  1.0000
  S   S1015     1.0  0.50912  0.82788  0.92861  1.0000
  H   H6010     1.0  0.52073  0.85888  0.95015  1.0000
  S   S1016     1.0  0.71299  0.56652  0.96585  1.0000
  H   H6011     1.0  0.61955  0.56223  0.97330  1.0000
  H   H6012     1.0  0.64660  0.51269  0.89172  1.0000
  H   H6013     1.0  0.50271  0.83045  0.95124  1.0000
  C   C3508     1.0  0.72395  0.56913  0.96902  1.0000
  H   H6014     1.0  0.50094  0.77035  0.91884  1.0000
  C   C3509     1.0  0.50472  0.84194  0.92889  1.0000
  H   H6015     1.0  0.48978  0.67945  0.87924  1.0000
  H   H6016     1.0  0.51702  0.84247  0.97832  1.0000
  H   H6017     1.0  0.67201  0.55323  0.91785  1.0000
  H   H6018     1.0  0.57994  0.52064  0.92830  1.0000
  H   H6019     1.0  0.66429  0.49673  0.93215  1.0000
  H   H6020     1.0  0.49511  0.66367  0.89136  1.0000
  H   H6021     1.0  0.60394  0.57692  0.97330  1.0000
  S   S1017     1.0  0.70031  0.50085  0.92994  1.0000
  C   C3510     1.0  0.60457  0.53862  0.96871  1.0000
  H   H6022     1.0  0.49216  0.76616  0.94440  1.0000
  H   H6023     1.0  0.52371  0.74125  0.92609  1.0000
  H   H6024     1.0  0.68219  0.51088  0.97708  1.0000
  H   H6025     1.0  0.51111  0.69441  0.96342  1.0000
  H   H6026     1.0  0.60381  0.51433  0.96851  1.0000
  H   H6027     1.0  0.70812  0.48867  0.94938  1.0000
  C   C3511     1.0  0.67066  0.49487  0.89314  1.0000
  H   H6028     1.0  0.49108  0.84483  0.96193  1.0000
  H   H6029     1.0  0.61553  0.52143  0.94799  1.0000
  H   H6030     1.0  0.57017  0.60884  0.90641  1.0000
  C   C3512     1.0  0.52595  0.51675  0.97727  1.0000
  H   H6031     1.0  0.51037  0.84727  0.94627  1.0000
  H   H6032     1.0  0.51028  0.75326  0.89747  1.0000
  C   C3513     1.0  0.55626  0.50353  0.96215  1.0000
  C   C3514     1.0  0.56346  0.53912  0.97672  1.0000
  H   H6033     1.0  0.60190  0.52189  0.94806  1.0000
  H   H6034     1.0  0.50483  0.97996  0.80287  1.0000
  H   H6035     1.0  0.51995  0.84524  0.91880  1.0000
  H   H6036     1.0  0.68565  0.49883  0.91502  1.0000
  C   C3515     1.0  0.62222  0.49929  0.98398  1.0000
  C   C3516     1.0  0.49083  0.96815  0.90806  1.0000
  H   H6037     1.0  0.52493  0.50270  0.95068  1.0000
  C   C3517     1.0  0.49269  0.95072  0.90310  1.0000
  C   C3518     1.0  0.54211  0.59400  0.93797  1.0000
  N   N249      1.0  0.55361  0.58985  0.91918  1.0000
  H   H6038     1.0  0.70193  0.53240  0.89013  1.0000
  H   H6039     1.0  0.56810  0.57535  0.93885  1.0000
  C   C3519     1.0  0.59755  0.57360  0.97213  1.0000
  C   C3520     1.0  0.67020  0.50133  0.92614  1.0000
  H   H6040     1.0  0.55801  0.60325  0.92282  1.0000
  H   H6041     1.0  0.62181  0.52166  0.92872  1.0000
  C   C3521     1.0  0.65762  0.53012  0.96431  1.0000
  H   H6042     1.0  0.54780  0.57604  0.90246  1.0000
  H   H6043     1.0  0.65240  0.58522  0.96327  1.0000
  H   H6044     1.0  0.54632  0.50910  0.98360  1.0000
  H   H6045     1.0  0.67281  0.54967  0.96924  1.0000
  H   H6046     1.0  0.67740  0.50979  0.95950  1.0000
  H   H6047     1.0  0.60787  0.53369  0.94103  1.0000
  C   C3522     1.0  0.56765  0.60116  0.90705  1.0000
  H   H6048     1.0  0.73359  0.51080  0.93898  1.0000
  H   H6049     1.0  0.70943  0.53118  0.90021  1.0000
  N   N250      1.0  0.48969  0.77389  0.90823  1.0000
  H   H6050     1.0  0.56379  0.58985  0.93520  1.0000
  H   H6051     1.0  0.61522  0.51070  0.93529  1.0000
  C   C3523     1.0  0.64599  0.51492  0.89933  1.0000
  H   H6052     1.0  0.52905  0.84727  0.94490  1.0000
  C   C3524     1.0  0.49638  0.77746  0.91370  1.0000
  H   H6053     1.0  0.55245  0.56981  0.91485  1.0000
  N   N251      1.0  0.49312  0.95583  0.91202  1.0000
  H   H6054     1.0  0.60808  0.56337  0.96125  1.0000
  H   H6055     1.0  0.49523  0.80055  0.97150  1.0000
  H   H6056     1.0  0.67796  0.55842  0.98019  1.0000
  C   C3525     1.0  0.69427  0.52540  0.90738  1.0000
  C   C3526     1.0  0.70414  0.52728  0.89788  1.0000
  H   H6057     1.0  0.51480  0.82159  0.97477  1.0000
  C   C3527     1.0  0.60202  0.56221  0.96916  1.0000
  H   H6058     1.0  0.58300  0.49003  0.98048  1.0000
  H   H6059     1.0  0.55836  0.57317  0.92813  1.0000
  C   C3528     1.0  0.56198  0.58042  0.92381  1.0000
  H   H6060     1.0  0.69737  0.52364  0.91495  1.0000
  C   C3529     1.0  0.64721  0.52796  0.90887  1.0000
  H   H6061     1.0  0.62311  0.53299  0.91187  1.0000
  C   C3530     1.0  0.54279  0.59079  0.92722  1.0000
  H   H6062     1.0  0.68719  0.52252  0.89085  1.0000
  H   H6063     1.0  0.55051  0.60740  0.91257  1.0000
  H   H6064     1.0  0.54653  0.59477  0.90483  1.0000
  H   H6065     1.0  0.67309  0.53205  0.96502  1.0000
  C   C3531     1.0  0.64422  0.52087  0.91895  1.0000
  H   H6066     1.0  0.69130  0.54243  0.91610  1.0000
  H   H6067     1.0  0.69381  0.54734  0.90175  1.0000
  H   H6068     1.0  0.67409  0.55767  0.90305  1.0000
  H   H6069     1.0  0.70890  0.51924  0.89598  1.0000
  S   S1018     1.0  0.73236  0.53948  0.95756  1.0000
  H   H6070     1.0  0.68852  0.57704  0.97238  1.0000
  C   C3532     1.0  0.68747  0.54457  0.90892  1.0000
  H   H6071     1.0  0.59514  0.56021  0.96729  1.0000
  H   H6072     1.0  0.68443  0.55136  0.95811  1.0000
  H   H6073     1.0  0.61504  0.54568  0.90604  1.0000
  Fe  Fe495     1.0  0.49810  0.81602  0.93434  1.0000
  H   H6074     1.0  0.53637  0.59686  0.92324  1.0000
  C   C3533     1.0  0.50416  0.95210  0.91474  1.0000
  H   H6075     1.0  0.52991  0.52227  0.96999  1.0000
  N   N252      1.0  0.68444  0.53474  0.90756  1.0000
  H   H6076     1.0  0.58004  0.50455  0.97878  1.0000
  N   N253      1.0  0.60692  0.55305  0.97764  1.0000
  H   H6077     1.0  0.49716  0.65946  0.97585  1.0000
  C   C3534     1.0  0.57149  0.55479  0.97329  1.0000
  H   H6078     1.0  0.55295  0.51222  0.95846  1.0000
  C   C3535     1.0  0.62068  0.48905  0.97163  1.0000
  H   H6079     1.0  0.52032  0.57766  0.97399  1.0000
  C   C3536     1.0  0.50976  0.85950  0.92458  1.0000
  H   H6080     1.0  0.50416  0.95530  0.92185  1.0000
  H   H6081     1.0  0.60948  0.53137  0.96530  1.0000
  H   H6082     1.0  0.52493  0.81068  0.96250  1.0000
  C   C3537     1.0  0.68758  0.50270  0.97651  1.0000
  H   H6083     1.0  0.48826  0.78871  0.89544  1.0000
  H   H6084     1.0  0.52670  0.84712  0.95938  1.0000
  S   S1019     1.0  0.60665  0.49704  0.95770  1.0000
  H   H6085     1.0  0.53089  0.82872  0.95118  1.0000
  C   C3538     1.0  0.52445  0.81457  0.95385  1.0000
  C   C3539     1.0  0.68004  0.57909  0.97122  1.0000
  C   C3540     1.0  0.50245  0.59777  0.93179  1.0000
  C   C3541     1.0  0.51652  0.51439  0.97408  1.0000
  H   H6086     1.0  0.51569  0.86449  0.92052  1.0000
  C   C3542     1.0  0.51666  0.82975  0.97033  1.0000
  H   H6087     1.0  0.53214  0.81107  0.94854  1.0000
  H   H6088     1.0  0.50950  0.95016  0.89323  1.0000
  H   H6089     1.0  0.50028  0.94813  0.88663  1.0000
  H   H6090     1.0  0.51790  0.81224  0.95176  1.0000
  C   C3543     1.0  0.49901  0.76072  0.94042  1.0000
  H   H6091     1.0  0.52555  0.82862  0.96939  1.0000
  C   C3544     1.0  0.49090  0.96212  0.82299  1.0000
  H   H6092     1.0  0.50611  0.85037  0.95925  1.0000
  H   H6093     1.0  0.66204  0.49441  0.89495  1.0000
  C   C3545     1.0  0.51274  0.84526  0.95426  1.0000
  H   H6094     1.0  0.49711  0.97065  0.90072  1.0000
  H   H6095     1.0  0.49294  0.93222  0.85392  1.0000
  H   H6096     1.0  0.53664  0.58375  0.96271  1.0000
  C   C3546     1.0  0.66122  0.58422  0.95961  1.0000
  H   H6097     1.0  0.66242  0.58532  0.95058  1.0000
  H   H6098     1.0  0.55505  0.58772  0.96062  1.0000
  H   H6099     1.0  0.73125  0.54623  0.97928  1.0000
  C   C3547     1.0  0.67082  0.49893  0.97505  1.0000
  C   C3548     1.0  0.50602  0.75792  0.90401  1.0000
  H   H6100     1.0  0.51089  0.52203  0.97096  1.0000
  H   H6101     1.0  0.72297  0.53114  0.98194  1.0000
  H   H6102     1.0  0.63037  0.54440  0.97841  1.0000
  C   C3549     1.0  0.49773  0.75093  0.93867  1.0000
  H   H6103     1.0  0.49308  0.94249  0.86032  1.0000
  N   N254      1.0  0.51388  0.83311  0.95916  1.0000
  H   H6104     1.0  0.49200  0.96663  0.83741  1.0000
  C   C3550     1.0  0.54201  0.49333  0.92865  1.0000
  H   H6105     1.0  0.51994  0.51009  0.96717  1.0000
  H   H6106     1.0  0.59807  0.53584  0.97559  1.0000
  C   C3551     1.0  0.50103  0.95289  0.89217  1.0000
  C   C3552     1.0  0.49030  0.94115  0.85356  1.0000
  H   H6107     1.0  0.49386  0.69980  0.97549  1.0000
  C   C3553     1.0  0.67317  0.49815  0.90254  1.0000
  H   H6108     1.0  0.51032  0.95564  0.90788  1.0000
  H   H6109     1.0  0.66212  0.56971  0.97288  1.0000
  C   C3554     1.0  0.73411  0.56758  0.96190  1.0000
  H   H6110     1.0  0.48736  0.86129  0.98260  1.0000
  C   C3555     1.0  0.61533  0.55692  0.98063  1.0000
  N   N255      1.0  0.67635  0.48897  0.91190  1.0000
  C   C3556     1.0  0.64581  0.52453  0.98182  1.0000
  H   H6111     1.0  0.72762  0.50813  0.92427  1.0000
  H   H6112     1.0  0.51935  0.53796  0.97797  1.0000
  H   H6113     1.0  0.68612  0.54247  0.97103  1.0000
  H   H6114     1.0  0.73229  0.49712  0.94150  1.0000
  C   C3557     1.0  0.52270  0.57839  0.98130  1.0000
  H   H6115     1.0  0.53821  0.54689  0.98305  1.0000
  C   C3558     1.0  0.49049  0.80590  0.97696  1.0000
  N   N256      1.0  0.53487  0.57535  0.97977  1.0000
  S   S1020     1.0  0.48964  0.95714  0.80427  1.0000
  H   H6116     1.0  0.54766  0.56123  0.97627  1.0000
  H   H6117     1.0  0.50812  0.53156  0.98331  1.0000
  H   H6118     1.0  0.51274  0.68897  0.97719  1.0000
  C   C3559     1.0  0.55227  0.58053  0.96657  1.0000
  H   H6119     1.0  0.53736  0.59179  0.97118  1.0000
  H   H6120     1.0  0.55526  0.57356  0.96235  1.0000
  H   H6121     1.0  0.49873  0.97646  0.91518  1.0000
  H   H6122     1.0  0.48850  0.94453  0.75545  1.0000
  C   C3560     1.0  0.48787  0.94067  0.74053  1.0000
  C   C3561     1.0  0.50177  0.98796  0.79753  1.0000
  H   H6123     1.0  0.66568  0.49278  0.97726  1.0000
  H   H6124     1.0  0.66573  0.50586  0.97887  1.0000
  S   S1021     1.0  0.48795  0.96786  0.75000  1.0000
  H   H6125     1.0  0.70603  0.53805  0.98260  1.0000
  C   C3562     1.0  0.67231  0.57951  0.98255  1.0000
  H   H6126     1.0  0.51761  0.78002  0.98283  1.0000
  C   C3563     1.0  0.48764  0.94779  0.74703  1.0000
  C   C3564     1.0  0.49061  0.97479  0.91634  1.0000
  H   H6127     1.0  0.73584  0.58069  0.93135  1.0000
  S   S1022     1.0  0.48713  0.90032  0.94853  1.0000
  C   C3565     1.0  0.48690  0.95902  0.74246  1.0000
  C   C3566     1.0  0.51693  0.58993  0.98342  1.0000
  H   H6128     1.0  0.48802  0.97068  0.92501  1.0000
  H   H6129     1.0  0.50816  0.59120  0.98369  1.0000
  C   C3567     1.0  0.56771  0.55527  0.98437  1.0000
  H   H6130     1.0  0.89815  0.47939  0.21924  1.0000
  H   H6131     1.0  0.87542  0.45574  0.22506  1.0000
  Fe  Fe496     1.0  0.89603  0.45934  0.16375  1.0000
  H   H6132     1.0  0.85881  0.46080  0.13265  1.0000
  S   S1023     1.0  0.89377  0.44481  0.15905  1.0000
  C   C3568     1.0  0.80862  0.43734  0.00092  1.0000
  C   C3569     1.0  0.96950  0.45992  0.23052  1.0000
  Fe  Fe497     1.0  0.88562  0.48148  0.16968  1.0000
  S   S1024     1.0  0.91211  0.45921  0.16668  1.0000
  H   H6133     1.0  0.74800  0.47399  0.05471  1.0000
  C   C3570     1.0  0.98185  0.45533  0.13620  1.0000
  S   S1025     1.0  0.96507  0.46685  0.18048  1.0000
  C   C3571     1.0  0.92985  0.42942  0.09123  1.0000
  H   H6134     1.0  0.94503  0.42360  0.09666  1.0000
  H   H6135     1.0  0.86670  0.48751  0.04878  1.0000
  H   H6136     1.0  0.75587  0.45527  0.98606  1.0000
  Fe  Fe498     1.0  0.97474  0.46861  0.19145  1.0000
  S   S1026     1.0  0.90078  0.48305  0.17308  1.0000
  H   H6137     1.0  0.90748  0.45001  0.07500  1.0000
  Fe  Fe499     1.0  0.88957  0.47176  0.08093  1.0000
  S   S1027     1.0  0.88376  0.45632  0.08332  1.0000
  S   S1028     1.0  0.90476  0.47557  0.06870  1.0000
  N   N257      1.0  0.91844  0.42769  0.09432  1.0000
  S   S1029     1.0  0.86385  0.46529  0.10263  1.0000
  Fe  Fe500     1.0  0.88110  0.45598  0.10134  1.0000
  S   S1030     1.0  0.88659  0.44109  0.11398  1.0000
  Fe  Fe501     1.0  0.86705  0.46740  0.08428  1.0000
  S   S1031     1.0  0.85212  0.46929  0.07790  1.0000
  C   C3572     1.0  0.91762  0.41896  0.08913  1.0000
  H   H6138     1.0  0.83023  0.45871  0.99171  1.0000
  H   H6139     1.0  0.92132  0.43252  0.22586  1.0000
  Fe  Fe502     1.0  0.95904  0.45778  0.08676  1.0000
  S   S1032     1.0  0.95133  0.47254  0.09402  1.0000
  S   S1033     1.0  0.94802  0.44879  0.08403  1.0000
  H   H6140     1.0  0.91839  0.41667  0.11047  1.0000
  Fe  Fe503     1.0  0.96303  0.46520  0.10507  1.0000
  C   C3573     1.0  0.86341  0.46340  0.16315  1.0000
  S   S1034     1.0  0.97145  0.46581  0.07362  1.0000
  H   H6141     1.0  0.77829  0.46790  0.98795  1.0000
  H   H6142     1.0  0.96078  0.44297  0.19112  1.0000
  Fe  Fe504     1.0  0.82031  0.47552  0.01063  1.0000
  S   S1035     1.0  0.80414  0.47293  0.02073  1.0000
  H   H6143     1.0  0.92005  0.46711  0.12004  1.0000
  Fe  Fe505     1.0  0.83151  0.46426  0.02991  1.0000
  S   S1036     1.0  0.81612  0.46048  0.04145  1.0000
  S   S1037     1.0  0.84803  0.45944  0.03413  1.0000
  Fe  Fe506     1.0  0.81303  0.45608  0.02723  1.0000
  S   S1038     1.0  0.80707  0.44108  0.02846  1.0000
  H   H6144     1.0  0.96427  0.48709  0.10981  1.0000
  C   C3574     1.0  0.89923  0.45647  0.22986  1.0000
  S   S1039     1.0  0.82911  0.45825  0.01628  1.0000
  S   S1040     1.0  0.95589  0.46809  0.12213  1.0000
  S   S1041     1.0  0.82414  0.48185  0.02320  1.0000
  C   C3575     1.0  0.93459  0.45905  0.21714  1.0000
  H   H6145     1.0  0.93291  0.43095  0.08218  1.0000
  Fe  Fe507     1.0  0.73668  0.48256  0.01807  1.0000
  S   S1042     1.0  0.75989  0.44378  0.02335  1.0000
  H   H6146     1.0  0.94263  0.45441  0.19753  1.0000
  H   H6147     1.0  0.93560  0.41556  0.10440  1.0000
  H   H6148     1.0  0.88636  0.45810  0.20580  1.0000
  H   H6149     1.0  0.85639  0.48353  0.04537  1.0000
  H   H6150     1.0  0.91357  0.45838  0.21747  1.0000
  H   H6151     1.0  0.95348  0.47449  0.14209  1.0000
  C   C3576     1.0  0.86346  0.48224  0.02118  1.0000
  Fe  Fe508     1.0  0.90230  0.46536  0.18181  1.0000
  H   H6152     1.0  0.87034  0.45880  0.16708  1.0000
  H   H6153     1.0  0.91490  0.48354  0.21974  1.0000
  C   C3577     1.0  0.77022  0.43881  0.99387  1.0000
  C   C3578     1.0  0.79386  0.44253  0.02684  1.0000
  C   C3579     1.0  0.78916  0.43340  0.03107  1.0000
  C   C3580     1.0  0.77875  0.43403  0.02992  1.0000
  C   C3581     1.0  0.77287  0.44380  0.02455  1.0000
  C   C3582     1.0  0.77759  0.45297  0.02008  1.0000
  C   C3583     1.0  0.78816  0.45228  0.02113  1.0000
  H   H6154     1.0  0.79356  0.42580  0.03535  1.0000
  H   H6155     1.0  0.77520  0.42689  0.03331  1.0000
  H   H6156     1.0  0.77319  0.46049  0.01573  1.0000
  H   H6157     1.0  0.79194  0.45920  0.01739  1.0000
  H   H6158     1.0  0.94592  0.45054  0.12478  1.0000
  S   S1043     1.0  0.89377  0.47646  0.15364  1.0000
  H   H6159     1.0  0.93858  0.43597  0.14678  1.0000
  H   H6160     1.0  0.76216  0.46797  0.03363  1.0000
  C   C3584     1.0  0.80765  0.47269  0.99119  1.0000
  H   H6161     1.0  0.94698  0.47668  0.16887  1.0000
  H   H6162     1.0  0.98452  0.47842  0.12510  1.0000
  Fe  Fe509     1.0  0.98181  0.45893  0.08617  1.0000
  H   H6163     1.0  0.80445  0.47228  0.99983  1.0000
  H   H6164     1.0  0.88255  0.48261  0.11527  1.0000
  C   C3585     1.0  0.85126  0.46604  0.06588  1.0000
  C   C3586     1.0  0.84113  0.46896  0.06305  1.0000
  C   C3587     1.0  0.84002  0.46677  0.05347  1.0000
  C   C3588     1.0  0.84906  0.46163  0.04661  1.0000
  C   C3589     1.0  0.85920  0.45864  0.04944  1.0000
  C   C3590     1.0  0.86031  0.46083  0.05906  1.0000
  C   C3591     1.0  0.81592  0.47828  0.98553  1.0000
  H   H6165     1.0  0.83217  0.46914  0.05137  1.0000
  H   H6166     1.0  0.86623  0.45466  0.04417  1.0000
  H   H6167     1.0  0.86814  0.45852  0.06119  1.0000
  C   C3592     1.0  0.93639  0.45755  0.07981  1.0000
  C   C3593     1.0  0.93634  0.46130  0.06862  1.0000
  C   C3594     1.0  0.92665  0.46708  0.06527  1.0000
  C   C3595     1.0  0.91694  0.46898  0.07307  1.0000
  C   C3596     1.0  0.91708  0.46545  0.08424  1.0000
  C   C3597     1.0  0.92676  0.45977  0.08760  1.0000
  H   H6168     1.0  0.94373  0.45949  0.06255  1.0000
  H   H6169     1.0  0.92661  0.46978  0.05660  1.0000
  H   H6170     1.0  0.90973  0.46704  0.09033  1.0000
  H   H6171     1.0  0.92670  0.45685  0.09624  1.0000
  H   H6172     1.0  0.92896  0.44585  0.15364  1.0000
  H   H6173     1.0  0.87045  0.47753  0.04059  1.0000
  C   C3598     1.0  0.97512  0.45816  0.12869  1.0000
  C   C3599     1.0  0.96486  0.46503  0.13084  1.0000
  H   H6174     1.0  0.91364  0.48596  0.09347  1.0000
  C   C3600     1.0  0.83138  0.42754  0.98974  1.0000
  H   H6175     1.0  0.94641  0.46418  0.22277  1.0000
  C   C3601     1.0  0.89174  0.44455  0.14627  1.0000
  C   C3602     1.0  0.89159  0.45364  0.13737  1.0000
  C   C3603     1.0  0.88988  0.45281  0.12738  1.0000
  C   C3604     1.0  0.88843  0.44288  0.12629  1.0000
  C   C3605     1.0  0.88884  0.43382  0.13514  1.0000
  C   C3606     1.0  0.89041  0.43467  0.14506  1.0000
  H   H6176     1.0  0.89270  0.46128  0.13818  1.0000
  H   H6177     1.0  0.88971  0.45983  0.12059  1.0000
  H   H6178     1.0  0.88780  0.42611  0.13438  1.0000
  H   H6179     1.0  0.89057  0.42760  0.15187  1.0000
  H   H6180     1.0  0.92383  0.43302  0.11211  1.0000
  H   H6181     1.0  0.92718  0.44960  0.11576  1.0000
  S   S1044     1.0  0.88637  0.46418  0.17963  1.0000
  H   H6182     1.0  0.95116  0.43470  0.19785  1.0000
  H   H6183     1.0  0.90918  0.42024  0.08812  1.0000
  H   H6184     1.0  0.92070  0.40144  0.08992  1.0000
  S   S1045     1.0  0.75208  0.47480  0.00775  1.0000
  H   H6185     1.0  0.95214  0.43369  0.22250  1.0000
  S   S1046     1.0  0.96888  0.46152  0.20940  1.0000
  H   H6186     1.0  0.94074  0.44439  0.10983  1.0000
  S   S1047     1.0  0.97578  0.47364  0.09382  1.0000
  C   C3607     1.0  0.92046  0.40687  0.09529  1.0000
  C   C3608     1.0  0.77552  0.48496  0.01960  1.0000
  H   H6187     1.0  0.91409  0.40505  0.10280  1.0000
  C   C3609     1.0  0.76977  0.47273  0.05082  1.0000
  H   H6188     1.0  0.97777  0.45483  0.12137  1.0000
  C   C3610     1.0  0.96825  0.46666  0.14770  1.0000
  Fe  Fe510     1.0  0.74781  0.45889  0.01750  1.0000
  H   H6189     1.0  0.91165  0.44520  0.09302  1.0000
  H   H6190     1.0  0.96552  0.46991  0.15505  1.0000
  H   H6191     1.0  0.83964  0.42216  0.98911  1.0000
  Fe  Fe511     1.0  0.98060  0.46639  0.16769  1.0000
  H   H6192     1.0  0.84613  0.43654  0.99011  1.0000
  H   H6193     1.0  0.92151  0.44411  0.07372  1.0000
  C   C3611     1.0  0.93890  0.44678  0.12621  1.0000
  H   H6194     1.0  0.91455  0.43072  0.14055  1.0000
  Fe  Fe512     1.0  0.90898  0.47686  0.15782  1.0000
  H   H6195     1.0  0.85016  0.48261  0.01377  1.0000
  C   C3612     1.0  0.93532  0.48083  0.15878  1.0000
  H   H6196     1.0  0.84365  0.48415  0.03531  1.0000
  H   H6197     1.0  0.77995  0.46973  0.03057  1.0000
  H   H6198     1.0  0.89092  0.48157  0.20300  1.0000
  H   H6199     1.0  0.94262  0.43782  0.12776  1.0000
  H   H6200     1.0  0.91229  0.43629  0.07312  1.0000
  H   H6201     1.0  0.78272  0.45862  0.04639  1.0000
  C   C3613     1.0  0.88997  0.45763  0.21248  1.0000
  C   C3614     1.0  0.91338  0.44221  0.07721  1.0000
  C   C3615     1.0  0.86297  0.46522  0.13582  1.0000
  H   H6202     1.0  0.93661  0.45859  0.11083  1.0000
  H   H6203     1.0  0.82572  0.42184  0.99295  1.0000
  C   C3616     1.0  0.94079  0.46752  0.21712  1.0000
  C   C3617     1.0  0.90082  0.45829  0.21035  1.0000
  H   H6204     1.0  0.80889  0.43298  0.99461  1.0000
  H   H6205     1.0  0.81705  0.44779  0.00418  1.0000
  C   C3618     1.0  0.93554  0.45015  0.11511  1.0000
  H   H6206     1.0  0.80115  0.44395  0.00111  1.0000
  C   C3619     1.0  0.89519  0.48796  0.21495  1.0000
  C   C3620     1.0  0.96145  0.46928  0.14034  1.0000
  C   C3621     1.0  0.93527  0.44496  0.14601  1.0000
  H   H6207     1.0  0.84919  0.46790  0.14917  1.0000
  H   H6208     1.0  0.77481  0.45604  0.06000  1.0000
  H   H6209     1.0  0.85670  0.46649  0.16965  1.0000
  N   N258      1.0  0.76648  0.47933  0.04024  1.0000
  C   C3622     1.0  0.93856  0.42003  0.09598  1.0000
  H   H6210     1.0  0.79751  0.46271  0.99029  1.0000
  H   H6211     1.0  0.86111  0.45740  0.16010  1.0000
  H   H6212     1.0  0.94522  0.47079  0.20875  1.0000
  H   H6213     1.0  0.92845  0.40455  0.09746  1.0000
  H   H6214     1.0  0.91192  0.42991  0.12185  1.0000
  C   C3623     1.0  0.93408  0.44075  0.21560  1.0000
  H   H6215     1.0  0.92820  0.48718  0.19762  1.0000
  H   H6216     1.0  0.95332  0.45581  0.20245  1.0000
  H   H6217     1.0  0.77756  0.42879  0.00746  1.0000
  H   H6218     1.0  0.78328  0.44039  0.00056  1.0000
  C   C3624     1.0  0.91115  0.43832  0.08985  1.0000
  H   H6219     1.0  0.96128  0.43524  0.20469  1.0000
  C   C3625     1.0  0.88844  0.45575  0.23208  1.0000
  H   H6220     1.0  0.95600  0.48173  0.22361  1.0000
  H   H6221     1.0  0.90557  0.42447  0.10855  1.0000
  C   C3626     1.0  0.78013  0.43393  0.99920  1.0000
  H   H6222     1.0  0.92282  0.41957  0.08069  1.0000
  H   H6223     1.0  0.93629  0.47243  0.15825  1.0000
  H   H6224     1.0  0.91050  0.44131  0.11062  1.0000
  S   S1048     1.0  0.82204  0.48369  0.99265  1.0000
  Fe  Fe513     1.0  0.96465  0.47989  0.08212  1.0000
  C   C3627     1.0  0.92046  0.44543  0.13804  1.0000
  H   H6225     1.0  0.74097  0.47562  0.04438  1.0000
  H   H6226     1.0  0.90248  0.43769  0.09267  1.0000
  C   C3628     1.0  0.90535  0.45767  0.21908  1.0000
  H   H6227     1.0  0.94228  0.41414  0.09049  1.0000
  H   H6228     1.0  0.83408  0.47297  0.06830  1.0000
  H   H6229     1.0  0.81796  0.44854  0.99016  1.0000
  H   H6230     1.0  0.96418  0.48831  0.21163  1.0000
  C   C3629     1.0  0.97842  0.45958  0.14571  1.0000
  H   H6231     1.0  0.77608  0.47598  0.05236  1.0000
  C   C3630     1.0  0.81846  0.44267  0.99810  1.0000
  H   H6232     1.0  0.93013  0.43707  0.09329  1.0000
  C   C3631     1.0  0.91425  0.42493  0.10660  1.0000
  C   C3632     1.0  0.91526  0.43286  0.11298  1.0000
  S   S1049     1.0  0.88787  0.47062  0.09875  1.0000
  S   S1050     1.0  0.90919  0.45997  0.19705  1.0000
  H   H6233     1.0  0.93439  0.46601  0.13088  1.0000
  C   C3633     1.0  0.92237  0.43286  0.13976  1.0000
  H   H6234     1.0  0.92815  0.42976  0.13270  1.0000
  N   N259      1.0  0.82946  0.43494  0.99751  1.0000
  C   C3634     1.0  0.88380  0.45626  0.22339  1.0000
  C   C3635     1.0  0.80368  0.46729  0.98574  1.0000
  C   C3636     1.0  0.82973  0.42787  0.00889  1.0000
  C   C3637     1.0  0.77662  0.47839  0.03128  1.0000
  S   S1051     1.0  0.87314  0.48284  0.08046  1.0000
  C   C3638     1.0  0.92723  0.46227  0.13477  1.0000
  C   C3639     1.0  0.84057  0.41969  0.01027  1.0000
  H   H6235     1.0  0.80762  0.43180  0.00916  1.0000
  H   H6236     1.0  0.95190  0.44785  0.13992  1.0000
  C   C3640     1.0  0.91835  0.46876  0.12830  1.0000
  H   H6237     1.0  0.82773  0.43314  0.01496  1.0000
  H   H6238     1.0  0.82351  0.42282  0.01169  1.0000
  C   C3641     1.0  0.94138  0.48323  0.16478  1.0000
  H   H6239     1.0  0.86794  0.46972  0.12852  1.0000
  C   C3642     1.0  0.86457  0.48523  0.04215  1.0000
  H   H6240     1.0  0.76918  0.45647  0.04881  1.0000
  H   H6241     1.0  0.91029  0.46719  0.13299  1.0000
  H   H6242     1.0  0.77147  0.45799  0.99786  1.0000
  H   H6243     1.0  0.84221  0.41296  0.00593  1.0000
  H   H6244     1.0  0.84754  0.42372  0.00758  1.0000
  H   H6245     1.0  0.84001  0.41578  0.01913  1.0000
  H   H6246     1.0  0.93488  0.47465  0.22002  1.0000
  H   H6247     1.0  0.94712  0.44573  0.15441  1.0000
  C   C3643     1.0  0.88728  0.48762  0.20830  1.0000
  H   H6248     1.0  0.92506  0.42848  0.14751  1.0000
  C   C3644     1.0  0.92700  0.43685  0.22693  1.0000
  S   S1052     1.0  0.97724  0.48456  0.16109  1.0000
  H   H6249     1.0  0.84020  0.44251  0.00166  1.0000
  C   C3645     1.0  0.95565  0.44006  0.19924  1.0000
  H   H6250     1.0  0.94224  0.45865  0.14610  1.0000
  H   H6251     1.0  0.78672  0.42854  0.99446  1.0000
  H   H6252     1.0  0.92971  0.46304  0.21076  1.0000
  H   H6253     1.0  0.91323  0.47748  0.20414  1.0000
  C   C3646     1.0  0.83837  0.44128  0.99427  1.0000
  H   H6254     1.0  0.92415  0.46436  0.14299  1.0000
  H   H6255     1.0  0.88009  0.48485  0.21409  1.0000
  C   C3647     1.0  0.77433  0.46029  0.05139  1.0000
  H   H6256     1.0  0.92854  0.45827  0.22502  1.0000
  N   N260      1.0  0.93041  0.44992  0.13599  1.0000
  H   H6257     1.0  0.95631  0.44610  0.22005  1.0000
  H   H6258     1.0  0.91453  0.44784  0.14543  1.0000
  Fe  Fe514     1.0  0.98622  0.48459  0.17328  1.0000
  H   H6259     1.0  0.86961  0.47802  0.15775  1.0000
  C   C3648     1.0  0.94901  0.44252  0.22282  1.0000
  H   H6260     1.0  0.97607  0.48028  0.22338  1.0000
  C   C3649     1.0  0.75816  0.47522  0.03742  1.0000
  H   H6261     1.0  0.78302  0.48228  0.01361  1.0000
  N   N261      1.0  0.94142  0.44805  0.21509  1.0000
  H   H6262     1.0  0.74954  0.46269  0.04853  1.0000
  H   H6263     1.0  0.96083  0.46094  0.23214  1.0000
  Fe  Fe515     1.0  0.87085  0.48001  0.09866  1.0000
  H   H6264     1.0  0.75439  0.48156  0.03100  1.0000
  H   H6265     1.0  0.91603  0.44903  0.13131  1.0000
  C   C3650     1.0  0.94801  0.45017  0.20344  1.0000
  H   H6266     1.0  0.93884  0.43304  0.21299  1.0000
  Fe  Fe516     1.0  0.74109  0.47455  0.99746  1.0000
  H   H6267     1.0  0.92862  0.44488  0.20974  1.0000
  H   H6268     1.0  0.92901  0.48177  0.07886  1.0000
  H   H6269     1.0  0.86254  0.48499  0.00381  1.0000
  H   H6270     1.0  0.87239  0.47892  0.01956  1.0000
  C   C3651     1.0  0.85914  0.48045  0.01208  1.0000
  H   H6271     1.0  0.91775  0.47770  0.12718  1.0000
  H   H6272     1.0  0.93199  0.43084  0.23252  1.0000
  S   S1053     1.0  0.96989  0.44968  0.09877  1.0000
  C   C3652     1.0  0.94464  0.44968  0.14647  1.0000
  Fe  Fe517     1.0  0.96271  0.48509  0.17491  1.0000
  C   C3653     1.0  0.96917  0.48664  0.22646  1.0000
  Fe  Fe518     1.0  0.80857  0.47771  0.03383  1.0000
  H   H6273     1.0  0.87106  0.48348  0.13302  1.0000
  C   C3654     1.0  0.86700  0.47288  0.15384  1.0000
  C   C3655     1.0  0.85436  0.47300  0.14263  1.0000
  H   H6274     1.0  0.87450  0.46931  0.14833  1.0000
  H   H6275     1.0  0.76305  0.47354  0.05808  1.0000
  C   C3656     1.0  0.74881  0.47171  0.04692  1.0000
  S   S1054     1.0  0.92068  0.48639  0.14574  1.0000
  H   H6276     1.0  0.86826  0.45883  0.14084  1.0000
  C   C3657     1.0  0.91111  0.48632  0.20005  1.0000
  H   H6277     1.0  0.86025  0.47668  0.02882  1.0000
  H   H6278     1.0  0.76685  0.43175  0.99419  1.0000
  H   H6279     1.0  0.76875  0.48356  0.01706  1.0000
  H   H6280     1.0  0.78305  0.48097  0.03334  1.0000
  H   H6281     1.0  0.84452  0.47968  0.16088  1.0000
  S   S1055     1.0  0.97130  0.48696  0.18656  1.0000
  H   H6282     1.0  0.86159  0.47157  0.01193  1.0000
  H   H6283     1.0  0.84898  0.47836  0.13706  1.0000
  H   H6284     1.0  0.76519  0.46744  0.98705  1.0000
  C   C3658     1.0  0.84925  0.48563  0.15503  1.0000
  N   N262      1.0  0.85861  0.47986  0.14741  1.0000
  C   C3659     1.0  0.83631  0.45296  0.98694  1.0000
  S   S1056     1.0  0.73796  0.45784  0.00641  1.0000
  H   H6285     1.0  0.92573  0.48137  0.09863  1.0000
  H   H6286     1.0  0.90626  0.48671  0.19414  1.0000
  H   H6287     1.0  0.92487  0.48483  0.18626  1.0000
  C   C3660     1.0  0.77290  0.46226  0.98909  1.0000
  H   H6288     1.0  0.92192  0.44364  0.23091  1.0000
  C   C3661     1.0  0.97565  0.45996  0.21980  1.0000
  H   H6289     1.0  0.94352  0.48384  0.06433  1.0000
  H   H6290     1.0  0.76389  0.44360  0.99951  1.0000
  C   C3662     1.0  0.86384  0.48793  0.13811  1.0000
  C   C3663     1.0  0.92131  0.48819  0.09308  1.0000
  Fe  Fe519     1.0  0.74317  0.04260  0.44794  1.0000
  H   H6291     1.0  0.91077  0.48122  0.30087  1.0000
  S   S1057     1.0  0.90825  0.44706  0.36464  1.0000
  H   H6292     1.0  0.93017  0.42311  0.44900  1.0000
  H   H6293     1.0  0.96851  0.16904  0.39848  1.0000
  C   C3664     1.0  0.97973  0.09273  0.43171  1.0000
  Fe  Fe520     1.0  0.96326  0.48390  0.37581  1.0000
  S   S1058     1.0  0.88902  0.39686  0.43322  1.0000
  H   H6294     1.0  0.93124  0.30260  0.44602  1.0000
  H   H6295     1.0  0.76854  0.05571  0.39442  1.0000
  C   C3665     1.0  0.75923  0.07011  0.46322  1.0000
  C   C3666     1.0  0.88702  0.36200  0.41938  1.0000
  C   C3667     1.0  0.94809  0.20565  0.44118  1.0000
  H   H6296     1.0  0.76924  0.08302  0.44624  1.0000
  C   C3668     1.0  0.87467  0.27188  0.42762  1.0000
  H   H6297     1.0  0.89058  0.31180  0.47054  1.0000
  H   H6298     1.0  0.89049  0.41799  0.27742  1.0000
  H   H6299     1.0  0.77347  0.04978  0.46524  1.0000
  S   S1059     1.0  0.87928  0.46837  0.26992  1.0000
  C   C3669     1.0  0.97322  0.46808  0.31191  1.0000
  C   C3670     1.0  0.75493  0.07586  0.38177  1.0000
  C   C3671     1.0  0.97438  0.36680  0.48159  1.0000
  H   H6300     1.0  0.96913  0.15830  0.41076  1.0000
  H   H6301     1.0  0.85658  0.16938  0.43724  1.0000
  H   H6302     1.0  0.80408  0.00311  0.45296  1.0000
  H   H6303     1.0  0.87265  0.28974  0.40589  1.0000
  S   S1060     1.0  0.96757  0.46511  0.27387  1.0000
  S   S1061     1.0  0.97045  0.39483  0.43177  1.0000
  C   C3672     1.0  0.81647  0.99577  0.46894  1.0000
  Fe  Fe521     1.0  0.96610  0.38736  0.44977  1.0000
  S   S1062     1.0  0.95173  0.37991  0.45819  1.0000
  S   S1063     1.0  0.96776  0.40141  0.45539  1.0000
  Fe  Fe522     1.0  0.90207  0.40517  0.42137  1.0000
  S   S1064     1.0  0.90797  0.39276  0.41072  1.0000
  S   S1065     1.0  0.90029  0.42364  0.41542  1.0000
  S   S1066     1.0  0.98277  0.37763  0.45064  1.0000
  Fe  Fe523     1.0  0.91893  0.38385  0.42238  1.0000
  S   S1067     1.0  0.93638  0.37538  0.41861  1.0000
  H   H6304     1.0  0.90616  0.33978  0.45066  1.0000
  C   C3673     1.0  0.95554  0.35068  0.41157  1.0000
  C   C3674     1.0  0.92208  0.46940  0.28565  1.0000
  Fe  Fe524     1.0  0.88772  0.48771  0.36109  1.0000
  H   H6305     1.0  0.92709  0.13833  0.46700  1.0000
  H   H6306     1.0  0.94777  0.46332  0.24839  1.0000
  Fe  Fe525     1.0  0.96602  0.13006  0.43428  1.0000
  S   S1068     1.0  0.96883  0.14601  0.43500  1.0000
  S   S1069     1.0  0.95198  0.13020  0.42757  1.0000
  H   H6307     1.0  0.95796  0.11079  0.47673  1.0000
  N   N263      1.0  0.75291  0.99172  0.47762  1.0000
  Fe  Fe526     1.0  0.97261  0.13705  0.45131  1.0000
  H   H6308     1.0  0.76694  0.99311  0.46425  1.0000
  Fe  Fe527     1.0  0.89540  0.48202  0.33859  1.0000
  S   S1070     1.0  0.96835  0.12164  0.45123  1.0000
  Fe  Fe528     1.0  0.89435  0.12264  0.45189  1.0000
  S   S1071     1.0  0.89416  0.12020  0.43551  1.0000
  S   S1072     1.0  0.90867  0.11885  0.45971  1.0000
  Fe  Fe529     1.0  0.86997  0.13164  0.45732  1.0000
  S   S1073     1.0  0.86768  0.13026  0.44139  1.0000
  S   S1074     1.0  0.85550  0.13765  0.46982  1.0000
  Fe  Fe530     1.0  0.87900  0.11370  0.44416  1.0000
  S   S1075     1.0  0.87528  0.09718  0.44562  1.0000
  Fe  Fe531     1.0  0.88282  0.13694  0.43427  1.0000
  S   S1076     1.0  0.88362  0.15107  0.41964  1.0000
  S   S1077     1.0  0.88027  0.11478  0.46069  1.0000
  S   S1078     1.0  0.88405  0.13972  0.45002  1.0000
  H   H6309     1.0  0.95503  0.43871  0.35762  1.0000
  C   C3675     1.0  0.85188  0.17344  0.46766  1.0000
  H   H6310     1.0  0.95058  0.19303  0.42317  1.0000
  H   H6311     1.0  0.98044  0.41520  0.41278  1.0000
  S   S1079     1.0  0.95691  0.22039  0.42362  1.0000
  C   C3676     1.0  0.98494  0.26074  0.44261  1.0000
  C   C3677     1.0  0.93811  0.47123  0.29060  1.0000
  C   C3678     1.0  0.93810  0.33690  0.41102  1.0000
  H   H6312     1.0  0.85945  0.45203  0.26551  1.0000
  C   C3679     1.0  0.94302  0.47071  0.25113  1.0000
  H   H6313     1.0  0.86005  0.10174  0.46900  1.0000
  C   C3680     1.0  0.93022  0.45794  0.37520  1.0000
  N   N264      1.0  0.94387  0.45457  0.35723  1.0000
  H   H6314     1.0  0.96214  0.43754  0.37346  1.0000
  S   S1080     1.0  0.75296  0.02905  0.45847  1.0000
  H   H6315     1.0  0.92906  0.45853  0.35124  1.0000
  C   C3681     1.0  0.74550  0.99262  0.47026  1.0000
  Fe  Fe532     1.0  0.88673  0.20368  0.43749  1.0000
  C   C3682     1.0  0.95164  0.46007  0.34783  1.0000
  S   S1081     1.0  0.87695  0.19809  0.42921  1.0000
  H   H6316     1.0  0.93855  0.47807  0.30462  1.0000
  H   H6317     1.0  0.92377  0.45515  0.37344  1.0000
  S   S1082     1.0  0.90042  0.23951  0.42725  1.0000
  C   C3683     1.0  0.93790  0.46251  0.36457  1.0000
  C   C3684     1.0  0.93570  0.45139  0.35323  1.0000
  S   S1083     1.0  0.98057  0.30827  0.42784  1.0000
  S   S1084     1.0  0.90271  0.20829  0.42920  1.0000
  H   H6318     1.0  0.95699  0.45426  0.34265  1.0000
  H   H6319     1.0  0.97744  0.42313  0.47871  1.0000
  H   H6320     1.0  0.85942  0.30077  0.42495  1.0000
  S   S1085     1.0  0.89038  0.32555  0.42074  1.0000
  H   H6321     1.0  0.95132  0.47270  0.29675  1.0000
  C   C3685     1.0  0.94767  0.47637  0.25569  1.0000
  H   H6322     1.0  0.93628  0.45694  0.27969  1.0000
  C   C3686     1.0  0.96831  0.48555  0.31735  1.0000
  C   C3687     1.0  0.88682  0.28917  0.41764  1.0000
  C   C3688     1.0  0.89511  0.24108  0.47672  1.0000
  H   H6323     1.0  0.88558  0.30333  0.40352  1.0000
  H   H6324     1.0  0.93188  0.33181  0.41441  1.0000
  Fe  Fe533     1.0  0.82394  0.05384  0.43948  1.0000
  S   S1086     1.0  0.82614  0.06602  0.42338  1.0000
  S   S1087     1.0  0.83091  0.03562  0.44127  1.0000
  Fe  Fe534     1.0  0.81141  0.07156  0.45202  1.0000
  S   S1088     1.0  0.81236  0.08513  0.43700  1.0000
  S   S1089     1.0  0.80200  0.07585  0.46814  1.0000
  Fe  Fe535     1.0  0.80866  0.07363  0.42923  1.0000
  S   S1090     1.0  0.79742  0.07991  0.41755  1.0000
  Fe  Fe536     1.0  0.82976  0.07643  0.43262  1.0000
  S   S1091     1.0  0.84227  0.08688  0.42429  1.0000
  S   S1092     1.0  0.80617  0.06072  0.44468  1.0000
  S   S1093     1.0  0.82914  0.06348  0.44827  1.0000
  H   H6325     1.0  0.96130  0.40054  0.48053  1.0000
  H   H6326     1.0  0.77668  0.00115  0.47217  1.0000
  H   H6327     1.0  0.83661  0.08157  0.46962  1.0000
  S   S1094     1.0  0.80410  0.00983  0.42777  1.0000
  C   C3689     1.0  0.92598  0.48387  0.25411  1.0000
  H   H6328     1.0  0.96065  0.08682  0.45490  1.0000
  C   C3690     1.0  0.73777  0.03163  0.40956  1.0000
  H   H6329     1.0  0.83133  0.99908  0.47097  1.0000
  H   H6330     1.0  0.93524  0.42748  0.45834  1.0000
  H   H6331     1.0  0.84200  0.13588  0.45587  1.0000
  C   C3691     1.0  0.94290  0.47728  0.29620  1.0000
  H   H6332     1.0  0.95735  0.16892  0.41029  1.0000
  H   H6333     1.0  0.98193  0.36768  0.47526  1.0000
  H   H6334     1.0  0.91316  0.46998  0.28815  1.0000
  H   H6335     1.0  0.97288  0.25747  0.40923  1.0000
  S   S1095     1.0  0.91409  0.39692  0.43206  1.0000
  H   H6336     1.0  0.87598  0.32664  0.45992  1.0000
  H   H6337     1.0  0.91827  0.48709  0.36876  1.0000
  H   H6338     1.0  0.92337  0.47593  0.27811  1.0000
  C   C3692     1.0  0.88428  0.34563  0.47763  1.0000
  C   C3693     1.0  0.94144  0.48577  0.25950  1.0000
  C   C3694     1.0  0.89292  0.46225  0.30220  1.0000
  H   H6339     1.0  0.98492  0.26254  0.47648  1.0000
  H   H6340     1.0  0.86833  0.44588  0.30977  1.0000
  C   C3695     1.0  0.96592  0.10273  0.42060  1.0000
  C   C3696     1.0  0.87834  0.35321  0.46870  1.0000
  H   H6341     1.0  0.76398  0.04991  0.40853  1.0000
  C   C3697     1.0  0.95611  0.30003  0.45004  1.0000
  C   C3698     1.0  0.87252  0.28191  0.43269  1.0000
  H   H6342     1.0  0.97135  0.09974  0.41334  1.0000
  C   C3699     1.0  0.94488  0.30299  0.45148  1.0000
  H   H6343     1.0  0.85803  0.19928  0.45167  1.0000
  C   C3700     1.0  0.95607  0.33844  0.41248  1.0000
  H   H6344     1.0  0.85425  0.42712  0.28687  1.0000
  H   H6345     1.0  0.88056  0.43669  0.30531  1.0000
  S   S1096     1.0  0.74466  0.04174  0.40879  1.0000
  C   C3701     1.0  0.82367  0.02855  0.43712  1.0000
  C   C3702     1.0  0.82696  0.01710  0.43839  1.0000
  C   C3703     1.0  0.82107  0.01127  0.43546  1.0000
  C   C3704     1.0  0.81191  0.01690  0.43114  1.0000
  C   C3705     1.0  0.80872  0.02836  0.42973  1.0000
  C   C3706     1.0  0.81455  0.03417  0.43275  1.0000
  H   H6346     1.0  0.83405  0.01271  0.44170  1.0000
  H   H6347     1.0  0.82367  0.00245  0.43644  1.0000
  H   H6348     1.0  0.80166  0.03276  0.42638  1.0000
  H   H6349     1.0  0.81201  0.04301  0.43163  1.0000
  C   C3707     1.0  0.78367  0.08007  0.42328  1.0000
  C   C3708     1.0  0.78005  0.07030  0.42829  1.0000
  C   C3709     1.0  0.76887  0.07050  0.43118  1.0000
  C   C3710     1.0  0.76136  0.08050  0.42917  1.0000
  C   C3711     1.0  0.76502  0.09027  0.42462  1.0000
  C   C3712     1.0  0.77613  0.09004  0.42153  1.0000
  H   H6350     1.0  0.78588  0.06255  0.42947  1.0000
  H   H6351     1.0  0.76610  0.06294  0.43482  1.0000
  H   H6352     1.0  0.75926  0.09802  0.42312  1.0000
  H   H6353     1.0  0.77891  0.09758  0.41756  1.0000
  H   H6354     1.0  0.90986  0.21985  0.47159  1.0000
  C   C3713     1.0  0.82109  0.08010  0.46853  1.0000
  H   H6355     1.0  0.97440  0.10109  0.47037  1.0000
  H   H6356     1.0  0.75682  0.99395  0.43152  1.0000
  C   C3714     1.0  0.89658  0.20121  0.48042  1.0000
  H   H6357     1.0  0.82384  0.07924  0.46015  1.0000
  N   N265      1.0  0.88304  0.35159  0.45712  1.0000
  C   C3715     1.0  0.94022  0.44603  0.34321  1.0000
  C   C3716     1.0  0.89105  0.24912  0.44503  1.0000
  S   S1097     1.0  0.89506  0.47640  0.24580  1.0000
  H   H6358     1.0  0.77361  0.07683  0.40762  1.0000
  H   H6359     1.0  0.96633  0.48343  0.23538  1.0000
  Fe  Fe537     1.0  0.90706  0.20004  0.44550  1.0000
  H   H6360     1.0  0.88632  0.24286  0.44813  1.0000
  H   H6361     1.0  0.95779  0.10004  0.45790  1.0000
  H   H6362     1.0  0.96964  0.45892  0.24734  1.0000
  H   H6363     1.0  0.90338  0.34261  0.46415  1.0000
  C   C3717     1.0  0.94694  0.21295  0.43115  1.0000
  H   H6364     1.0  0.88465  0.29442  0.43613  1.0000
  H   H6365     1.0  0.95081  0.47083  0.33164  1.0000
  H   H6366     1.0  0.98627  0.42251  0.39275  1.0000
  N   N266      1.0  0.80792  0.00492  0.47342  1.0000
  H   H6367     1.0  0.92386  0.34932  0.40711  1.0000
  C   C3718     1.0  0.94648  0.47064  0.34034  1.0000
  H   H6368     1.0  0.87004  0.30635  0.44643  1.0000
  H   H6369     1.0  0.94688  0.43872  0.34457  1.0000
  C   C3719     1.0  0.90739  0.15120  0.45042  1.0000
  Fe  Fe538     1.0  0.89456  0.46096  0.27621  1.0000
  N   N267      1.0  0.94596  0.33414  0.41841  1.0000
  H   H6370     1.0  0.93065  0.35383  0.41428  1.0000
  C   C3720     1.0  0.89264  0.42609  0.27533  1.0000
  C   C3721     1.0  0.95419  0.21654  0.47423  1.0000
  C   C3722     1.0  0.93811  0.21381  0.42678  1.0000
  C   C3723     1.0  0.93215  0.47442  0.25040  1.0000
  H   H6371     1.0  0.86371  0.28378  0.43653  1.0000
  H   H6372     1.0  0.92413  0.20756  0.42857  1.0000
  H   H6373     1.0  0.93706  0.21956  0.41912  1.0000
  H   H6374     1.0  0.92165  0.48380  0.30421  1.0000
  H   H6375     1.0  0.91138  0.17195  0.45555  1.0000
  H   H6376     1.0  0.95608  0.47351  0.25615  1.0000
  C   C3724     1.0  0.87010  0.44404  0.29321  1.0000
  S   S1098     1.0  0.92628  0.46719  0.24496  1.0000
  C   C3725     1.0  0.85063  0.09024  0.43086  1.0000
  C   C3726     1.0  0.85585  0.09896  0.42538  1.0000
  C   C3727     1.0  0.86311  0.10147  0.43000  1.0000
  C   C3728     1.0  0.86552  0.09499  0.43996  1.0000
  C   C3729     1.0  0.86035  0.08621  0.44540  1.0000
  C   C3730     1.0  0.85270  0.08404  0.44105  1.0000
  H   H6377     1.0  0.85434  0.10377  0.41747  1.0000
  H   H6378     1.0  0.86713  0.10816  0.42567  1.0000
  H   H6379     1.0  0.86224  0.08109  0.45306  1.0000
  H   H6380     1.0  0.84866  0.07737  0.44543  1.0000
  C   C3731     1.0  0.88251  0.16401  0.42225  1.0000
  C   C3732     1.0  0.88861  0.16547  0.42883  1.0000
  C   C3733     1.0  0.88746  0.17601  0.43068  1.0000
  C   C3734     1.0  0.88005  0.18501  0.42609  1.0000
  C   C3735     1.0  0.87410  0.18348  0.41945  1.0000
  C   C3736     1.0  0.87542  0.17310  0.41743  1.0000
  H   H6381     1.0  0.89427  0.15851  0.43235  1.0000
  H   H6382     1.0  0.89213  0.17713  0.43576  1.0000
  H   H6383     1.0  0.86839  0.19038  0.41586  1.0000
  H   H6384     1.0  0.87081  0.17207  0.41223  1.0000
  C   C3737     1.0  0.93556  0.42046  0.45488  1.0000
  C   C3738     1.0  0.74964  0.04059  0.47444  1.0000
  H   H6385     1.0  0.76269  0.00461  0.44292  1.0000
  H   H6386     1.0  0.93583  0.40325  0.46016  1.0000
  H   H6387     1.0  0.88680  0.28341  0.41277  1.0000
  N   N268      1.0  0.92125  0.41163  0.47019  1.0000
  H   H6388     1.0  0.75915  0.06813  0.41344  1.0000
  C   C3739     1.0  0.93998  0.12720  0.43672  1.0000
  C   C3740     1.0  0.93942  0.12323  0.44800  1.0000
  C   C3741     1.0  0.92982  0.12056  0.45500  1.0000
  C   C3742     1.0  0.92069  0.12198  0.45077  1.0000
  C   C3743     1.0  0.92123  0.12605  0.43952  1.0000
  C   C3744     1.0  0.93086  0.12859  0.43252  1.0000
  H   H6389     1.0  0.94637  0.12216  0.45133  1.0000
  H   H6390     1.0  0.92941  0.11744  0.46371  1.0000
  H   H6391     1.0  0.91422  0.12723  0.43620  1.0000
  H   H6392     1.0  0.93122  0.13167  0.42380  1.0000
  Fe  Fe539     1.0  0.98649  0.48566  0.26502  1.0000
  S   S1099     1.0  0.92339  0.19034  0.44822  1.0000
  C   C3745     1.0  0.91989  0.40140  0.47897  1.0000
  C   C3746     1.0  0.88937  0.33947  0.42042  1.0000
  C   C3747     1.0  0.88048  0.34722  0.41708  1.0000
  C   C3748     1.0  0.87926  0.35838  0.41667  1.0000
  H   H6393     1.0  0.73912  0.01171  0.39649  1.0000
  N   N269      1.0  0.83668  0.11467  0.45844  1.0000
  H   H6394     1.0  0.87445  0.34459  0.41484  1.0000
  H   H6395     1.0  0.87226  0.36426  0.41418  1.0000
  C   C3749     1.0  0.94771  0.37693  0.44788  1.0000
  C   C3750     1.0  0.93682  0.37735  0.44881  1.0000
  C   C3751     1.0  0.93351  0.37593  0.44007  1.0000
  C   C3752     1.0  0.94098  0.37458  0.43024  1.0000
  C   C3753     1.0  0.95195  0.37368  0.42950  1.0000
  C   C3754     1.0  0.95533  0.37474  0.43840  1.0000
  H   H6396     1.0  0.83207  0.14334  0.44819  1.0000
  H   H6397     1.0  0.92510  0.37609  0.44094  1.0000
  H   H6398     1.0  0.95775  0.37268  0.42191  1.0000
  H   H6399     1.0  0.96379  0.37409  0.43788  1.0000
  H   H6400     1.0  0.92429  0.14394  0.44929  1.0000
  S   S1100     1.0  0.91240  0.31543  0.46393  1.0000
  H   H6401     1.0  0.93785  0.47133  0.34064  1.0000
  C   C3755     1.0  0.93921  0.24489  0.43597  1.0000
  H   H6402     1.0  0.90291  0.45604  0.23648  1.0000
  H   H6403     1.0  0.88353  0.17197  0.46523  1.0000
  C   C3756     1.0  0.76620  0.02662  0.47202  1.0000
  Fe  Fe540     1.0  0.97044  0.21556  0.43243  1.0000
  C   C3757     1.0  0.96304  0.09486  0.45208  1.0000
  H   H6404     1.0  0.94300  0.45198  0.33564  1.0000
  H   H6405     1.0  0.81566  0.01644  0.45992  1.0000
  C   C3758     1.0  0.88898  0.48104  0.30437  1.0000
  H   H6406     1.0  0.87080  0.37435  0.45622  1.0000
  S   S1101     1.0  0.96394  0.47178  0.36624  1.0000
  H   H6407     1.0  0.96492  0.44925  0.36320  1.0000
  H   H6408     1.0  0.82001  0.11684  0.46748  1.0000
  H   H6409     1.0  0.76017  0.06775  0.45533  1.0000
  H   H6410     1.0  0.95307  0.33033  0.44986  1.0000
  H   H6411     1.0  0.95419  0.38942  0.40688  1.0000
  C   C3759     1.0  0.95789  0.20405  0.40180  1.0000
  H   H6412     1.0  0.97238  0.35777  0.42154  1.0000
  H   H6413     1.0  0.78178  0.00936  0.43778  1.0000
  H   H6414     1.0  0.94852  0.44831  0.23736  1.0000
  S   S1102     1.0  0.98123  0.44399  0.37894  1.0000
  C   C3760     1.0  0.96600  0.33842  0.47017  1.0000
  C   C3761     1.0  0.90584  0.44071  0.37879  1.0000
  C   C3762     1.0  0.90874  0.42919  0.38197  1.0000
  C   C3763     1.0  0.90695  0.42385  0.39315  1.0000
  C   C3764     1.0  0.90234  0.43000  0.40126  1.0000
  C   C3765     1.0  0.89963  0.44152  0.39808  1.0000
  C   C3766     1.0  0.90131  0.44686  0.38689  1.0000
  H   H6415     1.0  0.91225  0.42437  0.37576  1.0000
  H   H6416     1.0  0.90913  0.41499  0.39547  1.0000
  H   H6417     1.0  0.89609  0.44634  0.40430  1.0000
  H   H6418     1.0  0.89905  0.45573  0.38456  1.0000
  H   H6419     1.0  0.95164  0.39732  0.42089  1.0000
  H   H6420     1.0  0.74432  0.00100  0.42747  1.0000
  H   H6421     1.0  0.95780  0.30682  0.41582  1.0000
  H   H6422     1.0  0.87760  0.44671  0.26947  1.0000
  H   H6423     1.0  0.96471  0.33066  0.47611  1.0000
  H   H6424     1.0  0.95395  0.27289  0.41864  1.0000
  C   C3767     1.0  0.95629  0.31583  0.41244  1.0000
  H   H6425     1.0  0.87669  0.27884  0.43967  1.0000
  C   C3768     1.0  0.97595  0.46280  0.32210  1.0000
  H   H6426     1.0  0.92416  0.33662  0.43119  1.0000
  H   H6427     1.0  0.76290  0.09134  0.45578  1.0000
  H   H6428     1.0  0.86773  0.43243  0.30935  1.0000
  H   H6429     1.0  0.88189  0.37408  0.44424  1.0000
  C   C3769     1.0  0.94249  0.40781  0.43183  1.0000
  C   C3770     1.0  0.77550  0.99736  0.41347  1.0000
  H   H6430     1.0  0.87119  0.27375  0.42033  1.0000
  H   H6431     1.0  0.87246  0.43543  0.26969  1.0000
  H   H6432     1.0  0.88804  0.33736  0.47608  1.0000
  H   H6433     1.0  0.94467  0.43930  0.36962  1.0000
  C   C3771     1.0  0.85445  0.18495  0.44854  1.0000
  H   H6434     1.0  0.98398  0.12703  0.46685  1.0000
  C   C3772     1.0  0.95019  0.44420  0.36331  1.0000
  H   H6435     1.0  0.94713  0.47805  0.34259  1.0000
  Fe  Fe541     1.0  0.74171  0.06568  0.43458  1.0000
  C   C3773     1.0  0.95823  0.44572  0.36911  1.0000
  H   H6436     1.0  0.87436  0.18133  0.45013  1.0000
  H   H6437     1.0  0.93820  0.31742  0.47207  1.0000
  H   H6438     1.0  0.84726  0.18350  0.44682  1.0000
  H   H6439     1.0  0.86019  0.18592  0.44043  1.0000
  H   H6440     1.0  0.93362  0.44323  0.34173  1.0000
  C   C3774     1.0  0.86530  0.29460  0.41036  1.0000
  H   H6441     1.0  0.87924  0.30684  0.42752  1.0000
  H   H6442     1.0  0.95423  0.45070  0.37540  1.0000
  H   H6443     1.0  0.94420  0.40077  0.43875  1.0000
  H   H6444     1.0  0.84650  0.10102  0.47625  1.0000
  H   H6445     1.0  0.92401  0.40192  0.45289  1.0000
  H   H6446     1.0  0.95029  0.42441  0.39065  1.0000
  H   H6447     1.0  0.75581  0.09542  0.39309  1.0000
  C   C3775     1.0  0.86044  0.44946  0.27415  1.0000
  C   C3776     1.0  0.87751  0.29876  0.43241  1.0000
  H   H6448     1.0  0.96370  0.32793  0.45635  1.0000
  C   C3777     1.0  0.80421  0.02621  0.47089  1.0000
  C   C3778     1.0  0.94373  0.40334  0.42162  1.0000
  C   C3779     1.0  0.96984  0.44591  0.39991  1.0000
  H   H6449     1.0  0.86620  0.29380  0.44813  1.0000
  H   H6450     1.0  0.95245  0.10206  0.44092  1.0000
  H   H6451     1.0  0.93745  0.23761  0.43448  1.0000
  H   H6452     1.0  0.94373  0.48552  0.29099  1.0000
  H   H6453     1.0  0.86046  0.30629  0.43915  1.0000
  H   H6454     1.0  0.96684  0.45445  0.39638  1.0000
  C   C3780     1.0  0.95392  0.39681  0.40007  1.0000
  C   C3781     1.0  0.98072  0.42789  0.39789  1.0000
  C   C3782     1.0  0.87164  0.44164  0.27448  1.0000
  H   H6455     1.0  0.92609  0.46461  0.37972  1.0000
  H   H6456     1.0  0.87092  0.26539  0.43382  1.0000
  C   C3783     1.0  0.94600  0.29395  0.43704  1.0000
  C   C3784     1.0  0.89107  0.29887  0.40921  1.0000
  H   H6457     1.0  0.94307  0.46267  0.29119  1.0000
  S   S1103     1.0  0.90106  0.38002  0.46106  1.0000
  H   H6458     1.0  0.94005  0.30795  0.45731  1.0000
  H   H6459     1.0  0.93521  0.43466  0.40002  1.0000
  H   H6460     1.0  0.96655  0.19768  0.42074  1.0000
  H   H6461     1.0  0.86232  0.30157  0.40392  1.0000
  H   H6462     1.0  0.95742  0.46256  0.35096  1.0000
  H   H6463     1.0  0.86890  0.30759  0.41528  1.0000
  N   N270      1.0  0.87600  0.29216  0.42526  1.0000
  H   H6464     1.0  0.92683  0.48583  0.38384  1.0000
  H   H6465     1.0  0.93646  0.35335  0.40009  1.0000
  N   N271      1.0  0.86220  0.05279  0.42350  1.0000
  C   C3785     1.0  0.85652  0.05932  0.41431  1.0000
  C   C3786     1.0  0.86419  0.06095  0.42860  1.0000
  C   C3787     1.0  0.85472  0.04596  0.43185  1.0000
  C   C3788     1.0  0.87254  0.04556  0.41864  1.0000
  C   C3789     1.0  0.85228  0.05264  0.40889  1.0000
  C   C3790     1.0  0.87135  0.06883  0.42092  1.0000
  C   C3791     1.0  0.85637  0.04230  0.44375  1.0000
  C   C3792     1.0  0.88035  0.03897  0.42628  1.0000
  H   H6466     1.0  0.84947  0.06570  0.41725  1.0000
  H   H6467     1.0  0.86193  0.06393  0.40753  1.0000
  H   H6468     1.0  0.86790  0.05693  0.43579  1.0000
  H   H6469     1.0  0.85629  0.06605  0.43199  1.0000
  H   H6470     1.0  0.84614  0.05060  0.43254  1.0000
  H   H6471     1.0  0.85509  0.03840  0.42918  1.0000
  H   H6472     1.0  0.87068  0.03930  0.41551  1.0000
  H   H6473     1.0  0.87720  0.05026  0.41114  1.0000
  H   H6474     1.0  0.85894  0.04689  0.40462  1.0000
  H   H6475     1.0  0.84628  0.04810  0.41482  1.0000
  H   H6476     1.0  0.84800  0.05845  0.40256  1.0000
  H   H6477     1.0  0.87932  0.06440  0.41693  1.0000
  H   H6478     1.0  0.86717  0.07488  0.41466  1.0000
  H   H6479     1.0  0.87295  0.07372  0.42585  1.0000
  H   H6480     1.0  0.86475  0.03798  0.44435  1.0000
  H   H6481     1.0  0.85106  0.03651  0.44858  1.0000
  H   H6482     1.0  0.85382  0.04938  0.44780  1.0000
  H   H6483     1.0  0.87821  0.03097  0.43077  1.0000
  H   H6484     1.0  0.88081  0.04343  0.43217  1.0000
  H   H6485     1.0  0.88873  0.03734  0.42124  1.0000
  N   N272      1.0  0.76640  0.01196  0.42548  1.0000
  C   C3793     1.0  0.76449  0.01245  0.43738  1.0000
  C   C3794     1.0  0.75571  0.01158  0.42365  1.0000
  C   C3795     1.0  0.76968  0.02243  0.41853  1.0000
  C   C3796     1.0  0.77523  0.00199  0.42333  1.0000
  C   C3797     1.0  0.77389  0.01456  0.44082  1.0000
  H   H6486     1.0  0.96364  0.38006  0.47316  1.0000
  C   C3798     1.0  0.77183  0.02390  0.40600  1.0000
  H   H6487     1.0  0.88799  0.24449  0.48272  1.0000
  H   H6488     1.0  0.89282  0.23461  0.47432  1.0000
  H   H6489     1.0  0.91013  0.25703  0.46476  1.0000
  H   H6490     1.0  0.75619  0.01144  0.41505  1.0000
  H   H6491     1.0  0.74959  0.01921  0.42509  1.0000
  H   H6492     1.0  0.76337  0.02970  0.42076  1.0000
  H   H6493     1.0  0.77732  0.02315  0.42006  1.0000
  H   H6494     1.0  0.78336  0.00367  0.42222  1.0000
  Fe  Fe542     1.0  0.91112  0.48594  0.34971  1.0000
  H   H6495     1.0  0.77240  0.09614  0.39664  1.0000
  H   H6496     1.0  0.89817  0.10519  0.48125  1.0000
  H   H6497     1.0  0.76609  0.08574  0.37979  1.0000
  C   C3799     1.0  0.98432  0.36619  0.42164  1.0000
  H   H6498     1.0  0.92263  0.21838  0.45353  1.0000
  C   C3800     1.0  0.92256  0.22371  0.48246  1.0000
  H   H6499     1.0  0.77337  0.03224  0.40203  1.0000
  H   H6500     1.0  0.76481  0.02340  0.40320  1.0000
  H   H6501     1.0  0.77925  0.01802  0.40295  1.0000
  H   H6502     1.0  0.92280  0.25489  0.45500  1.0000
  C   C3801     1.0  0.82710  0.99225  0.47310  1.0000
  H   H6503     1.0  0.92191  0.38372  0.48273  1.0000
  C   C3802     1.0  0.97742  0.42374  0.40923  1.0000
  H   H6504     1.0  0.77434  0.02335  0.43801  1.0000
  H   H6505     1.0  0.93746  0.39841  0.42364  1.0000
  H   H6506     1.0  0.93269  0.16107  0.46357  1.0000
  C   C3803     1.0  0.84804  0.11270  0.46006  1.0000
  S   S1104     1.0  0.74740  0.08122  0.43176  1.0000
  Fe  Fe543     1.0  0.88556  0.21023  0.45828  1.0000
  C   C3804     1.0  0.87394  0.33529  0.46082  1.0000
  H   H6507     1.0  0.84921  0.11934  0.46310  1.0000
  H   H6508     1.0  0.97904  0.45399  0.32390  1.0000
  H   H6509     1.0  0.87394  0.45126  0.28974  1.0000
  H   H6510     1.0  0.77445  0.99504  0.43060  1.0000
  S   S1105     1.0  0.98325  0.12372  0.42608  1.0000
  C   C3805     1.0  0.94095  0.33831  0.42883  1.0000
  H   H6511     1.0  0.75816  0.07184  0.37465  1.0000
  C   C3806     1.0  0.79830  0.00924  0.45743  1.0000
  H   H6512     1.0  0.90146  0.42446  0.27500  1.0000
  H   H6513     1.0  0.94068  0.14919  0.44431  1.0000
  H   H6514     1.0  0.92513  0.35974  0.46176  1.0000
  C   C3807     1.0  0.87186  0.43930  0.30503  1.0000
  H   H6515     1.0  0.95066  0.26782  0.47913  1.0000
  C   C3808     1.0  0.74813  0.07808  0.46524  1.0000
  H   H6516     1.0  0.91303  0.24788  0.45552  1.0000
  H   H6517     1.0  0.93464  0.45117  0.38077  1.0000
  H   H6518     1.0  0.95119  0.30308  0.47841  1.0000
  H   H6519     1.0  0.94360  0.46591  0.36688  1.0000
  H   H6520     1.0  0.80033  0.01742  0.45391  1.0000
  Fe  Fe544     1.0  0.88717  0.48249  0.26124  1.0000
  H   H6521     1.0  0.91767  0.48689  0.25333  1.0000
  C   C3809     1.0  0.89380  0.35494  0.45265  1.0000
  C   C3810     1.0  0.91644  0.25076  0.46079  1.0000
  H   H6522     1.0  0.96997  0.24384  0.41483  1.0000
  H   H6523     1.0  0.89604  0.46310  0.32721  1.0000
  H   H6524     1.0  0.86131  0.44762  0.29405  1.0000
  S   S1106     1.0  0.91569  0.29014  0.45198  1.0000
  H   H6525     1.0  0.92461  0.45141  0.28818  1.0000
  H   H6526     1.0  0.86966  0.35270  0.47140  1.0000
  C   C3811     1.0  0.96909  0.07774  0.42414  1.0000
  H   H6527     1.0  0.75938  0.00579  0.46713  1.0000
  H   H6528     1.0  0.93252  0.38830  0.47216  1.0000
  S   S1107     1.0  0.88089  0.45448  0.24572  1.0000
  H   H6529     1.0  0.94899  0.35630  0.40767  1.0000
  C   C3812     1.0  0.96628  0.16725  0.40760  1.0000
  C   C3813     1.0  0.94928  0.26080  0.43914  1.0000
  H   H6530     1.0  0.95483  0.35241  0.41965  1.0000
  H   H6531     1.0  0.96789  0.34655  0.44545  1.0000
  H   H6532     1.0  0.94697  0.33582  0.43407  1.0000
  C   C3814     1.0  0.76896  0.02856  0.48083  1.0000
  H   H6533     1.0  0.82864  0.10467  0.47299  1.0000
  H   H6534     1.0  0.78735  0.04847  0.46498  1.0000
  C   C3815     1.0  0.92731  0.45846  0.28191  1.0000
  N   N273      1.0  0.92620  0.47118  0.29464  1.0000
  C   C3816     1.0  0.94024  0.28868  0.48370  1.0000
  H   H6535     1.0  0.95215  0.31744  0.40563  1.0000
  C   C3817     1.0  0.77380  0.07831  0.39873  1.0000
  H   H6536     1.0  0.74928  0.08377  0.37928  1.0000
  H   H6537     1.0  0.95352  0.24455  0.45025  1.0000
  C   C3818     1.0  0.87415  0.37150  0.44842  1.0000
  C   C3819     1.0  0.83397  0.13594  0.45473  1.0000
  C   C3820     1.0  0.87682  0.16876  0.46459  1.0000
  C   C3821     1.0  0.85762  0.42704  0.29383  1.0000
  C   C3822     1.0  0.93986  0.29996  0.44499  1.0000
  H   H6538     1.0  0.78407  0.99406  0.40972  1.0000
  H   H6539     1.0  0.88893  0.42818  0.29184  1.0000
  H   H6540     1.0  0.92741  0.34807  0.47261  1.0000
  H   H6541     1.0  0.95124  0.26891  0.43803  1.0000
  H   H6542     1.0  0.95605  0.16793  0.43061  1.0000
  H   H6543     1.0  0.87279  0.42038  0.28431  1.0000
  C   C3823     1.0  0.92157  0.24143  0.46939  1.0000
  C   C3824     1.0  0.95423  0.17637  0.43193  1.0000
  H   H6544     1.0  0.96659  0.07864  0.44078  1.0000
  C   C3825     1.0  0.88424  0.33997  0.45614  1.0000
  H   H6545     1.0  0.90326  0.16314  0.46465  1.0000
  N   N274      1.0  0.87425  0.43611  0.28562  1.0000
  H   H6546     1.0  0.74659  0.00865  0.45860  1.0000
  C   C3826     1.0  0.82597  0.10637  0.44989  1.0000
  H   H6547     1.0  0.92476  0.45528  0.32161  1.0000
  C   C3827     1.0  0.97285  0.25040  0.41638  1.0000
  H   H6548     1.0  0.76560  0.06908  0.48075  1.0000
  H   H6549     1.0  0.90383  0.14566  0.45785  1.0000
  H   H6550     1.0  0.95192  0.18105  0.48230  1.0000
  H   H6551     1.0  0.81917  0.01475  0.47235  1.0000
  S   S1108     1.0  0.97711  0.47396  0.38368  1.0000
  H   H6552     1.0  0.92981  0.22743  0.45495  1.0000
  C   C3828     1.0  0.98090  0.35738  0.42042  1.0000
  Fe  Fe545     1.0  0.97507  0.48088  0.35278  1.0000
  C   C3829     1.0  0.87003  0.42574  0.29036  1.0000
  H   H6553     1.0  0.91096  0.35048  0.45264  1.0000
  H   H6554     1.0  0.93978  0.47516  0.28172  1.0000
  C   C3830     1.0  0.85095  0.19620  0.45176  1.0000
  H   H6555     1.0  0.88287  0.25766  0.45812  1.0000
  H   H6556     1.0  0.90514  0.41346  0.46784  1.0000
  S   S1109     1.0  0.90305  0.47822  0.36660  1.0000
  Fe  Fe546     1.0  0.98445  0.22417  0.44179  1.0000
  H   H6557     1.0  0.74574  0.07940  0.47374  1.0000
  C   C3831     1.0  0.95433  0.18492  0.42098  1.0000
  C   C3832     1.0  0.75651  0.03255  0.46887  1.0000
  H   H6558     1.0  0.85292  0.09452  0.46479  1.0000
  C   C3833     1.0  0.94932  0.32175  0.42171  1.0000
  H   H6559     1.0  0.91877  0.17314  0.47069  1.0000
  Fe  Fe547     1.0  0.90841  0.30783  0.45246  1.0000
  H   H6560     1.0  0.94755  0.25588  0.45695  1.0000
  C   C3834     1.0  0.91887  0.15201  0.45034  1.0000
  H   H6561     1.0  0.94272  0.14304  0.45818  1.0000
  C   C3835     1.0  0.74276  0.08769  0.40298  1.0000
  S   S1110     1.0  0.90139  0.21531  0.45205  1.0000
  H   H6562     1.0  0.90776  0.27180  0.43383  1.0000
  C   C3836     1.0  0.95101  0.26546  0.41916  1.0000
  H   H6563     1.0  0.80650  0.03301  0.46394  1.0000
  C   C3837     1.0  0.89424  0.46603  0.31912  1.0000
  H   H6564     1.0  0.75164  0.06710  0.40471  1.0000
  H   H6565     1.0  0.85568  0.41999  0.30062  1.0000
  C   C3838     1.0  0.96223  0.29353  0.44253  1.0000
  H   H6566     1.0  0.89056  0.33405  0.46022  1.0000
  H   H6567     1.0  0.93268  0.25199  0.43375  1.0000
  H   H6568     1.0  0.77877  0.09105  0.38415  1.0000
  S   S1111     1.0  0.96732  0.19656  0.47181  1.0000
  C   C3839     1.0  0.95914  0.11586  0.48174  1.0000
  H   H6569     1.0  0.96727  0.27813  0.48299  1.0000
  H   H6570     1.0  0.97118  0.38421  0.47976  1.0000
  H   H6571     1.0  0.91021  0.13445  0.47286  1.0000
  H   H6572     1.0  0.85331  0.43439  0.29723  1.0000
  H   H6573     1.0  0.96035  0.28343  0.47219  1.0000
  H   H6574     1.0  0.95989  0.17704  0.43650  1.0000
  Fe  Fe548     1.0  0.97355  0.40825  0.43736  1.0000
  H   H6575     1.0  0.97258  0.33656  0.46302  1.0000
  C   C3840     1.0  0.76881  0.07568  0.47416  1.0000
  H   H6576     1.0  0.94850  0.18366  0.41694  1.0000
  C   C3841     1.0  0.74113  0.02542  0.40148  1.0000
  H   H6577     1.0  0.74190  0.07425  0.46444  1.0000
  C   C3842     1.0  0.76244  0.08686  0.47703  1.0000
  C   C3843     1.0  0.88976  0.47354  0.29809  1.0000
  C   C3844     1.0  0.95725  0.33463  0.45310  1.0000
  H   H6578     1.0  0.98143  0.24700  0.41704  1.0000
  H   H6579     1.0  0.77553  0.05578  0.40468  1.0000
  C   C3845     1.0  0.95547  0.34554  0.46666  1.0000
  H   H6580     1.0  0.95875  0.18835  0.39894  1.0000
  H   H6581     1.0  0.82565  0.12725  0.44944  1.0000
  S   S1112     1.0  0.75291  0.04976  0.43178  1.0000
  C   C3846     1.0  0.97703  0.43901  0.39321  1.0000
  S   S1113     1.0  0.97542  0.46034  0.30199  1.0000
  C   C3847     1.0  0.83391  0.12575  0.45092  1.0000
  H   H6582     1.0  0.86678  0.18500  0.46266  1.0000
  C   C3848     1.0  0.97605  0.09585  0.47833  1.0000
  H   H6583     1.0  0.93284  0.46983  0.36009  1.0000
  H   H6584     1.0  0.89902  0.29562  0.40413  1.0000
  H   H6585     1.0  0.86697  0.35752  0.45348  1.0000
  H   H6586     1.0  0.83959  0.12597  0.44271  1.0000
  H   H6587     1.0  0.89310  0.28459  0.42249  1.0000
  H   H6588     1.0  0.85907  0.28958  0.41403  1.0000
  C   C3849     1.0  0.95064  0.24619  0.42921  1.0000
  C   C3850     1.0  0.96184  0.20757  0.47838  1.0000
  C   C3851     1.0  0.86789  0.30135  0.44201  1.0000
  H   H6589     1.0  0.94212  0.31799  0.42523  1.0000
  H   H6590     1.0  0.95123  0.21641  0.46732  1.0000
  H   H6591     1.0  0.80466  0.02802  0.47859  1.0000
  C   C3852     1.0  0.88645  0.43297  0.28406  1.0000
  C   C3853     1.0  0.86738  0.29918  0.41914  1.0000
  C   C3854     1.0  0.93086  0.15905  0.45660  1.0000
  C   C3855     1.0  0.81045  0.07959  0.47413  1.0000
  H   H6592     1.0  0.95750  0.35310  0.46069  1.0000
  H   H6593     1.0  0.93880  0.24326  0.44488  1.0000
  H   H6594     1.0  0.93149  0.44549  0.35987  1.0000
  H   H6595     1.0  0.74690  0.00323  0.43937  1.0000
  Fe  Fe549     1.0  0.97888  0.30611  0.44587  1.0000
  C   C3856     1.0  0.92368  0.39035  0.47540  1.0000
  H   H6596     1.0  0.91542  0.41321  0.44584  1.0000
  H   H6597     1.0  0.88346  0.26817  0.42553  1.0000
  N   N275      1.0  0.76301  0.07795  0.39706  1.0000
  C   C3857     1.0  0.97410  0.14015  0.47471  1.0000
  H   H6598     1.0  0.77163  0.99019  0.41631  1.0000
  C   C3858     1.0  0.84102  0.17091  0.46804  1.0000
  C   C3859     1.0  0.76445  0.07780  0.38517  1.0000
  C   C3860     1.0  0.88967  0.39822  0.46984  1.0000
  H   H6599     1.0  0.94815  0.10919  0.42500  1.0000
  H   H6600     1.0  0.92735  0.33849  0.44290  1.0000
  H   H6601     1.0  0.97950  0.17802  0.46203  1.0000
  C   C3861     1.0  0.90491  0.23634  0.48220  1.0000
  H   H6602     1.0  0.78039  0.07163  0.39569  1.0000
  C   C3862     1.0  0.75077  0.00183  0.43097  1.0000
  H   H6603     1.0  0.77187  0.00327  0.40683  1.0000
  Fe  Fe550     1.0  0.88843  0.46150  0.25501  1.0000
  H   H6604     1.0  0.96829  0.33749  0.43718  1.0000
  H   H6605     1.0  0.91924  0.38995  0.46952  1.0000
  H   H6606     1.0  0.77186  0.07170  0.38238  1.0000
  H   H6607     1.0  0.88621  0.11581  0.48011  1.0000
  H   H6608     1.0  0.97027  0.08289  0.41573  1.0000
  C   C3863     1.0  0.82903  0.11897  0.47798  1.0000
  C   C3864     1.0  0.97158  0.19003  0.41809  1.0000
  H   H6609     1.0  0.85975  0.15509  0.44321  1.0000
  H   H6610     1.0  0.79071  0.01143  0.47362  1.0000
  C   C3865     1.0  0.81214  0.01533  0.46890  1.0000
  Fe  Fe551     1.0  0.98589  0.11649  0.44323  1.0000
  H   H6611     1.0  0.94233  0.33454  0.40305  1.0000
  H   H6612     1.0  0.87263  0.16561  0.47309  1.0000
  C   C3866     1.0  0.93062  0.33439  0.43586  1.0000
  S   S1114     1.0  0.97782  0.48352  0.25351  1.0000
  Fe  Fe552     1.0  0.90897  0.46806  0.25399  1.0000
  H   H6613     1.0  0.90184  0.15943  0.44923  1.0000
  H   H6614     1.0  0.79538  0.99752  0.47281  1.0000
  H   H6615     1.0  0.82334  0.11384  0.44378  1.0000
  H   H6616     1.0  0.93832  0.40877  0.46978  1.0000
  H   H6617     1.0  0.94830  0.41304  0.43051  1.0000
  H   H6618     1.0  0.94393  0.35531  0.45143  1.0000
  C   C3867     1.0  0.92711  0.46231  0.31502  1.0000
  H   H6619     1.0  0.93688  0.34519  0.45290  1.0000
  S   S1115     1.0  0.89270  0.30736  0.44919  1.0000
  C   C3868     1.0  0.90404  0.34636  0.45531  1.0000
  C   C3869     1.0  0.93209  0.34903  0.40802  1.0000
  H   H6620     1.0  0.92559  0.41536  0.41582  1.0000
  H   H6621     1.0  0.91579  0.46113  0.30652  1.0000
  H   H6622     1.0  0.92930  0.45384  0.30248  1.0000
  C   C3870     1.0  0.75237  0.04246  0.48338  1.0000
  H   H6623     1.0  0.77723  0.07485  0.47495  1.0000
  H   H6624     1.0  0.85397  0.11281  0.45203  1.0000
  H   H6625     1.0  0.95630  0.23874  0.43268  1.0000
  H   H6626     1.0  0.74746  0.02735  0.39437  1.0000
  C   C3871     1.0  0.76754  0.05677  0.40284  1.0000
  H   H6627     1.0  0.75722  0.01899  0.43955  1.0000
  C   C3872     1.0  0.79774  0.00564  0.46987  1.0000
  H   H6628     1.0  0.92249  0.46982  0.31807  1.0000
  H   H6629     1.0  0.93595  0.46131  0.31405  1.0000
  C   C3873     1.0  0.94452  0.44306  0.23507  1.0000
  H   H6630     1.0  0.90906  0.23213  0.46148  1.0000
  S   S1116     1.0  0.96257  0.30530  0.45681  1.0000
  C   C3874     1.0  0.96128  0.10072  0.44040  1.0000
  N   N276      1.0  0.76901  0.07412  0.46301  1.0000
  C   C3875     1.0  0.77892  0.06539  0.45989  1.0000
  C   C3876     1.0  0.76978  0.08440  0.45411  1.0000
  H   H6631     1.0  0.97685  0.07193  0.42543  1.0000
  C   C3877     1.0  0.77911  0.05366  0.46703  1.0000
  C   C3878     1.0  0.78021  0.08863  0.45180  1.0000
  H   H6632     1.0  0.96224  0.20851  0.40466  1.0000
  H   H6633     1.0  0.78006  0.06483  0.45122  1.0000
  H   H6634     1.0  0.78636  0.06754  0.46033  1.0000
  H   H6635     1.0  0.82112  0.12450  0.48056  1.0000
  C   C3879     1.0  0.82831  0.11353  0.46909  1.0000
  H   H6636     1.0  0.83511  0.17291  0.47557  1.0000
  H   H6637     1.0  0.77724  0.05349  0.47593  1.0000
  S   S1117     1.0  0.89132  0.48716  0.32186  1.0000
  H   H6638     1.0  0.78724  0.08340  0.44726  1.0000
  H   H6639     1.0  0.77919  0.09700  0.44643  1.0000
  H   H6640     1.0  0.78210  0.08913  0.45941  1.0000
  C   C3880     1.0  0.94106  0.15086  0.45210  1.0000
  H   H6641     1.0  0.91200  0.16262  0.48019  1.0000
  C   C3881     1.0  0.91335  0.41432  0.46283  1.0000
  C   C3882     1.0  0.90249  0.31620  0.47599  1.0000
  H   H6642     1.0  0.89248  0.30474  0.41314  1.0000
  Fe  Fe553     1.0  0.97486  0.20436  0.45484  1.0000
  C   C3883     1.0  0.88911  0.25750  0.45067  1.0000
  C   C3884     1.0  0.89874  0.24914  0.43513  1.0000
  S   S1118     1.0  0.90784  0.29557  0.42867  1.0000
  H   H6643     1.0  0.85985  0.45712  0.27671  1.0000
  C   C3885     1.0  0.77013  0.99727  0.47786  1.0000
  H   H6644     1.0  0.82579  0.98870  0.48206  1.0000
  C   C3886     1.0  0.91874  0.42099  0.47593  1.0000
  H   H6645     1.0  0.93655  0.40145  0.40519  1.0000
  H   H6646     1.0  0.93410  0.41234  0.43451  1.0000
  C   C3887     1.0  0.89926  0.38286  0.48152  1.0000
  H   H6647     1.0  0.75842  0.06259  0.46979  1.0000
  C   C3888     1.0  0.89509  0.26574  0.44666  1.0000
  H   H6648     1.0  0.91893  0.42896  0.46989  1.0000
  H   H6649     1.0  0.95211  0.09761  0.41846  1.0000
  H   H6650     1.0  0.79572  0.02651  0.47102  1.0000
  H   H6651     1.0  0.96681  0.48356  0.30198  1.0000
  S   S1119     1.0  0.87929  0.21958  0.44321  1.0000
  H   H6652     1.0  0.77244  0.01265  0.44991  1.0000
  Fe  Fe554     1.0  0.89587  0.38381  0.42325  1.0000
  N   N277      1.0  0.96793  0.09497  0.43127  1.0000
  H   H6653     1.0  0.95695  0.34862  0.43868  1.0000
  H   H6654     1.0  0.96323  0.07292  0.42439  1.0000
  C   C3889     1.0  0.94348  0.40564  0.40253  1.0000
  H   H6655     1.0  0.98589  0.16098  0.43367  1.0000
  H   H6656     1.0  0.75627  0.09006  0.40715  1.0000
  C   C3890     1.0  0.87530  0.35900  0.45006  1.0000
  Fe  Fe555     1.0  0.90054  0.31271  0.43151  1.0000
  H   H6657     1.0  0.83929  0.09772  0.45732  1.0000
  N   N278      1.0  0.94312  0.41177  0.41098  1.0000
  C   C3891     1.0  0.93234  0.41981  0.41274  1.0000
  H   H6658     1.0  0.81943  0.10534  0.45738  1.0000
  C   C3892     1.0  0.89636  0.38769  0.47137  1.0000
  C   C3893     1.0  0.96625  0.25403  0.42712  1.0000
  H   H6659     1.0  0.93090  0.37891  0.45617  1.0000
  C   C3894     1.0  0.96368  0.19187  0.40219  1.0000
  C   C3895     1.0  0.93685  0.32636  0.46852  1.0000
  S   S1120     1.0  0.97165  0.48754  0.27861  1.0000
  H   H6660     1.0  0.92131  0.15799  0.44258  1.0000
  C   C3896     1.0  0.90304  0.26556  0.43694  1.0000
  H   H6661     1.0  0.96406  0.41918  0.39223  1.0000
  H   H6662     1.0  0.89362  0.36241  0.45538  1.0000
  H   H6663     1.0  0.92928  0.42570  0.39587  1.0000
  H   H6664     1.0  0.86747  0.33978  0.45627  1.0000
  Fe  Fe556     1.0  0.89584  0.22332  0.43642  1.0000
  C   C3897     1.0  0.90476  0.25736  0.43112  1.0000
  S   S1121     1.0  0.97637  0.19796  0.44017  1.0000
  C   C3898     1.0  0.93075  0.20701  0.43216  1.0000
  H   H6665     1.0  0.85364  0.44561  0.27910  1.0000
  C   C3899     1.0  0.92965  0.42894  0.40276  1.0000
  H   H6666     1.0  0.94235  0.41118  0.39457  1.0000
  H   H6667     1.0  0.93174  0.42427  0.41912  1.0000
  H   H6668     1.0  0.92143  0.43398  0.40532  1.0000
  H   H6669     1.0  0.87359  0.42054  0.29745  1.0000
  H   H6670     1.0  0.91215  0.42315  0.45852  1.0000
  H   H6671     1.0  0.96090  0.44712  0.41636  1.0000
  H   H6672     1.0  0.87141  0.16510  0.44630  1.0000
  C   C3900     1.0  0.92478  0.22140  0.45966  1.0000
  C   C3901     1.0  0.86926  0.17821  0.45820  1.0000
  H   H6673     1.0  0.93766  0.27661  0.41234  1.0000
  H   H6674     1.0  0.95119  0.24530  0.42077  1.0000
  H   H6675     1.0  0.98612  0.19616  0.41513  1.0000
  H   H6676     1.0  0.91073  0.25739  0.42346  1.0000
  C   C3902     1.0  0.85631  0.16332  0.44522  1.0000
  H   H6677     1.0  0.88715  0.33936  0.44736  1.0000
  C   C3903     1.0  0.95721  0.29052  0.43598  1.0000
  Fe  Fe557     1.0  0.96362  0.48339  0.26765  1.0000
  H   H6678     1.0  0.96491  0.26309  0.47739  1.0000
  S   S1122     1.0  0.88458  0.37613  0.41914  1.0000
  C   C3904     1.0  0.89719  0.34302  0.42322  1.0000
  C   C3905     1.0  0.95242  0.41747  0.40811  1.0000
  H   H6679     1.0  0.95064  0.42361  0.41325  1.0000
  S   S1123     1.0  0.96520  0.14481  0.46581  1.0000
  H   H6680     1.0  0.87088  0.33511  0.46972  1.0000
  H   H6681     1.0  0.90788  0.14771  0.44336  1.0000
  C   C3906     1.0  0.91139  0.16491  0.46282  1.0000
  H   H6682     1.0  0.84783  0.16348  0.44967  1.0000
  H   H6683     1.0  0.87644  0.13602  0.47401  1.0000
  C   C3907     1.0  0.85192  0.10187  0.46800  1.0000
  C   C3908     1.0  0.94063  0.34853  0.45755  1.0000
  H   H6684     1.0  0.95984  0.41147  0.41027  1.0000
  S   S1124     1.0  0.90745  0.37387  0.43379  1.0000
  C   C3909     1.0  0.89609  0.35431  0.42255  1.0000
  H   H6685     1.0  0.87773  0.35719  0.44171  1.0000
  Fe  Fe558     1.0  0.98624  0.13915  0.42833  1.0000
  H   H6686     1.0  0.98139  0.09966  0.43400  1.0000
  C   C3910     1.0  0.86334  0.16515  0.45198  1.0000
  H   H6687     1.0  0.86841  0.37594  0.44295  1.0000
  H   H6688     1.0  0.93887  0.34741  0.42729  1.0000
  C   C3911     1.0  0.92115  0.14557  0.46969  1.0000
  C   C3912     1.0  0.91599  0.40756  0.45395  1.0000
  H   H6689     1.0  0.81887  0.99803  0.45982  1.0000
  H   H6690     1.0  0.95655  0.43183  0.39574  1.0000
  C   C3913     1.0  0.98224  0.19285  0.41056  1.0000
  S   S1125     1.0  0.88587  0.47407  0.35462  1.0000
  H   H6691     1.0  0.88059  0.16186  0.46033  1.0000
  H   H6692     1.0  0.96328  0.35272  0.40634  1.0000
  C   C3914     1.0  0.95584  0.42343  0.39599  1.0000
  H   H6693     1.0  0.94401  0.41823  0.45015  1.0000
  H   H6694     1.0  0.93096  0.22114  0.47782  1.0000
  H   H6695     1.0  0.93733  0.32733  0.45969  1.0000
  H   H6696     1.0  0.90418  0.33712  0.42564  1.0000
  H   H6697     1.0  0.83715  0.17600  0.46122  1.0000
  H   H6698     1.0  0.92223  0.24560  0.47549  1.0000
  H   H6699     1.0  0.86453  0.15766  0.45863  1.0000
  H   H6700     1.0  0.87813  0.36172  0.46911  1.0000
  H   H6701     1.0  0.89731  0.44976  0.31611  1.0000
  H   H6702     1.0  0.94031  0.26249  0.44113  1.0000
  C   C3915     1.0  0.89137  0.47734  0.31483  1.0000
  C   C3916     1.0  0.76217  0.99716  0.47118  1.0000
  S   S1126     1.0  0.89485  0.45282  0.29396  1.0000
  N   N279      1.0  0.85949  0.17540  0.45660  1.0000
  H   H6703     1.0  0.98088  0.19934  0.40315  1.0000
  H   H6704     1.0  0.95880  0.33707  0.40396  1.0000
  H   H6705     1.0  0.93607  0.26278  0.41694  1.0000
  C   C3917     1.0  0.93292  0.41044  0.46400  1.0000
  H   H6706     1.0  0.92963  0.21416  0.46439  1.0000
  H   H6707     1.0  0.92460  0.45884  0.27441  1.0000
  S   S1127     1.0  0.89210  0.27633  0.45377  1.0000
  H   H6708     1.0  0.97154  0.19156  0.39608  1.0000
  S   S1128     1.0  0.91155  0.47245  0.34193  1.0000
  S   S1129     1.0  0.96585  0.42570  0.43017  1.0000
  C   C3918     1.0  0.93228  0.19924  0.44184  1.0000
  S   S1130     1.0  0.89168  0.19405  0.45325  1.0000
  C   C3919     1.0  0.94091  0.19863  0.44641  1.0000
  C   C3920     1.0  0.97030  0.43067  0.41594  1.0000
  H   H6709     1.0  0.96137  0.39994  0.39834  1.0000
  H   H6710     1.0  0.84680  0.20232  0.44550  1.0000
  H   H6711     1.0  0.90224  0.35707  0.42443  1.0000
  Fe  Fe559     1.0  0.90219  0.46535  0.35860  1.0000
  C   C3921     1.0  0.89228  0.31428  0.47703  1.0000
  H   H6712     1.0  0.95498  0.26288  0.41126  1.0000
  H   H6713     1.0  0.95449  0.20537  0.44496  1.0000
  H   H6714     1.0  0.94597  0.17776  0.43725  1.0000
  S   S1131     1.0  0.90303  0.45254  0.26213  1.0000
  H   H6715     1.0  0.96899  0.24724  0.43383  1.0000
  H   H6716     1.0  0.90989  0.40251  0.45579  1.0000
  S   S1132     1.0  0.93970  0.29122  0.42815  1.0000
  S   S1133     1.0  0.96750  0.22159  0.44764  1.0000
  H   H6717     1.0  0.96206  0.28580  0.42992  1.0000
  H   H6718     1.0  0.96290  0.10906  0.43874  1.0000
  N   N280      1.0  0.95406  0.25651  0.42876  1.0000
  H   H6719     1.0  0.96900  0.26128  0.42750  1.0000
  Fe  Fe560     1.0  0.92195  0.29699  0.43423  1.0000
  H   H6720     1.0  0.97088  0.29102  0.44162  1.0000
  C   C3922     1.0  0.83677  0.10614  0.45252  1.0000
  C   C3923     1.0  0.89494  0.45849  0.31284  1.0000
  H   H6721     1.0  0.85019  0.18028  0.47191  1.0000
  N   N281      1.0  0.92032  0.15525  0.46005  1.0000
  S   S1134     1.0  0.91542  0.31469  0.43492  1.0000
  C   C3924     1.0  0.91936  0.48187  0.29753  1.0000
  C   C3925     1.0  0.92439  0.46184  0.30442  1.0000
  C   C3926     1.0  0.97162  0.48037  0.32725  1.0000
  C   C3927     1.0  0.95316  0.25335  0.44950  1.0000
  Fe  Fe561     1.0  0.90171  0.38747  0.44294  1.0000
  C   C3928     1.0  0.96282  0.34240  0.44314  1.0000
  H   H6722     1.0  0.98063  0.10882  0.48213  1.0000
  S   S1135     1.0  0.87690  0.21174  0.47538  1.0000
  H   H6723     1.0  0.95400  0.31923  0.42830  1.0000
  H   H6724     1.0  0.96289  0.33381  0.41663  1.0000
  C   C3929     1.0  0.96916  0.47944  0.30967  1.0000
  H   H6725     1.0  0.88055  0.41190  0.47734  1.0000
  H   H6726     1.0  0.93368  0.27139  0.42667  1.0000
  H   H6727     1.0  0.89541  0.35724  0.44354  1.0000
  N   N282      1.0  0.94961  0.33997  0.46211  1.0000
  C   C3930     1.0  0.93147  0.35402  0.46602  1.0000
  C   C3931     1.0  0.97159  0.17373  0.41215  1.0000
  H   H6728     1.0  0.95537  0.08573  0.43505  1.0000
  C   C3932     1.0  0.93887  0.26913  0.41897  1.0000
  H   H6729     1.0  0.94199  0.19282  0.45403  1.0000
  H   H6730     1.0  0.92468  0.14714  0.47582  1.0000
  H   H6731     1.0  0.96437  0.31792  0.40923  1.0000
  H   H6732     1.0  0.88732  0.40197  0.46205  1.0000
  H   H6733     1.0  0.84517  0.19603  0.45981  1.0000
  C   C3933     1.0  0.91426  0.22655  0.46707  1.0000
  H   H6734     1.0  0.75036  0.07016  0.38810  1.0000
  H   H6735     1.0  0.77158  0.02058  0.46758  1.0000
  H   H6736     1.0  0.89149  0.43053  0.26696  1.0000
  H   H6737     1.0  0.98180  0.08538  0.43827  1.0000
  H   H6738     1.0  0.90440  0.17565  0.47437  1.0000
  H   H6739     1.0  0.82760  0.13717  0.46218  1.0000
  C   C3934     1.0  0.96644  0.44173  0.41122  1.0000
  N   N283      1.0  0.96529  0.18513  0.41333  1.0000
  Fe  Fe562     1.0  0.90091  0.29025  0.44666  1.0000
  H   H6740     1.0  0.96130  0.25424  0.44950  1.0000
  H   H6741     1.0  0.84285  0.10680  0.44460  1.0000
  C   C3935     1.0  0.75484  0.08810  0.39992  1.0000
  H   H6742     1.0  0.87165  0.17960  0.48393  1.0000
  C   C3936     1.0  0.88700  0.20908  0.48267  1.0000
  H   H6743     1.0  0.88983  0.44046  0.28169  1.0000
  H   H6744     1.0  0.95750  0.20827  0.39317  1.0000
  H   H6745     1.0  0.89791  0.19698  0.47391  1.0000
  C   C3937     1.0  0.77777  0.08908  0.39319  1.0000
  H   H6746     1.0  0.95398  0.39402  0.39271  1.0000
  H   H6747     1.0  0.93030  0.16679  0.45012  1.0000
  C   C3938     1.0  0.96438  0.08439  0.43321  1.0000
  C   C3939     1.0  0.94514  0.33116  0.47114  1.0000
  H   H6748     1.0  0.82720  0.09930  0.44610  1.0000
  H   H6749     1.0  0.94818  0.15458  0.45025  1.0000
  H   H6750     1.0  0.97374  0.18436  0.42570  1.0000
  H   H6751     1.0  0.78586  0.08809  0.39488  1.0000
  H   H6752     1.0  0.97377  0.16859  0.41997  1.0000
  H   H6753     1.0  0.88789  0.47655  0.29004  1.0000
  H   H6754     1.0  0.89650  0.24785  0.46955  1.0000
  S   S1136     1.0  0.98525  0.23896  0.44724  1.0000
  H   H6755     1.0  0.94177  0.29204  0.47465  1.0000
  H   H6756     1.0  0.74769  0.08597  0.45910  1.0000
  H   H6757     1.0  0.97342  0.16651  0.46837  1.0000
  S   S1137     1.0  0.90179  0.47567  0.26860  1.0000
  H   H6758     1.0  0.95389  0.11096  0.41073  1.0000
  H   H6759     1.0  0.94942  0.20490  0.40664  1.0000
  H   H6760     1.0  0.79026  0.00992  0.45585  1.0000
  H   H6761     1.0  0.93230  0.32543  0.43943  1.0000
  H   H6762     1.0  0.93569  0.44600  0.23754  1.0000
  C   C3940     1.0  0.97523  0.46894  0.32974  1.0000
  H   H6763     1.0  0.98584  0.27758  0.44000  1.0000
  H   H6764     1.0  0.75558  0.09109  0.47302  1.0000
  H   H6765     1.0  0.96477  0.12106  0.47609  1.0000
  H   H6766     1.0  0.97963  0.17402  0.40646  1.0000
  C   C3941     1.0  0.97447  0.45882  0.23912  1.0000
  C   C3942     1.0  0.91074  0.14138  0.47598  1.0000
  N   N284      1.0  0.91572  0.23221  0.47508  1.0000
  H   H6767     1.0  0.84201  0.16207  0.46829  1.0000
  H   H6768     1.0  0.74210  0.04511  0.47207  1.0000
  C   C3943     1.0  0.95050  0.22579  0.47892  1.0000
  H   H6769     1.0  0.96787  0.11076  0.41990  1.0000
  H   H6770     1.0  0.97149  0.09379  0.45277  1.0000
  H   H6771     1.0  0.85581  0.16630  0.47329  1.0000
  H   H6772     1.0  0.93017  0.23831  0.46556  1.0000
  C   C3944     1.0  0.97237  0.14519  0.48343  1.0000
  C   C3945     1.0  0.85927  0.14187  0.47962  1.0000
  C   C3946     1.0  0.98125  0.16894  0.46419  1.0000
  H   H6773     1.0  0.93446  0.35901  0.46973  1.0000
  C   C3947     1.0  0.98292  0.13134  0.47317  1.0000
  C   C3948     1.0  0.87020  0.14020  0.47980  1.0000
  H   H6774     1.0  0.95012  0.34852  0.47402  1.0000
  Fe  Fe563     1.0  0.97647  0.46920  0.28417  1.0000
  C   C3949     1.0  0.95432  0.10513  0.41877  1.0000
  H   H6775     1.0  0.74629  0.01361  0.47817  1.0000
  C   C3950     1.0  0.82826  0.08169  0.47382  1.0000
  H   H6776     1.0  0.76801  0.09245  0.47538  1.0000
  H   H6777     1.0  0.97058  0.09003  0.48173  1.0000
  H   H6778     1.0  0.94661  0.43474  0.24032  1.0000
  S   S1138     1.0  0.98402  0.33744  0.41562  1.0000
  H   H6779     1.0  0.97044  0.29559  0.47731  1.0000
  H   H6780     1.0  0.90315  0.14770  0.47586  1.0000
  Fe  Fe564     1.0  0.74023  0.04777  0.42448  1.0000
  H   H6781     1.0  0.98447  0.09091  0.47647  1.0000
  C   C3951     1.0  0.98399  0.40722  0.47461  1.0000
  H   H6782     1.0  0.83525  0.12391  0.47549  1.0000
  C   C3952     1.0  0.75982  0.06775  0.40481  1.0000
  C   C3953     1.0  0.91182  0.16918  0.47261  1.0000
  H   H6783     1.0  0.95180  0.32416  0.47352  1.0000
  H   H6784     1.0  0.97933  0.26075  0.45048  1.0000
  H   H6785     1.0  0.91121  0.40192  0.48313  1.0000
  C   C3954     1.0  0.98571  0.45723  0.23713  1.0000
  Fe  Fe565     1.0  0.80645  0.99156  0.43472  1.0000
  C   C3955     1.0  0.90766  0.42275  0.48408  1.0000
  H   H6786     1.0  0.96893  0.34304  0.47435  1.0000
  H   H6787     1.0  0.91258  0.32080  0.48365  1.0000
  H   H6788     1.0  0.86966  0.10522  0.48217  1.0000
  H   H6789     1.0  0.90445  0.37472  0.48272  1.0000
  H   H6790     1.0  0.94488  0.23288  0.47551  1.0000
  Fe  Fe566     1.0  0.98276  0.46557  0.26056  1.0000
  H   H6791     1.0  0.98419  0.16568  0.45659  1.0000
  H   H6792     1.0  0.92845  0.32980  0.47260  1.0000
  H   H6793     1.0  0.93847  0.18167  0.48151  1.0000
  C   C3956     1.0  0.88583  0.40381  0.47851  1.0000
  H   H6794     1.0  0.97848  0.37345  0.42357  1.0000
  H   H6795     1.0  0.89058  0.34926  0.47855  1.0000
  H   H6796     1.0  0.94105  0.33442  0.47867  1.0000
  H   H6797     1.0  0.98191  0.40993  0.46665  1.0000
  H   H6798     1.0  0.74072  0.08226  0.41117  1.0000
  H   H6799     1.0  0.77642  0.02394  0.48328  1.0000
  C   C3957     1.0  0.74048  0.00423  0.46436  1.0000
  H   H6800     1.0  0.90077  0.42376  0.48030  1.0000
  H   H6801     1.0  0.74020  0.08511  0.39688  1.0000
  C   C3958     1.0  0.98148  0.41469  0.48144  1.0000
  Fe  Fe567     1.0  0.97866  0.46244  0.37295  1.0000
  Fe  Fe568     1.0  0.98499  0.39222  0.45501  1.0000
  H   H6802     1.0  0.94883  0.37119  0.48301  1.0000
  H   H6803     1.0  0.94610  0.12911  0.47670  1.0000
  H   H6804     1.0  0.94643  0.39106  0.48058  1.0000
  C   C3959     1.0  0.95927  0.27935  0.48109  1.0000
  H   H6805     1.0  0.94156  0.19354  0.48318  1.0000
  C   C3960     1.0  0.96638  0.37806  0.48098  1.0000
  H   H6806     1.0  0.92503  0.41988  0.48064  1.0000
  C   C3961     1.0  0.95766  0.26770  0.48233  1.0000
  H   H6807     1.0  0.98473  0.16489  0.48019  1.0000
  H   H6808     1.0  0.97107  0.36070  0.47976  1.0000
  H   H6809     1.0  0.97783  0.46489  0.33736  1.0000
  H   H6810     1.0  0.73777  0.09603  0.40367  1.0000
  H   H6811     1.0  0.85064  0.11547  0.48402  1.0000
  H   H6812     1.0  0.77411  0.98893  0.48171  1.0000
  H   H6813     1.0  0.73847  0.98887  0.47497  1.0000
  H   H6814     1.0  0.86746  0.11858  0.48432  1.0000
  H   H6815     1.0  0.81093  0.05681  0.48415  1.0000
  H   H6816     1.0  0.76616  0.00218  0.48423  1.0000
  H   H6817     1.0  0.95783  0.44859  0.65495  1.0000
  Fe  Fe569     1.0  0.96432  0.40959  0.53906  1.0000
  C   C3962     1.0  0.94327  0.18444  0.48561  1.0000
  S   S1139     1.0  0.94633  0.41257  0.54471  1.0000
  H   H6818     1.0  0.74649  0.01133  0.49225  1.0000
  S   S1140     1.0  0.97658  0.40277  0.54961  1.0000
  H   H6819     1.0  0.78216  0.08827  0.56815  1.0000
  S   S1141     1.0  0.97285  0.39930  0.52664  1.0000
  C   C3963     1.0  0.88882  0.39900  0.48864  1.0000
  Fe  Fe570     1.0  0.91582  0.40430  0.51280  1.0000
  S   S1142     1.0  0.89921  0.41468  0.51661  1.0000
  S   S1143     1.0  0.92993  0.41205  0.50416  1.0000
  Fe  Fe571     1.0  0.90863  0.38271  0.52438  1.0000
  S   S1144     1.0  0.89131  0.39143  0.52939  1.0000
  S   S1145     1.0  0.91663  0.36472  0.52699  1.0000
  Fe  Fe572     1.0  0.89422  0.40159  0.51202  1.0000
  S   S1146     1.0  0.88395  0.40612  0.49942  1.0000
  Fe  Fe573     1.0  0.89821  0.40366  0.53343  1.0000
  S   S1147     1.0  0.89523  0.40921  0.54938  1.0000
  S   S1148     1.0  0.91111  0.39214  0.50694  1.0000
  S   S1149     1.0  0.91522  0.39387  0.52971  1.0000
  C   C3964     1.0  0.78764  0.10046  0.54262  1.0000
  N   N285      1.0  0.87204  0.10564  0.49789  1.0000
  H   H6820     1.0  0.96868  0.29208  0.49205  1.0000
  H   H6821     1.0  0.85929  0.25818  0.54782  1.0000
  C   C3965     1.0  0.97529  0.35253  0.53557  1.0000
  Fe  Fe574     1.0  0.96909  0.12316  0.53244  1.0000
  S   S1150     1.0  0.97078  0.13782  0.51874  1.0000
  S   S1151     1.0  0.95436  0.11581  0.53682  1.0000
  S   S1152     1.0  0.97399  0.48451  0.60004  1.0000
  H   H6822     1.0  0.95141  0.10419  0.51441  1.0000
  Fe  Fe575     1.0  0.97575  0.14445  0.53023  1.0000
  S   S1153     1.0  0.96681  0.16173  0.53152  1.0000
  H   H6823     1.0  0.96226  0.36772  0.50467  1.0000
  S   S1154     1.0  0.97286  0.13032  0.54443  1.0000
  Fe  Fe576     1.0  0.90226  0.13168  0.51667  1.0000
  S   S1155     1.0  0.89105  0.14750  0.51987  1.0000
  S   S1156     1.0  0.91926  0.13319  0.50752  1.0000
  Fe  Fe577     1.0  0.88454  0.11861  0.52711  1.0000
  S   S1157     1.0  0.87189  0.13341  0.53126  1.0000
  S   S1158     1.0  0.88205  0.10122  0.53056  1.0000
  Fe  Fe578     1.0  0.87910  0.14212  0.51442  1.0000
  S   S1159     1.0  0.86846  0.15487  0.50405  1.0000
  Fe  Fe579     1.0  0.88492  0.13762  0.53636  1.0000
  S   S1160     1.0  0.88160  0.14389  0.55174  1.0000
  S   S1161     1.0  0.89078  0.12709  0.50967  1.0000
  S   S1162     1.0  0.89708  0.12203  0.53374  1.0000
  H   H6824     1.0  0.94355  0.17658  0.55833  1.0000
  S   S1163     1.0  0.95984  0.24766  0.51419  1.0000
  C   C3966     1.0  0.93365  0.35762  0.54921  1.0000
  Fe  Fe580     1.0  0.97911  0.21858  0.51452  1.0000
  S   S1164     1.0  0.96105  0.22115  0.51962  1.0000
  H   H6825     1.0  0.95685  0.29528  0.56305  1.0000
  Fe  Fe581     1.0  0.96076  0.23512  0.50501  1.0000
  S   S1165     1.0  0.94987  0.23756  0.49366  1.0000
  Fe  Fe582     1.0  0.96183  0.23333  0.52837  1.0000
  S   S1166     1.0  0.95129  0.23317  0.54527  1.0000
  C   C3967     1.0  0.74676  0.99618  0.48771  1.0000
  H   H6826     1.0  0.95395  0.09757  0.49264  1.0000
  Fe  Fe583     1.0  0.97110  0.33508  0.52239  1.0000
  S   S1167     1.0  0.97320  0.34266  0.50440  1.0000
  S   S1168     1.0  0.96646  0.34454  0.53572  1.0000
  H   H6827     1.0  0.91470  0.47737  0.60841  1.0000
  H   H6828     1.0  0.97404  0.20477  0.55336  1.0000
  H   H6829     1.0  0.88849  0.36182  0.49113  1.0000
  H   H6830     1.0  0.90248  0.22961  0.48914  1.0000
  C   C3968     1.0  0.79024  0.06118  0.49854  1.0000
  Fe  Fe584     1.0  0.96274  0.33177  0.50420  1.0000
  S   S1169     1.0  0.94826  0.33654  0.49668  1.0000
  H   H6831     1.0  0.87153  0.48060  0.68601  1.0000
  S   S1170     1.0  0.95939  0.32559  0.52236  1.0000
  Fe  Fe585     1.0  0.88751  0.20252  0.54150  1.0000
  S   S1171     1.0  0.90438  0.19304  0.53642  1.0000
  S   S1172     1.0  0.87338  0.19470  0.55033  1.0000
  Fe  Fe586     1.0  0.89349  0.22472  0.53055  1.0000
  S   S1173     1.0  0.91094  0.21704  0.52453  1.0000
  S   S1174     1.0  0.88713  0.24280  0.52443  1.0000
  Fe  Fe587     1.0  0.90434  0.20505  0.52022  1.0000
  S   S1175     1.0  0.91142  0.19933  0.50437  1.0000
  Fe  Fe588     1.0  0.90930  0.20588  0.54129  1.0000
  S   S1176     1.0  0.92121  0.20061  0.55217  1.0000
  S   S1177     1.0  0.88698  0.21347  0.52500  1.0000
  S   S1178     1.0  0.89232  0.21456  0.54773  1.0000
  Fe  Fe589     1.0  0.88914  0.31756  0.54050  1.0000
  S   S1179     1.0  0.89727  0.32069  0.52273  1.0000
  S   S1180     1.0  0.88584  0.33124  0.54931  1.0000
  Fe  Fe590     1.0  0.88703  0.29459  0.54058  1.0000
  S   S1181     1.0  0.89497  0.29609  0.52273  1.0000
  S   S1182     1.0  0.88257  0.27863  0.55098  1.0000
  Fe  Fe591     1.0  0.90665  0.30335  0.52647  1.0000
  S   S1183     1.0  0.92455  0.29748  0.52058  1.0000
  Fe  Fe592     1.0  0.88475  0.31323  0.52078  1.0000
  S   S1184     1.0  0.87640  0.32069  0.50677  1.0000
  S   S1185     1.0  0.89955  0.30071  0.54456  1.0000
  S   S1186     1.0  0.87576  0.31127  0.53834  1.0000
  H   H6832     1.0  0.87337  0.99594  0.52316  1.0000
  C   C3969     1.0  0.76349  0.00257  0.54304  1.0000
  Fe  Fe593     1.0  0.89826  0.46295  0.56532  1.0000
  S   S1187     1.0  0.90639  0.47728  0.55845  1.0000
  S   S1188     1.0  0.89150  0.45770  0.55375  1.0000
  Fe  Fe594     1.0  0.90297  0.45938  0.58796  1.0000
  S   S1189     1.0  0.91194  0.47288  0.58293  1.0000
  S   S1190     1.0  0.90171  0.44779  0.60447  1.0000
  H   H6833     1.0  0.87040  0.99830  0.53647  1.0000
  C   C3970     1.0  0.74341  0.00882  0.48640  1.0000
  Fe  Fe595     1.0  0.91918  0.46666  0.56738  1.0000
  S   S1191     1.0  0.93670  0.46455  0.55885  1.0000
  S   S1192     1.0  0.88877  0.46919  0.58056  1.0000
  S   S1193     1.0  0.91163  0.45204  0.57329  1.0000
  H   H6834     1.0  0.95568  0.44524  0.59525  1.0000
  H   H6835     1.0  0.98613  0.45535  0.72311  1.0000
  S   S1194     1.0  0.94208  0.48148  0.69715  1.0000
  C   C3971     1.0  0.86621  0.11019  0.48856  1.0000
  S   S1195     1.0  0.91622  0.47153  0.66419  1.0000
  H   H6836     1.0  0.88807  0.09639  0.50018  1.0000
  H   H6837     1.0  0.97006  0.10213  0.51145  1.0000
  S   S1196     1.0  0.89098  0.47044  0.66815  1.0000
  H   H6838     1.0  0.91569  0.22864  0.49847  1.0000
  Fe  Fe596     1.0  0.90161  0.47244  0.67795  1.0000
  Fe  Fe597     1.0  0.90538  0.47087  0.65393  1.0000
  S   S1197     1.0  0.91357  0.45758  0.64434  1.0000
  C   C3972     1.0  0.90426  0.19844  0.48690  1.0000
  H   H6839     1.0  0.96120  0.20189  0.57124  1.0000
  Fe  Fe598     1.0  0.83221  0.07933  0.53074  1.0000
  S   S1198     1.0  0.84343  0.07016  0.51812  1.0000
  S   S1199     1.0  0.83554  0.09123  0.53864  1.0000
  Fe  Fe599     1.0  0.81235  0.07214  0.52932  1.0000
  S   S1200     1.0  0.82185  0.06295  0.51622  1.0000
  S   S1201     1.0  0.79538  0.07034  0.53820  1.0000
  Fe  Fe600     1.0  0.83432  0.05662  0.52644  1.0000
  S   S1202     1.0  0.84039  0.03823  0.53095  1.0000
  H   H6840     1.0  0.88268  0.37425  0.50493  1.0000
  H   H6841     1.0  0.75319  0.99749  0.55903  1.0000
  S   S1203     1.0  0.82442  0.06511  0.54003  1.0000
  S   S1204     1.0  0.81911  0.08720  0.52119  1.0000
  H   H6842     1.0  0.86454  0.24577  0.51744  1.0000
  S   S1205     1.0  0.82567  0.01026  0.50711  1.0000
  H   H6843     1.0  0.85905  0.19962  0.52397  1.0000
  C   C3973     1.0  0.83540  0.03097  0.52455  1.0000
  C   C3974     1.0  0.83212  0.02120  0.53053  1.0000
  C   C3975     1.0  0.82896  0.01483  0.52532  1.0000
  C   C3976     1.0  0.82919  0.01817  0.51406  1.0000
  C   C3977     1.0  0.83222  0.02807  0.50815  1.0000
  C   C3978     1.0  0.83526  0.03448  0.51338  1.0000
  H   H6844     1.0  0.83197  0.01863  0.53922  1.0000
  H   H6845     1.0  0.82643  0.00733  0.52999  1.0000
  H   H6846     1.0  0.83241  0.03069  0.49944  1.0000
  H   H6847     1.0  0.83786  0.04196  0.50868  1.0000
  H   H6848     1.0  0.78392  0.09655  0.53844  1.0000
  H   H6849     1.0  0.94436  0.46437  0.65051  1.0000
  H   H6850     1.0  0.84697  0.99814  0.52415  1.0000
  C   C3979     1.0  0.92156  0.48455  0.62310  1.0000
  C   C3980     1.0  0.95377  0.40011  0.48695  1.0000
  C   C3981     1.0  0.95774  0.27775  0.50556  1.0000
  H   H6851     1.0  0.95581  0.20119  0.55222  1.0000
  C   C3982     1.0  0.97164  0.20455  0.54593  1.0000
  H   H6852     1.0  0.80825  0.05956  0.50382  1.0000
  H   H6853     1.0  0.94243  0.47645  0.61044  1.0000
  C   C3983     1.0  0.93024  0.29659  0.48898  1.0000
  H   H6854     1.0  0.94087  0.45854  0.61158  1.0000
  C   C3984     1.0  0.98249  0.28594  0.51072  1.0000
  H   H6855     1.0  0.98079  0.10898  0.50302  1.0000
  H   H6856     1.0  0.91952  0.48700  0.59665  1.0000
  C   C3985     1.0  0.94217  0.47290  0.56332  1.0000
  C   C3986     1.0  0.95304  0.46991  0.56406  1.0000
  C   C3987     1.0  0.95688  0.47563  0.56935  1.0000
  C   C3988     1.0  0.94995  0.48460  0.57346  1.0000
  H   H6857     1.0  0.85470  0.99498  0.54983  1.0000
  C   C3989     1.0  0.93538  0.48212  0.56706  1.0000
  H   H6858     1.0  0.95841  0.46293  0.56097  1.0000
  H   H6859     1.0  0.96516  0.47302  0.57031  1.0000
  C   C3990     1.0  0.81400  0.08293  0.49015  1.0000
  H   H6860     1.0  0.96573  0.30606  0.48499  1.0000
  C   C3991     1.0  0.90524  0.45139  0.61493  1.0000
  C   C3992     1.0  0.91219  0.44341  0.62102  1.0000
  C   C3993     1.0  0.91465  0.44557  0.62989  1.0000
  C   C3994     1.0  0.90993  0.45561  0.63307  1.0000
  C   C3995     1.0  0.90293  0.46368  0.62702  1.0000
  C   C3996     1.0  0.90070  0.46163  0.61783  1.0000
  H   H6861     1.0  0.91562  0.43546  0.61892  1.0000
  H   H6862     1.0  0.92009  0.43932  0.63449  1.0000
  H   H6863     1.0  0.89920  0.47144  0.62945  1.0000
  H   H6864     1.0  0.89518  0.46778  0.61326  1.0000
  Fe  Fe601     1.0  0.74867  0.07006  0.51521  1.0000
  H   H6865     1.0  0.95505  0.29008  0.54748  1.0000
  C   C3997     1.0  0.88640  0.31888  0.49494  1.0000
  C   C3998     1.0  0.89669  0.32054  0.49396  1.0000
  H   H6866     1.0  0.97365  0.45424  0.51350  1.0000
  H   H6867     1.0  0.95011  0.46028  0.72971  1.0000
  H   H6868     1.0  0.91882  0.46106  0.73006  1.0000
  C   C3999     1.0  0.98309  0.26726  0.50991  1.0000
  H   H6869     1.0  0.89843  0.32306  0.50039  1.0000
  H   H6870     1.0  0.97701  0.37503  0.50143  1.0000
  H   H6871     1.0  0.98245  0.41913  0.58378  1.0000
  C   C4000     1.0  0.81460  0.05075  0.49069  1.0000
  C   C4001     1.0  0.90246  0.20372  0.49548  1.0000
  C   C4002     1.0  0.97703  0.45606  0.63894  1.0000
  H   H6872     1.0  0.79182  0.00788  0.52401  1.0000
  C   C4003     1.0  0.98390  0.19041  0.51756  1.0000
  C   C4004     1.0  0.88542  0.21467  0.49093  1.0000
  C   C4005     1.0  0.89326  0.21214  0.49716  1.0000
  C   C4006     1.0  0.96387  0.19679  0.54847  1.0000
  C   C4007     1.0  0.96522  0.29762  0.48513  1.0000
  H   H6873     1.0  0.87817  0.22099  0.49247  1.0000
  H   H6874     1.0  0.89218  0.21677  0.50320  1.0000
  C   C4008     1.0  0.88563  0.25253  0.53213  1.0000
  C   C4009     1.0  0.88397  0.26369  0.52690  1.0000
  C   C4010     1.0  0.88289  0.27173  0.53267  1.0000
  C   C4011     1.0  0.88329  0.26870  0.54376  1.0000
  C   C4012     1.0  0.88465  0.25755  0.54910  1.0000
  C   C4013     1.0  0.88593  0.24945  0.54327  1.0000
  H   H6875     1.0  0.88362  0.26613  0.51831  1.0000
  H   H6876     1.0  0.88158  0.28031  0.52854  1.0000
  H   H6877     1.0  0.88495  0.25516  0.55770  1.0000
  H   H6878     1.0  0.88724  0.24086  0.54737  1.0000
  C   C4014     1.0  0.94167  0.32553  0.50231  1.0000
  C   C4015     1.0  0.93079  0.32686  0.50217  1.0000
  C   C4016     1.0  0.92547  0.31817  0.50750  1.0000
  C   C4017     1.0  0.93105  0.30818  0.51292  1.0000
  C   C4018     1.0  0.94204  0.30672  0.51252  1.0000
  C   C4019     1.0  0.94730  0.31537  0.50731  1.0000
  H   H6879     1.0  0.92639  0.33467  0.49825  1.0000
  H   H6880     1.0  0.91709  0.31921  0.50739  1.0000
  H   H6881     1.0  0.94645  0.29901  0.51658  1.0000
  H   H6882     1.0  0.95570  0.31412  0.50735  1.0000
  C   C4020     1.0  0.94206  0.22496  0.54736  1.0000
  C   C4021     1.0  0.93873  0.21866  0.55782  1.0000
  C   C4022     1.0  0.93216  0.21131  0.55929  1.0000
  C   C4023     1.0  0.92871  0.21043  0.55037  1.0000
  C   C4024     1.0  0.93168  0.21706  0.54001  1.0000
  C   C4025     1.0  0.93830  0.22435  0.53853  1.0000
  H   H6883     1.0  0.94152  0.21920  0.56469  1.0000
  H   H6884     1.0  0.92981  0.20623  0.56733  1.0000
  H   H6885     1.0  0.92913  0.21637  0.53308  1.0000
  H   H6886     1.0  0.94044  0.22953  0.53053  1.0000
  H   H6887     1.0  0.95054  0.44069  0.72451  1.0000
  H   H6888     1.0  0.93758  0.28091  0.48506  1.0000
  C   C4026     1.0  0.94780  0.18232  0.55947  1.0000
  H   H6889     1.0  0.87135  0.22651  0.56308  1.0000
  H   H6890     1.0  0.74983  0.01230  0.51181  1.0000
  C   C4027     1.0  0.85006  0.24498  0.55414  1.0000
  H   H6891     1.0  0.87622  0.31441  0.48726  1.0000
  C   C4028     1.0  0.94925  0.38999  0.48821  1.0000
  H   H6892     1.0  0.96367  0.43809  0.57204  1.0000
  H   H6893     1.0  0.85896  0.36550  0.52920  1.0000
  C   C4029     1.0  0.94278  0.45654  0.65021  1.0000
  H   H6894     1.0  0.96773  0.38448  0.50902  1.0000
  H   H6895     1.0  0.77523  0.06393  0.54338  1.0000
  H   H6896     1.0  0.95645  0.40886  0.59626  1.0000
  H   H6897     1.0  0.86665  0.08789  0.49396  1.0000
  S   S1206     1.0  0.98136  0.42086  0.49997  1.0000
  H   H6898     1.0  0.85531  0.99274  0.50800  1.0000
  H   H6899     1.0  0.79351  0.01648  0.48982  1.0000
  H   H6900     1.0  0.80362  0.02446  0.49966  1.0000
  H   H6901     1.0  0.84711  0.24036  0.56249  1.0000
  C   C4030     1.0  0.93749  0.48731  0.68495  1.0000
  H   H6902     1.0  0.97934  0.09713  0.49306  1.0000
  H   H6903     1.0  0.96506  0.21702  0.49878  1.0000
  H   H6904     1.0  0.86862  0.21478  0.56085  1.0000
  C   C4031     1.0  0.94378  0.44571  0.58600  1.0000
  C   C4032     1.0  0.86902  0.09836  0.53374  1.0000
  C   C4033     1.0  0.85960  0.10656  0.53529  1.0000
  C   C4034     1.0  0.84940  0.10421  0.53690  1.0000
  C   C4035     1.0  0.84854  0.09375  0.53665  1.0000
  C   C4036     1.0  0.85793  0.08549  0.53528  1.0000
  C   C4037     1.0  0.86811  0.08772  0.53411  1.0000
  H   H6905     1.0  0.86018  0.11473  0.53520  1.0000
  H   H6906     1.0  0.84215  0.11060  0.53815  1.0000
  H   H6907     1.0  0.85735  0.07733  0.53530  1.0000
  H   H6908     1.0  0.87535  0.08129  0.53306  1.0000
  C   C4038     1.0  0.86502  0.14942  0.49495  1.0000
  C   C4039     1.0  0.86030  0.12055  0.50876  1.0000
  C   C4040     1.0  0.87756  0.36863  0.50518  1.0000
  C   C4041     1.0  0.97866  0.18060  0.54969  1.0000
  H   H6909     1.0  0.89302  0.11363  0.49108  1.0000
  C   C4042     1.0  0.85412  0.15112  0.49473  1.0000
  H   H6910     1.0  0.85560  0.01437  0.53210  1.0000
  H   H6911     1.0  0.93850  0.48042  0.62612  1.0000
  C   C4043     1.0  0.78611  0.08098  0.52039  1.0000
  H   H6912     1.0  0.84789  0.15541  0.50045  1.0000
  C   C4044     1.0  0.87901  0.15819  0.55060  1.0000
  C   C4045     1.0  0.88524  0.16478  0.54224  1.0000
  C   C4046     1.0  0.88378  0.17596  0.54221  1.0000
  C   C4047     1.0  0.87579  0.18065  0.55031  1.0000
  C   C4048     1.0  0.86941  0.17409  0.55848  1.0000
  C   C4049     1.0  0.87117  0.16287  0.55875  1.0000
  H   H6913     1.0  0.89139  0.16113  0.53606  1.0000
  H   H6914     1.0  0.88870  0.18098  0.53584  1.0000
  H   H6915     1.0  0.86324  0.17763  0.56477  1.0000
  H   H6916     1.0  0.86642  0.15779  0.56530  1.0000
  C   C4050     1.0  0.96006  0.17821  0.55557  1.0000
  C   C4051     1.0  0.97266  0.19209  0.52039  1.0000
  C   C4052     1.0  0.96761  0.18321  0.52462  1.0000
  C   C4053     1.0  0.97373  0.17245  0.52550  1.0000
  C   C4054     1.0  0.98106  0.45016  0.50830  1.0000
  C   C4055     1.0  0.94258  0.28503  0.54408  1.0000
  H   H6917     1.0  0.96779  0.20024  0.51970  1.0000
  H   H6918     1.0  0.95892  0.18475  0.52746  1.0000
  H   H6919     1.0  0.95624  0.27120  0.51298  1.0000
  C   C4056     1.0  0.95256  0.30403  0.56233  1.0000
  C   C4057     1.0  0.94470  0.12074  0.52855  1.0000
  C   C4058     1.0  0.93553  0.11621  0.53156  1.0000
  C   C4059     1.0  0.92764  0.12002  0.52519  1.0000
  C   C4060     1.0  0.92890  0.12838  0.51575  1.0000
  C   C4061     1.0  0.93805  0.13292  0.51272  1.0000
  C   C4062     1.0  0.94591  0.12912  0.51911  1.0000
  H   H6920     1.0  0.93454  0.10969  0.53883  1.0000
  H   H6921     1.0  0.92070  0.11633  0.52750  1.0000
  H   H6922     1.0  0.93906  0.13939  0.50542  1.0000
  H   H6923     1.0  0.95290  0.13266  0.51665  1.0000
  H   H6924     1.0  0.95846  0.30858  0.56256  1.0000
  C   C4063     1.0  0.92942  0.42990  0.59023  1.0000
  C   C4064     1.0  0.80680  0.08143  0.48480  1.0000
  H   H6925     1.0  0.74788  0.00896  0.53115  1.0000
  N   N286      1.0  0.79625  0.05066  0.50477  1.0000
  N   N287      1.0  0.85909  0.99039  0.53406  1.0000
  C   C4065     1.0  0.76836  0.07945  0.51947  1.0000
  H   H6926     1.0  0.94846  0.45867  0.58991  1.0000
  H   H6927     1.0  0.82268  0.05240  0.48976  1.0000
  H   H6928     1.0  0.95133  0.43034  0.55973  1.0000
  C   C4066     1.0  0.89601  0.42267  0.54923  1.0000
  C   C4067     1.0  0.90027  0.42433  0.55729  1.0000
  C   C4068     1.0  0.89951  0.43504  0.55839  1.0000
  C   C4069     1.0  0.89424  0.44417  0.55162  1.0000
  C   C4070     1.0  0.89036  0.44251  0.54332  1.0000
  C   C4071     1.0  0.89133  0.43183  0.54205  1.0000
  H   H6929     1.0  0.90389  0.41729  0.56289  1.0000
  H   H6930     1.0  0.90257  0.43618  0.56481  1.0000
  H   H6931     1.0  0.88630  0.44951  0.53801  1.0000
  H   H6932     1.0  0.88796  0.43067  0.53587  1.0000
  S   S1207     1.0  0.74659  0.06751  0.49961  1.0000
  H   H6933     1.0  0.98496  0.29365  0.50696  1.0000
  C   C4072     1.0  0.85321  0.99043  0.52562  1.0000
  H   H6934     1.0  0.74782  0.99761  0.54784  1.0000
  C   C4073     1.0  0.89557  0.38850  0.49010  1.0000
  C   C4074     1.0  0.75223  0.00210  0.55064  1.0000
  H   H6935     1.0  0.97025  0.11546  0.51271  1.0000
  H   H6936     1.0  0.94604  0.28732  0.53514  1.0000
  H   H6937     1.0  0.89777  0.38463  0.49791  1.0000
  C   C4075     1.0  0.92356  0.22715  0.49255  1.0000
  C   C4076     1.0  0.90820  0.35538  0.53368  1.0000
  C   C4077     1.0  0.89829  0.35842  0.54079  1.0000
  C   C4078     1.0  0.89166  0.35080  0.54591  1.0000
  C   C4079     1.0  0.89472  0.34028  0.54363  1.0000
  C   C4080     1.0  0.90468  0.33725  0.53658  1.0000
  C   C4081     1.0  0.91144  0.34474  0.53171  1.0000
  H   H6938     1.0  0.89578  0.36659  0.54242  1.0000
  H   H6939     1.0  0.88400  0.35316  0.55143  1.0000
  H   H6940     1.0  0.90720  0.32910  0.53491  1.0000
  H   H6941     1.0  0.91909  0.34240  0.52617  1.0000
  S   S1208     1.0  0.97133  0.42404  0.52952  1.0000
  C   C4082     1.0  0.94116  0.41478  0.53303  1.0000
  C   C4083     1.0  0.93038  0.41450  0.53419  1.0000
  C   C4084     1.0  0.92665  0.41487  0.52499  1.0000
  C   C4085     1.0  0.93381  0.41489  0.51474  1.0000
  C   C4086     1.0  0.94435  0.41605  0.51341  1.0000
  C   C4087     1.0  0.94795  0.41621  0.52253  1.0000
  H   H6942     1.0  0.92497  0.41370  0.54222  1.0000
  H   H6943     1.0  0.91826  0.41483  0.52592  1.0000
  H   H6944     1.0  0.94986  0.41639  0.50545  1.0000
  H   H6945     1.0  0.95611  0.41705  0.52143  1.0000
  H   H6946     1.0  0.93167  0.25074  0.54525  1.0000
  H   H6947     1.0  0.97155  0.20082  0.49058  1.0000
  C   C4088     1.0  0.92613  0.45511  0.70797  1.0000
  C   C4089     1.0  0.93578  0.36890  0.54241  1.0000
  H   H6948     1.0  0.95317  0.37922  0.55973  1.0000
  C   C4090     1.0  0.95756  0.10023  0.49799  1.0000
  H   H6949     1.0  0.80922  0.03000  0.50708  1.0000
  H   H6950     1.0  0.97141  0.36475  0.52139  1.0000
  C   C4091     1.0  0.76201  0.02569  0.54255  1.0000
  H   H6951     1.0  0.92430  0.40064  0.48542  1.0000
  H   H6952     1.0  0.78827  0.10845  0.56076  1.0000
  H   H6953     1.0  0.87885  0.37419  0.48754  1.0000
  C   C4092     1.0  0.97574  0.36249  0.52789  1.0000
  H   H6954     1.0  0.78755  0.08844  0.57943  1.0000
  C   C4093     1.0  0.95237  0.45044  0.58804  1.0000
  H   H6955     1.0  0.80239  0.08793  0.54186  1.0000
  H   H6956     1.0  0.97856  0.14578  0.49685  1.0000
  H   H6957     1.0  0.95190  0.43987  0.65170  1.0000
  C   C4094     1.0  0.89879  0.46864  0.70599  1.0000
  C   C4095     1.0  0.87693  0.36248  0.52492  1.0000
  H   H6958     1.0  0.93399  0.42597  0.66800  1.0000
  C   C4096     1.0  0.93305  0.46462  0.61286  1.0000
  C   C4097     1.0  0.98141  0.36972  0.52895  1.0000
  C   C4098     1.0  0.85748  0.24523  0.53478  1.0000
  H   H6959     1.0  0.76965  0.02089  0.54498  1.0000
  C   C4099     1.0  0.86131  0.23981  0.52478  1.0000
  S   S1209     1.0  0.98003  0.22979  0.52458  1.0000
  H   H6960     1.0  0.95063  0.19633  0.56987  1.0000
  S   S1210     1.0  0.97107  0.29511  0.52851  1.0000
  H   H6961     1.0  0.77730  0.00095  0.52282  1.0000
  H   H6962     1.0  0.92935  0.47252  0.63578  1.0000
  C   C4100     1.0  0.98153  0.45072  0.64818  1.0000
  H   H6963     1.0  0.87841  0.35535  0.53184  1.0000
  H   H6964     1.0  0.92694  0.29288  0.49765  1.0000
  H   H6965     1.0  0.80633  0.99282  0.48874  1.0000
  C   C4101     1.0  0.94816  0.28122  0.49986  1.0000
  Fe  Fe602     1.0  0.89836  0.48244  0.57447  1.0000
  C   C4102     1.0  0.77595  0.06945  0.53537  1.0000
  H   H6966     1.0  0.87443  0.36154  0.49310  1.0000
  C   C4103     1.0  0.98421  0.41128  0.49174  1.0000
  C   C4104     1.0  0.96557  0.20769  0.48738  1.0000
  S   S1211     1.0  0.98334  0.47028  0.58049  1.0000
  C   C4105     1.0  0.95581  0.43776  0.57077  1.0000
  C   C4106     1.0  0.96947  0.38153  0.50133  1.0000
  C   C4107     1.0  0.96751  0.18576  0.56683  1.0000
  H   H6967     1.0  0.95192  0.41262  0.58394  1.0000
  H   H6968     1.0  0.98031  0.34206  0.55015  1.0000
  C   C4108     1.0  0.89364  0.47884  0.72387  1.0000
  H   H6969     1.0  0.81601  0.04236  0.48931  1.0000
  C   C4109     1.0  0.80917  0.08537  0.56033  1.0000
  H   H6970     1.0  0.93074  0.35384  0.54420  1.0000
  H   H6971     1.0  0.90734  0.41599  0.49152  1.0000
  H   H6972     1.0  0.85892  0.09903  0.50998  1.0000
  S   S1212     1.0  0.75778  0.08323  0.51247  1.0000
  H   H6973     1.0  0.92906  0.22034  0.49700  1.0000
  H   H6974     1.0  0.80431  0.04757  0.52515  1.0000
  C   C4110     1.0  0.79598  0.09147  0.54836  1.0000
  H   H6975     1.0  0.96346  0.48711  0.73145  1.0000
  H   H6976     1.0  0.78823  0.05816  0.51876  1.0000
  C   C4111     1.0  0.80144  0.02978  0.50567  1.0000
  C   C4112     1.0  0.77801  0.06225  0.50001  1.0000
  H   H6977     1.0  0.79823  0.07446  0.57105  1.0000
  H   H6978     1.0  0.94582  0.30499  0.56959  1.0000
  C   C4113     1.0  0.96435  0.42945  0.67078  1.0000
  H   H6979     1.0  0.93769  0.47731  0.59885  1.0000
  H   H6980     1.0  0.90644  0.43037  0.48698  1.0000
  H   H6981     1.0  0.85452  0.23772  0.52288  1.0000
  H   H6982     1.0  0.95161  0.42535  0.66658  1.0000
  H   H6983     1.0  0.89630  0.45399  0.71828  1.0000
  C   C4114     1.0  0.96901  0.46389  0.65835  1.0000
  S   S1213     1.0  0.96170  0.47126  0.62861  1.0000
  H   H6984     1.0  0.96132  0.17670  0.54724  1.0000
  H   H6985     1.0  0.96560  0.41301  0.58355  1.0000
  H   H6986     1.0  0.86796  0.23245  0.52584  1.0000
  C   C4115     1.0  0.75643  0.00779  0.52644  1.0000
  H   H6987     1.0  0.94147  0.11915  0.48824  1.0000
  H   H6988     1.0  0.94474  0.45614  0.64142  1.0000
  H   H6989     1.0  0.97873  0.44378  0.50580  1.0000
  C   C4116     1.0  0.78452  0.09354  0.57202  1.0000
  H   H6990     1.0  0.79293  0.04235  0.53364  1.0000
  N   N288      1.0  0.94534  0.18373  0.50502  1.0000
  C   C4117     1.0  0.94192  0.19606  0.50361  1.0000
  C   C4118     1.0  0.93994  0.18024  0.49815  1.0000
  C   C4119     1.0  0.94205  0.17791  0.51680  1.0000
  C   C4120     1.0  0.94487  0.20093  0.51165  1.0000
  C   C4121     1.0  0.94208  0.46517  0.72820  1.0000
  C   C4122     1.0  0.92992  0.18095  0.52227  1.0000
  H   H6991     1.0  0.93307  0.19900  0.50411  1.0000
  H   H6992     1.0  0.94559  0.20022  0.49524  1.0000
  H   H6993     1.0  0.94132  0.17112  0.49982  1.0000
  H   H6994     1.0  0.93099  0.18311  0.50044  1.0000
  H   H6995     1.0  0.94108  0.19786  0.52034  1.0000
  H   H6996     1.0  0.95375  0.19942  0.51063  1.0000
  H   H6997     1.0  0.94187  0.21000  0.50981  1.0000
  H   H6998     1.0  0.96899  0.12278  0.49253  1.0000
  H   H6999     1.0  0.86301  0.47696  0.71694  1.0000
  C   C4123     1.0  0.98321  0.43619  0.57780  1.0000
  H   H7000     1.0  0.92505  0.17674  0.51977  1.0000
  H   H7001     1.0  0.92646  0.18989  0.52044  1.0000
  H   H7002     1.0  0.92895  0.17867  0.53134  1.0000
  N   N289      1.0  0.91900  0.25942  0.53632  1.0000
  C   C4124     1.0  0.91724  0.26835  0.52626  1.0000
  C   C4125     1.0  0.92204  0.26479  0.51519  1.0000
  H   H7003     1.0  0.91947  0.24589  0.52926  1.0000
  H   H7004     1.0  0.90839  0.27179  0.52671  1.0000
  H   H7005     1.0  0.93456  0.24879  0.53163  1.0000
  H   H7006     1.0  0.92200  0.27223  0.50840  1.0000
  H   H7007     1.0  0.93050  0.25997  0.51456  1.0000
  H   H7008     1.0  0.91701  0.25992  0.51383  1.0000
  H   H7009     1.0  0.78309  0.01849  0.53057  1.0000
  H   H7010     1.0  0.85681  0.01128  0.51896  1.0000
  H   H7011     1.0  0.78469  0.00401  0.53768  1.0000
  C   C4126     1.0  0.98615  0.27734  0.50508  1.0000
  H   H7012     1.0  0.98561  0.41544  0.56521  1.0000
  H   H7013     1.0  0.75902  0.99895  0.52605  1.0000
  H   H7014     1.0  0.96570  0.46683  0.66585  1.0000
  C   C4127     1.0  0.97963  0.14155  0.49044  1.0000
  N   N290      1.0  0.85493  0.23770  0.54594  1.0000
  C   C4128     1.0  0.86662  0.48390  0.71654  1.0000
  H   H7015     1.0  0.86753  0.01526  0.52167  1.0000
  H   H7016     1.0  0.85624  0.12643  0.50236  1.0000
  C   C4129     1.0  0.77485  0.00913  0.52502  1.0000
  H   H7017     1.0  0.76838  0.00411  0.54788  1.0000
  C   C4130     1.0  0.95328  0.29755  0.48608  1.0000
  C   C4131     1.0  0.86556  0.36952  0.52857  1.0000
  C   C4132     1.0  0.86650  0.99836  0.52985  1.0000
  H   H7018     1.0  0.94987  0.36139  0.55722  1.0000
  H   H7019     1.0  0.79560  0.00537  0.50120  1.0000
  H   H7020     1.0  0.76745  0.99414  0.54178  1.0000
  H   H7021     1.0  0.95915  0.45161  0.58085  1.0000
  Fe  Fe603     1.0  0.98197  0.47208  0.69362  1.0000
  S   S1214     1.0  0.98276  0.44736  0.66958  1.0000
  H   H7022     1.0  0.97724  0.48456  0.62769  1.0000
  H   H7023     1.0  0.84990  0.22681  0.53932  1.0000
  S   S1215     1.0  0.76577  0.03850  0.49761  1.0000
  H   H7024     1.0  0.86483  0.37082  0.53686  1.0000
  C   C4133     1.0  0.89634  0.46260  0.71681  1.0000
  H   H7025     1.0  0.96777  0.27313  0.53429  1.0000
  C   C4134     1.0  0.96833  0.46514  0.63952  1.0000
  H   H7026     1.0  0.80163  0.11107  0.54457  1.0000
  H   H7027     1.0  0.91934  0.21608  0.48566  1.0000
  H   H7028     1.0  0.78371  0.04643  0.51916  1.0000
  C   C4135     1.0  0.93831  0.43246  0.57987  1.0000
  H   H7029     1.0  0.76051  0.06866  0.53331  1.0000
  H   H7030     1.0  0.93141  0.45943  0.68053  1.0000
  H   H7031     1.0  0.93205  0.46764  0.71698  1.0000
  C   C4136     1.0  0.84268  0.22374  0.55625  1.0000
  C   C4137     1.0  0.93311  0.44652  0.71555  1.0000
  H   H7032     1.0  0.79150  0.10666  0.53612  1.0000
  C   C4138     1.0  0.96189  0.21692  0.49204  1.0000
  C   C4139     1.0  0.75593  0.01455  0.51469  1.0000
  S   S1216     1.0  0.90204  0.46196  0.69503  1.0000
  H   H7033     1.0  0.89152  0.34519  0.51999  1.0000
  N   N291      1.0  0.80108  0.09501  0.55546  1.0000
  H   H7034     1.0  0.97916  0.18155  0.54081  1.0000
  C   C4140     1.0  0.79110  0.04985  0.51687  1.0000
  C   C4141     1.0  0.86523  0.22960  0.54814  1.0000
  H   H7035     1.0  0.79324  0.08439  0.51676  1.0000
  Fe  Fe604     1.0  0.98589  0.39368  0.53613  1.0000
  C   C4142     1.0  0.94752  0.44905  0.67530  1.0000
  C   C4143     1.0  0.80722  0.10355  0.54804  1.0000
  C   C4144     1.0  0.94806  0.12368  0.48449  1.0000
  H   H7036     1.0  0.88186  0.18777  0.49185  1.0000
  Fe  Fe605     1.0  0.95899  0.47132  0.69521  1.0000
  H   H7037     1.0  0.94703  0.44442  0.68400  1.0000
  C   C4145     1.0  0.89877  0.47977  0.70414  1.0000
  C   C4146     1.0  0.78395  0.00998  0.52980  1.0000
  N   N292      1.0  0.87201  0.18588  0.50846  1.0000
  C   C4147     1.0  0.87621  0.18261  0.49748  1.0000
  C   C4148     1.0  0.88147  0.18745  0.51176  1.0000
  C   C4149     1.0  0.86706  0.17678  0.51650  1.0000
  C   C4150     1.0  0.98117  0.45489  0.73135  1.0000
  C   C4151     1.0  0.89125  0.17764  0.51225  1.0000
  C   C4152     1.0  0.86237  0.17805  0.52846  1.0000
  H   H7038     1.0  0.88102  0.17396  0.49842  1.0000
  H   H7039     1.0  0.87913  0.18974  0.51984  1.0000
  H   H7040     1.0  0.88454  0.19448  0.50589  1.0000
  H   H7041     1.0  0.86025  0.17566  0.51376  1.0000
  H   H7042     1.0  0.87280  0.16864  0.51666  1.0000
  H   H7043     1.0  0.87736  0.08106  0.50129  1.0000
  C   C4153     1.0  0.97645  0.26576  0.52046  1.0000
  H   H7044     1.0  0.89524  0.17577  0.50405  1.0000
  H   H7045     1.0  0.89742  0.17972  0.51519  1.0000
  H   H7046     1.0  0.88889  0.17029  0.51811  1.0000
  H   H7047     1.0  0.85375  0.18250  0.52959  1.0000
  H   H7048     1.0  0.86693  0.18216  0.53140  1.0000
  H   H7049     1.0  0.86290  0.16976  0.53402  1.0000
  H   H7050     1.0  0.80218  0.03477  0.52400  1.0000
  C   C4154     1.0  0.95351  0.42656  0.58992  1.0000
  H   H7051     1.0  0.79107  0.06836  0.50107  1.0000
  H   H7052     1.0  0.93378  0.43733  0.65611  1.0000
  H   H7053     1.0  0.87979  0.48559  0.69139  1.0000
  C   C4155     1.0  0.86958  0.34265  0.52569  1.0000
  H   H7054     1.0  0.95583  0.45064  0.67239  1.0000
  H   H7055     1.0  0.79658  0.02586  0.51347  1.0000
  S   S1217     1.0  0.97050  0.44251  0.72590  1.0000
  N   N293      1.0  0.96408  0.10871  0.49125  1.0000
  C   C4156     1.0  0.98530  0.42358  0.56607  1.0000
  C   C4157     1.0  0.96523  0.11593  0.49794  1.0000
  C   C4158     1.0  0.86551  0.22378  0.56027  1.0000
  H   H7056     1.0  0.82028  0.10081  0.55688  1.0000
  H   H7057     1.0  0.81145  0.08719  0.56715  1.0000
  C   C4159     1.0  0.97198  0.11016  0.50676  1.0000
  H   H7058     1.0  0.94590  0.27609  0.54673  1.0000
  H   H7059     1.0  0.81278  0.10042  0.54082  1.0000
  C   C4160     1.0  0.87157  0.11448  0.50358  1.0000
  C   C4161     1.0  0.80790  0.05162  0.50236  1.0000
  H   H7060     1.0  0.94466  0.19046  0.55454  1.0000
  H   H7061     1.0  0.86750  0.99173  0.51154  1.0000
  H   H7062     1.0  0.96852  0.43303  0.66240  1.0000
  H   H7063     1.0  0.94444  0.27405  0.50154  1.0000
  H   H7064     1.0  0.93270  0.42338  0.59680  1.0000
  H   H7065     1.0  0.92718  0.23444  0.49025  1.0000
  H   H7066     1.0  0.96182  0.42130  0.56662  1.0000
  C   C4162     1.0  0.95436  0.22599  0.48783  1.0000
  H   H7067     1.0  0.92968  0.46318  0.62182  1.0000
  C   C4163     1.0  0.94990  0.44644  0.65637  1.0000
  H   H7068     1.0  0.73927  0.99298  0.49140  1.0000
  H   H7069     1.0  0.92805  0.48637  0.63612  1.0000
  H   H7070     1.0  0.96470  0.43251  0.55565  1.0000
  H   H7071     1.0  0.96102  0.42868  0.59026  1.0000
  C   C4164     1.0  0.93969  0.46029  0.67584  1.0000
  C   C4165     1.0  0.95213  0.43067  0.67173  1.0000
  C   C4166     1.0  0.86115  0.01043  0.52544  1.0000
  H   H7072     1.0  0.93402  0.45680  0.65282  1.0000
  N   N294      1.0  0.92183  0.14510  0.54593  1.0000
  C   C4167     1.0  0.93296  0.14712  0.53992  1.0000
  C   C4168     1.0  0.91565  0.14608  0.53740  1.0000
  C   C4169     1.0  0.92323  0.13359  0.55303  1.0000
  C   C4170     1.0  0.91652  0.15358  0.55283  1.0000
  C   C4171     1.0  0.94148  0.14437  0.54695  1.0000
  C   C4172     1.0  0.91465  0.15698  0.52873  1.0000
  H   H7073     1.0  0.93651  0.14228  0.53344  1.0000
  H   H7074     1.0  0.93248  0.15589  0.53559  1.0000
  H   H7075     1.0  0.91958  0.13940  0.53283  1.0000
  H   H7076     1.0  0.93020  0.12793  0.54884  1.0000
  H   H7077     1.0  0.92529  0.13341  0.56083  1.0000
  H   H7078     1.0  0.92129  0.15267  0.55899  1.0000
  H   H7079     1.0  0.91664  0.16208  0.54789  1.0000
  H   H7080     1.0  0.93900  0.14919  0.55340  1.0000
  H   H7081     1.0  0.94356  0.13546  0.55069  1.0000
  H   H7082     1.0  0.94912  0.14649  0.54153  1.0000
  H   H7083     1.0  0.92259  0.15789  0.52318  1.0000
  H   H7084     1.0  0.90938  0.15688  0.52343  1.0000
  H   H7085     1.0  0.91086  0.16420  0.53252  1.0000
  S   S1218     1.0  0.97877  0.23183  0.49914  1.0000
  C   C4173     1.0  0.88416  0.31579  0.48646  1.0000
  H   H7086     1.0  0.97147  0.16737  0.49854  1.0000
  N   N295      1.0  0.92580  0.48563  0.61088  1.0000
  H   H7087     1.0  0.75904  0.08554  0.48603  1.0000
  H   H7088     1.0  0.85355  0.25585  0.56216  1.0000
  H   H7089     1.0  0.76374  0.01275  0.50875  1.0000
  S   S1219     1.0  0.98045  0.43863  0.59114  1.0000
  H   H7090     1.0  0.89137  0.34693  0.50605  1.0000
  H   H7091     1.0  0.94315  0.47368  0.72424  1.0000
  H   H7092     1.0  0.86878  0.47771  0.73333  1.0000
  H   H7093     1.0  0.75330  0.02350  0.51441  1.0000
  H   H7094     1.0  0.84924  0.21645  0.55810  1.0000
  C   C4174     1.0  0.93999  0.37017  0.49984  1.0000
  H   H7095     1.0  0.86387  0.19208  0.48781  1.0000
  C   C4175     1.0  0.85123  0.14716  0.48722  1.0000
  H   H7096     1.0  0.97407  0.25800  0.52424  1.0000
  C   C4176     1.0  0.98475  0.44458  0.56842  1.0000
  H   H7097     1.0  0.87630  0.11102  0.51011  1.0000
  C   C4177     1.0  0.85389  0.11077  0.49139  1.0000
  C   C4178     1.0  0.91683  0.48554  0.60578  1.0000
  C   C4179     1.0  0.98662  0.35675  0.54501  1.0000
  C   C4180     1.0  0.95992  0.37674  0.50136  1.0000
  H   H7098     1.0  0.92970  0.43907  0.71831  1.0000
  C   C4181     1.0  0.97583  0.28447  0.52125  1.0000
  H   H7099     1.0  0.86536  0.34590  0.53318  1.0000
  Fe  Fe606     1.0  0.97799  0.24329  0.50959  1.0000
  H   H7100     1.0  0.93713  0.36272  0.50035  1.0000
  H   H7101     1.0  0.83902  0.22759  0.56342  1.0000
  N   N296      1.0  0.92832  0.45026  0.53430  1.0000
  C   C4182     1.0  0.92409  0.44774  0.54657  1.0000
  C   C4183     1.0  0.92636  0.46259  0.53028  1.0000
  C   C4184     1.0  0.94029  0.44547  0.53128  1.0000
  C   C4185     1.0  0.92244  0.44527  0.52919  1.0000
  C   C4186     1.0  0.92700  0.43559  0.55255  1.0000
  C   C4187     1.0  0.91450  0.46862  0.53016  1.0000
  C   C4188     1.0  0.94747  0.44922  0.53646  1.0000
  C   C4189     1.0  0.92562  0.44705  0.51655  1.0000
  H   H7102     1.0  0.92692  0.45260  0.55057  1.0000
  H   H7103     1.0  0.91512  0.45032  0.54861  1.0000
  H   H7104     1.0  0.93130  0.46495  0.52188  1.0000
  H   H7105     1.0  0.92910  0.46635  0.53548  1.0000
  H   H7106     1.0  0.94201  0.43633  0.53340  1.0000
  H   H7107     1.0  0.94337  0.44760  0.52223  1.0000
  H   H7108     1.0  0.92396  0.43624  0.53224  1.0000
  H   H7109     1.0  0.91347  0.44784  0.53185  1.0000
  H   H7110     1.0  0.92394  0.43010  0.54957  1.0000
  H   H7111     1.0  0.93582  0.43262  0.55201  1.0000
  H   H7112     1.0  0.92317  0.43474  0.56141  1.0000
  H   H7113     1.0  0.91146  0.46660  0.52398  1.0000
  H   H7114     1.0  0.90908  0.46683  0.53834  1.0000
  H   H7115     1.0  0.91397  0.47763  0.52790  1.0000
  H   H7116     1.0  0.94544  0.44694  0.54555  1.0000
  H   H7117     1.0  0.94700  0.45820  0.53376  1.0000
  H   H7118     1.0  0.95606  0.44510  0.53379  1.0000
  H   H7119     1.0  0.93240  0.44029  0.51399  1.0000
  H   H7120     1.0  0.92797  0.45497  0.51242  1.0000
  H   H7121     1.0  0.91853  0.44717  0.51344  1.0000
  H   H7122     1.0  0.79180  0.08472  0.55299  1.0000
  H   H7123     1.0  0.81686  0.08382  0.55407  1.0000
  H   H7124     1.0  0.83731  0.98982  0.55713  1.0000
  H   H7125     1.0  0.94870  0.42682  0.68037  1.0000
  H   H7126     1.0  0.80530  0.07077  0.55806  1.0000
  H   H7127     1.0  0.93840  0.42664  0.73032  1.0000
  C   C4190     1.0  0.98503  0.17060  0.52210  1.0000
  H   H7128     1.0  0.85546  0.48557  0.70058  1.0000
  C   C4191     1.0  0.76763  0.07209  0.52967  1.0000
  H   H7129     1.0  0.95967  0.16552  0.49575  1.0000
  H   H7130     1.0  0.78647  0.04055  0.50316  1.0000
  S   S1220     1.0  0.75529  0.05230  0.52186  1.0000
  H   H7131     1.0  0.93443  0.43933  0.57386  1.0000
  H   H7132     1.0  0.94853  0.42638  0.59842  1.0000
  C   C4192     1.0  0.85760  0.25163  0.55525  1.0000
  H   H7133     1.0  0.74698  0.04853  0.48782  1.0000
  H   H7134     1.0  0.92489  0.43735  0.59346  1.0000
  Fe  Fe607     1.0  0.82990  0.07727  0.50911  1.0000
  H   H7135     1.0  0.81121  0.08417  0.49847  1.0000
  H   H7136     1.0  0.83057  0.11258  0.48545  1.0000
  H   H7137     1.0  0.93370  0.28631  0.54550  1.0000
  H   H7138     1.0  0.94708  0.30803  0.53199  1.0000
  C   C4193     1.0  0.86156  0.20387  0.51535  1.0000
  H   H7139     1.0  0.86730  0.22304  0.54343  1.0000
  H   H7140     1.0  0.86398  0.24936  0.53432  1.0000
  S   S1221     1.0  0.96296  0.46449  0.60091  1.0000
  H   H7141     1.0  0.77441  0.07075  0.49605  1.0000
  H   H7142     1.0  0.94188  0.28692  0.50457  1.0000
  C   C4194     1.0  0.80586  0.07417  0.56477  1.0000
  H   H7143     1.0  0.96034  0.18550  0.49314  1.0000
  H   H7144     1.0  0.94391  0.16887  0.51752  1.0000
  H   H7145     1.0  0.94692  0.17881  0.52209  1.0000
  H   H7146     1.0  0.90731  0.14480  0.54110  1.0000
  H   H7147     1.0  0.87336  0.34783  0.50822  1.0000
  C   C4195     1.0  0.86370  0.19660  0.50704  1.0000
  H   H7148     1.0  0.86871  0.20725  0.51443  1.0000
  C   C4196     1.0  0.95750  0.18068  0.50145  1.0000
  H   H7149     1.0  0.93230  0.32380  0.52745  1.0000
  H   H7150     1.0  0.93920  0.45233  0.58039  1.0000
  H   H7151     1.0  0.90627  0.25334  0.53395  1.0000
  H   H7152     1.0  0.85576  0.19512  0.50705  1.0000
  C   C4197     1.0  0.93512  0.47633  0.60795  1.0000
  C   C4198     1.0  0.86315  0.46155  0.57322  1.0000
  H   H7153     1.0  0.96141  0.18290  0.50680  1.0000
  H   H7154     1.0  0.92051  0.27549  0.52570  1.0000
  H   H7155     1.0  0.77517  0.01531  0.51709  1.0000
  C   C4199     1.0  0.93081  0.25506  0.53673  1.0000
  C   C4200     1.0  0.91365  0.12785  0.55606  1.0000
  H   H7156     1.0  0.90061  0.16180  0.56076  1.0000
  H   H7157     1.0  0.77636  0.05661  0.49598  1.0000
  C   C4201     1.0  0.84663  0.23186  0.54566  1.0000
  C   C4202     1.0  0.93395  0.44174  0.67135  1.0000
  H   H7158     1.0  0.89986  0.15115  0.55541  1.0000
  H   H7159     1.0  0.85899  0.46701  0.56666  1.0000
  C   C4203     1.0  0.91440  0.25011  0.53597  1.0000
  H   H7160     1.0  0.86624  0.20202  0.49889  1.0000
  C   C4204     1.0  0.90489  0.15339  0.55956  1.0000
  H   H7161     1.0  0.90596  0.13259  0.56015  1.0000
  H   H7162     1.0  0.91558  0.11985  0.56188  1.0000
  H   H7163     1.0  0.87067  0.46441  0.57207  1.0000
  C   C4205     1.0  0.81407  0.10758  0.55339  1.0000
  C   C4206     1.0  0.89960  0.35759  0.50914  1.0000
  H   H7164     1.0  0.94260  0.46460  0.68035  1.0000
  H   H7165     1.0  0.97665  0.36363  0.48964  1.0000
  H   H7166     1.0  0.93762  0.32642  0.53738  1.0000
  C   C4207     1.0  0.96441  0.46910  0.64919  1.0000
  C   C4208     1.0  0.76204  0.03640  0.48657  1.0000
  H   H7167     1.0  0.85485  0.21105  0.51360  1.0000
  H   H7168     1.0  0.86274  0.35721  0.51478  1.0000
  C   C4209     1.0  0.96254  0.16844  0.50142  1.0000
  H   H7169     1.0  0.91242  0.12590  0.54876  1.0000
  H   H7170     1.0  0.90493  0.14770  0.56772  1.0000
  H   H7171     1.0  0.77820  0.08960  0.50693  1.0000
  N   N297      1.0  0.95675  0.37886  0.49053  1.0000
  H   H7172     1.0  0.76184  0.02813  0.52539  1.0000
  H   H7173     1.0  0.84928  0.11502  0.49808  1.0000
  H   H7174     1.0  0.96111  0.16313  0.50977  1.0000
  H   H7175     1.0  0.94180  0.26389  0.52361  1.0000
  C   C4210     1.0  0.93316  0.32096  0.53612  1.0000
  H   H7176     1.0  0.92861  0.45001  0.66992  1.0000
  H   H7177     1.0  0.76275  0.03439  0.53987  1.0000
  H   H7178     1.0  0.96752  0.21302  0.54250  1.0000
  H   H7179     1.0  0.87199  0.44902  0.56413  1.0000
  C   C4211     1.0  0.86762  0.09640  0.50621  1.0000
  H   H7180     1.0  0.93444  0.30452  0.53540  1.0000
  H   H7181     1.0  0.95275  0.44604  0.56593  1.0000
  H   H7182     1.0  0.89177  0.46299  0.73405  1.0000
  H   H7183     1.0  0.89916  0.36247  0.51506  1.0000
  H   H7184     1.0  0.87741  0.33714  0.52699  1.0000
  C   C4212     1.0  0.93916  0.30877  0.53801  1.0000
  S   S1222     1.0  0.96283  0.45306  0.69699  1.0000
  H   H7185     1.0  0.93417  0.27188  0.53367  1.0000
  C   C4213     1.0  0.86579  0.44956  0.57192  1.0000
  H   H7186     1.0  0.85773  0.46268  0.58124  1.0000
  C   C4214     1.0  0.93811  0.26350  0.53243  1.0000
  H   H7187     1.0  0.86435  0.37779  0.52305  1.0000
  C   C4215     1.0  0.91266  0.26368  0.54646  1.0000
  H   H7188     1.0  0.85833  0.44835  0.57043  1.0000
  H   H7189     1.0  0.88517  0.44505  0.57567  1.0000
  H   H7190     1.0  0.92723  0.35832  0.55676  1.0000
  C   C4216     1.0  0.79509  0.04121  0.50094  1.0000
  C   C4217     1.0  0.79523  0.00744  0.49240  1.0000
  H   H7191     1.0  0.94124  0.44399  0.71027  1.0000
  H   H7192     1.0  0.96743  0.17750  0.57238  1.0000
  H   H7193     1.0  0.92486  0.32213  0.54133  1.0000
  H   H7194     1.0  0.95284  0.37989  0.50755  1.0000
  H   H7195     1.0  0.95265  0.39283  0.52672  1.0000
  N   N298      1.0  0.94795  0.43530  0.58164  1.0000
  H   H7196     1.0  0.81261  0.04524  0.50794  1.0000
  C   C4218     1.0  0.89388  0.46765  0.72574  1.0000
  Fe  Fe608     1.0  0.82390  0.99298  0.51565  1.0000
  H   H7197     1.0  0.90392  0.26622  0.54636  1.0000
  H   H7198     1.0  0.87648  0.45148  0.58630  1.0000
  H   H7199     1.0  0.98231  0.16640  0.56328  1.0000
  C   C4219     1.0  0.95704  0.41470  0.58814  1.0000
  H   H7200     1.0  0.84554  0.00220  0.54113  1.0000
  C   C4220     1.0  0.95843  0.42990  0.56294  1.0000
  H   H7201     1.0  0.94116  0.35188  0.55130  1.0000
  H   H7202     1.0  0.95763  0.47610  0.64968  1.0000
  H   H7203     1.0  0.90610  0.24375  0.55287  1.0000
  S   S1223     1.0  0.97271  0.47430  0.68088  1.0000
  C   C4221     1.0  0.86892  0.08600  0.50198  1.0000
  H   H7204     1.0  0.78097  0.10451  0.54854  1.0000
  H   H7205     1.0  0.91591  0.28043  0.54135  1.0000
  H   H7206     1.0  0.94164  0.36730  0.53469  1.0000
  C   C4222     1.0  0.87901  0.44364  0.58345  1.0000
  H   H7207     1.0  0.85668  0.42847  0.57843  1.0000
  H   H7208     1.0  0.87184  0.09369  0.51310  1.0000
  C   C4223     1.0  0.88386  0.10106  0.49336  1.0000
  H   H7209     1.0  0.86534  0.24632  0.55712  1.0000
  H   H7210     1.0  0.88275  0.36751  0.52427  1.0000
  H   H7211     1.0  0.87541  0.12111  0.49781  1.0000
  C   C4224     1.0  0.91587  0.27334  0.54845  1.0000
  N   N299      1.0  0.94089  0.30347  0.54948  1.0000
  C   C4225     1.0  0.94869  0.30895  0.55144  1.0000
  C   C4226     1.0  0.94609  0.29135  0.55045  1.0000
  H   H7212     1.0  0.94482  0.28687  0.55920  1.0000
  H   H7213     1.0  0.94511  0.31780  0.55137  1.0000
  H   H7214     1.0  0.95612  0.30872  0.54469  1.0000
  H   H7215     1.0  0.94322  0.39139  0.54463  1.0000
  C   C4227     1.0  0.75920  0.02242  0.53326  1.0000
  N   N300      1.0  0.94572  0.44226  0.66850  1.0000
  H   H7216     1.0  0.90980  0.44819  0.73067  1.0000
  H   H7217     1.0  0.91929  0.39085  0.55362  1.0000
  N   N301      1.0  0.86949  0.44080  0.58139  1.0000
  H   H7218     1.0  0.88068  0.43000  0.57125  1.0000
  H   H7219     1.0  0.93066  0.46130  0.70234  1.0000
  H   H7220     1.0  0.94502  0.26050  0.53663  1.0000
  H   H7221     1.0  0.94320  0.38765  0.52297  1.0000
  Fe  Fe609     1.0  0.97091  0.46885  0.61173  1.0000
  H   H7222     1.0  0.75520  0.02550  0.54989  1.0000
  H   H7223     1.0  0.94066  0.42529  0.57603  1.0000
  H   H7224     1.0  0.96582  0.43312  0.67684  1.0000
  H   H7225     1.0  0.84265  0.25099  0.55197  1.0000
  C   C4228     1.0  0.87319  0.43000  0.57782  1.0000
  H   H7226     1.0  0.90978  0.27633  0.55545  1.0000
  H   H7227     1.0  0.88767  0.42688  0.59047  1.0000
  C   C4229     1.0  0.95841  0.19424  0.57241  1.0000
  H   H7228     1.0  0.90082  0.48447  0.69586  1.0000
  H   H7229     1.0  0.98175  0.37739  0.52300  1.0000
  H   H7230     1.0  0.94800  0.12924  0.48960  1.0000
  H   H7231     1.0  0.92378  0.27065  0.55090  1.0000
  H   H7232     1.0  0.96538  0.27404  0.50047  1.0000
  C   C4230     1.0  0.86760  0.18341  0.49111  1.0000
  H   H7233     1.0  0.92034  0.30269  0.54823  1.0000
  C   C4231     1.0  0.94816  0.38617  0.52909  1.0000
  H   H7234     1.0  0.96083  0.38091  0.54564  1.0000
  Fe  Fe610     1.0  0.75231  0.04971  0.50675  1.0000
  H   H7235     1.0  0.95578  0.36186  0.49300  1.0000
  S   S1224     1.0  0.83391  0.08477  0.49114  1.0000
  C   C4232     1.0  0.86500  0.42699  0.57330  1.0000
  C   C4233     1.0  0.88498  0.43529  0.59200  1.0000
  H   H7236     1.0  0.85999  0.44712  0.59578  1.0000
  H   H7237     1.0  0.85226  0.44326  0.58896  1.0000
  H   H7238     1.0  0.93185  0.30465  0.48853  1.0000
  Fe  Fe611     1.0  0.97949  0.45557  0.59363  1.0000
  C   C4234     1.0  0.95768  0.37493  0.55299  1.0000
  H   H7239     1.0  0.96487  0.36901  0.55566  1.0000
  S   S1225     1.0  0.96781  0.47057  0.70784  1.0000
  N   N302      1.0  0.95045  0.28658  0.48783  1.0000
  S   S1226     1.0  0.97641  0.31752  0.50070  1.0000
  C   C4235     1.0  0.86023  0.44080  0.59137  1.0000
  H   H7240     1.0  0.86756  0.41814  0.57301  1.0000
  C   C4236     1.0  0.93053  0.30513  0.55806  1.0000
  H   H7241     1.0  0.95725  0.12005  0.50214  1.0000
  H   H7242     1.0  0.91324  0.30613  0.56080  1.0000
  C   C4237     1.0  0.94076  0.38623  0.54063  1.0000
  H   H7243     1.0  0.83935  0.23796  0.54330  1.0000
  H   H7244     1.0  0.94094  0.36973  0.50817  1.0000
  H   H7245     1.0  0.94354  0.09701  0.51103  1.0000
  C   C4238     1.0  0.97746  0.45456  0.65793  1.0000
  C   C4239     1.0  0.87255  0.48207  0.69365  1.0000
  H   H7246     1.0  0.92194  0.43635  0.66677  1.0000
  H   H7247     1.0  0.96282  0.19618  0.54049  1.0000
  C   C4240     1.0  0.93836  0.46080  0.72032  1.0000
  C   C4241     1.0  0.79283  0.10018  0.56429  1.0000
  H   H7248     1.0  0.81859  0.11334  0.54694  1.0000
  H   H7249     1.0  0.85769  0.22475  0.56623  1.0000
  H   H7250     1.0  0.93793  0.44443  0.59403  1.0000
  C   C4242     1.0  0.92099  0.30124  0.55683  1.0000
  H   H7251     1.0  0.92764  0.31387  0.55882  1.0000
  H   H7252     1.0  0.93509  0.38210  0.56241  1.0000
  C   C4243     1.0  0.77760  0.08392  0.51484  1.0000
  H   H7253     1.0  0.97109  0.38858  0.49455  1.0000
  C   C4244     1.0  0.85071  0.99401  0.54374  1.0000
  H   H7254     1.0  0.93132  0.43839  0.68032  1.0000
  H   H7255     1.0  0.92824  0.37383  0.53971  1.0000
  H   H7256     1.0  0.93347  0.37732  0.49756  1.0000
  Fe  Fe612     1.0  0.97371  0.31190  0.51901  1.0000
  H   H7257     1.0  0.86363  0.08072  0.50802  1.0000
  H   H7258     1.0  0.87549  0.42301  0.58454  1.0000
  H   H7259     1.0  0.86491  0.43166  0.56472  1.0000
  H   H7260     1.0  0.88012  0.43534  0.60047  1.0000
  H   H7261     1.0  0.89246  0.43790  0.59158  1.0000
  C   C4245     1.0  0.91322  0.24100  0.54652  1.0000
  H   H7262     1.0  0.96552  0.15198  0.48463  1.0000
  H   H7263     1.0  0.79697  0.10196  0.56977  1.0000
  H   H7264     1.0  0.96286  0.09260  0.50176  1.0000
  H   H7265     1.0  0.86910  0.37357  0.50650  1.0000
  H   H7266     1.0  0.77685  0.09933  0.57473  1.0000
  H   H7267     1.0  0.95436  0.37847  0.52859  1.0000
  H   H7268     1.0  0.93271  0.39107  0.53922  1.0000
  H   H7269     1.0  0.91618  0.47858  0.62629  1.0000
  N   N303      1.0  0.96732  0.18548  0.55534  1.0000
  H   H7270     1.0  0.87218  0.23375  0.54500  1.0000
  H   H7271     1.0  0.85031  0.25200  0.53329  1.0000
  H   H7272     1.0  0.86129  0.12556  0.51394  1.0000
  H   H7273     1.0  0.81267  0.00334  0.48858  1.0000
  H   H7274     1.0  0.92057  0.23826  0.54997  1.0000
  H   H7275     1.0  0.91176  0.23377  0.54463  1.0000
  H   H7276     1.0  0.91337  0.25716  0.55404  1.0000
  H   H7277     1.0  0.90738  0.35138  0.50890  1.0000
  H   H7278     1.0  0.78836  0.00429  0.49201  1.0000
  H   H7279     1.0  0.93196  0.30067  0.56636  1.0000
  H   H7280     1.0  0.92772  0.46270  0.60871  1.0000
  C   C4246     1.0  0.97286  0.27434  0.52612  1.0000
  C   C4247     1.0  0.79816  0.04316  0.52523  1.0000
  H   H7281     1.0  0.83623  0.22056  0.55496  1.0000
  H   H7282     1.0  0.97522  0.18774  0.56679  1.0000
  H   H7283     1.0  0.92336  0.42689  0.58805  1.0000
  C   C4248     1.0  0.88002  0.36625  0.49364  1.0000
  Fe  Fe613     1.0  0.96735  0.47935  0.58873  1.0000
  H   H7284     1.0  0.91563  0.38258  0.56688  1.0000
  C   C4249     1.0  0.95071  0.37030  0.49112  1.0000
  H   H7285     1.0  0.91099  0.13829  0.48482  1.0000
  H   H7286     1.0  0.93246  0.36890  0.56497  1.0000
  H   H7287     1.0  0.93938  0.46572  0.66767  1.0000
  H   H7288     1.0  0.96829  0.42058  0.67260  1.0000
  C   C4250     1.0  0.94268  0.44188  0.73057  1.0000
  H   H7289     1.0  0.79717  0.04263  0.49181  1.0000
  C   C4251     1.0  0.86002  0.42985  0.59997  1.0000
  C   C4252     1.0  0.98314  0.16832  0.55426  1.0000
  N   N304      1.0  0.76354  0.01064  0.53212  1.0000
  N   N305      1.0  0.87889  0.35868  0.51444  1.0000
  C   C4253     1.0  0.89019  0.35158  0.51247  1.0000
  C   C4254     1.0  0.87093  0.35192  0.51529  1.0000
  Fe  Fe614     1.0  0.98444  0.41659  0.53897  1.0000
  C   C4255     1.0  0.93233  0.37682  0.55879  1.0000
  H   H7290     1.0  0.91659  0.37748  0.55521  1.0000
  C   C4256     1.0  0.95079  0.36861  0.55027  1.0000
  H   H7291     1.0  0.95580  0.36497  0.54323  1.0000
  H   H7292     1.0  0.92144  0.29240  0.56077  1.0000
  H   H7293     1.0  0.80897  0.11217  0.55974  1.0000
  H   H7294     1.0  0.75020  0.02439  0.53489  1.0000
  H   H7295     1.0  0.81230  0.06817  0.56870  1.0000
  H   H7296     1.0  0.77376  0.06100  0.50874  1.0000
  C   C4257     1.0  0.78520  0.07385  0.53074  1.0000
  H   H7297     1.0  0.85504  0.11498  0.51415  1.0000
  H   H7298     1.0  0.94552  0.18227  0.56835  1.0000
  H   H7299     1.0  0.87552  0.48088  0.71405  1.0000
  H   H7300     1.0  0.85800  0.42372  0.59685  1.0000
  H   H7301     1.0  0.85356  0.43138  0.60733  1.0000
  H   H7302     1.0  0.86768  0.42619  0.60278  1.0000
  C   C4258     1.0  0.93091  0.43491  0.66513  1.0000
  N   N306      1.0  0.93990  0.37514  0.54800  1.0000
  C   C4259     1.0  0.92035  0.38223  0.55840  1.0000
  H   H7303     1.0  0.96215  0.16997  0.56098  1.0000
  H   H7304     1.0  0.84278  0.14837  0.48717  1.0000
  H   H7305     1.0  0.86457  0.33750  0.52478  1.0000
  H   H7306     1.0  0.98462  0.18507  0.54999  1.0000
  N   N307      1.0  0.93424  0.45033  0.72505  1.0000
  C   C4260     1.0  0.87307  0.14384  0.48757  1.0000
  H   H7307     1.0  0.88152  0.14255  0.48770  1.0000
  H   H7308     1.0  0.79843  0.08169  0.48891  1.0000
  H   H7309     1.0  0.95886  0.28473  0.50815  1.0000
  C   C4261     1.0  0.86416  0.48512  0.72852  1.0000
  H   H7310     1.0  0.97921  0.16299  0.55199  1.0000
  H   H7311     1.0  0.94533  0.45979  0.71327  1.0000
  H   H7312     1.0  0.94186  0.39072  0.49492  1.0000
  Fe  Fe615     1.0  0.97294  0.45259  0.70855  1.0000
  H   H7313     1.0  0.94831  0.30186  0.49269  1.0000
  H   H7314     1.0  0.92707  0.48467  0.56617  1.0000
  H   H7315     1.0  0.90007  0.36299  0.50085  1.0000
  Fe  Fe616     1.0  0.97748  0.45592  0.68369  1.0000
  C   C4262     1.0  0.97535  0.10284  0.48646  1.0000
  H   H7316     1.0  0.92386  0.45099  0.70277  1.0000
  H   H7317     1.0  0.95493  0.40062  0.49491  1.0000
  H   H7318     1.0  0.91857  0.45942  0.71271  1.0000
  C   C4263     1.0  0.93931  0.48802  0.57202  1.0000
  H   H7319     1.0  0.87408  0.47393  0.69934  1.0000
  C   C4264     1.0  0.92363  0.45276  0.73315  1.0000
  C   C4265     1.0  0.92997  0.48074  0.63045  1.0000
  H   H7320     1.0  0.97897  0.20229  0.53955  1.0000
  C   C4266     1.0  0.98076  0.34967  0.54410  1.0000
  C   C4267     1.0  0.94464  0.48810  0.67466  1.0000
  S   S1227     1.0  0.98629  0.11391  0.52757  1.0000
  H   H7321     1.0  0.90546  0.24274  0.48611  1.0000
  H   H7322     1.0  0.88472  0.09505  0.48834  1.0000
  C   C4268     1.0  0.94828  0.10352  0.50759  1.0000
  C   C4269     1.0  0.89606  0.48487  0.71306  1.0000
  H   H7323     1.0  0.94254  0.11126  0.50510  1.0000
  S   S1228     1.0  0.98527  0.32079  0.52080  1.0000
  Fe  Fe617     1.0  0.98095  0.41327  0.51783  1.0000
  H   H7324     1.0  0.86119  0.17897  0.49609  1.0000
  H   H7325     1.0  0.75153  0.99305  0.49421  1.0000
  H   H7326     1.0  0.85205  0.10251  0.49346  1.0000
  H   H7327     1.0  0.74722  0.01039  0.55128  1.0000
  C   C4270     1.0  0.80605  0.00181  0.48579  1.0000
  H   H7328     1.0  0.95692  0.26293  0.49093  1.0000
  H   H7329     1.0  0.98358  0.45641  0.50093  1.0000
  H   H7330     1.0  0.95666  0.19089  0.58142  1.0000
  H   H7331     1.0  0.79366  0.06241  0.48957  1.0000
  H   H7332     1.0  0.98007  0.45293  0.63151  1.0000
  H   H7333     1.0  0.95324  0.48518  0.67406  1.0000
  H   H7334     1.0  0.91146  0.19206  0.48541  1.0000
  H   H7335     1.0  0.87837  0.34426  0.48561  1.0000
  H   H7336     1.0  0.98515  0.17937  0.48480  1.0000
  C   C4271     1.0  0.89057  0.10951  0.48603  1.0000
  C   C4272     1.0  0.98353  0.42568  0.57657  1.0000
  H   H7337     1.0  0.98450  0.45270  0.56924  1.0000
  Fe  Fe618     1.0  0.73798  0.05107  0.52923  1.0000
  H   H7338     1.0  0.85545  0.48553  0.73245  1.0000
  C   C4273     1.0  0.82477  0.08296  0.48466  1.0000
  H   H7339     1.0  0.94771  0.40766  0.48445  1.0000
  C   C4274     1.0  0.90470  0.31931  0.48445  1.0000
  H   H7340     1.0  0.92370  0.29828  0.48448  1.0000
  H   H7341     1.0  0.97851  0.40270  0.77668  1.0000
  H   H7342     1.0  0.95391  0.48646  0.83010  1.0000
  C   C4275     1.0  0.80148  0.43042  0.89885  1.0000
  Fe  Fe619     1.0  0.79904  0.45812  0.93282  1.0000
  S   S1229     1.0  0.81189  0.44776  0.94191  1.0000
  S   S1230     1.0  0.78761  0.44831  0.93236  1.0000
  H   H7343     1.0  0.95742  0.43420  0.86305  1.0000
  Fe  Fe620     1.0  0.82316  0.45702  0.92867  1.0000
  S   S1231     1.0  0.84024  0.44853  0.92202  1.0000
  H   H7344     1.0  0.91814  0.45340  0.83605  1.0000
  S   S1232     1.0  0.81061  0.46645  0.91887  1.0000
  H   H7345     1.0  0.91013  0.47531  0.83401  1.0000
  C   C4276     1.0  0.81597  0.47330  0.96878  1.0000
  S   S1233     1.0  0.74665  0.47093  0.91137  1.0000
  N   N308      1.0  0.97644  0.48216  0.82150  1.0000
  C   C4277     1.0  0.94637  0.40723  0.88411  1.0000
  H   H7346     1.0  0.83363  0.45338  0.97947  1.0000
  C   C4278     1.0  0.96633  0.44883  0.74542  1.0000
  H   H7347     1.0  0.85076  0.48323  0.93564  1.0000
  H   H7348     1.0  0.94428  0.48277  0.73844  1.0000
  S   S1234     1.0  0.97370  0.47330  0.88270  1.0000
  C   C4279     1.0  0.77903  0.43826  0.97465  1.0000
  H   H7349     1.0  0.96344  0.45355  0.76086  1.0000
  Fe  Fe621     1.0  0.89341  0.47622  0.77452  1.0000
  S   S1235     1.0  0.91128  0.47216  0.77374  1.0000
  H   H7350     1.0  0.94250  0.48644  0.75739  1.0000
  Fe  Fe622     1.0  0.89633  0.47859  0.74966  1.0000
  S   S1236     1.0  0.91434  0.47456  0.74714  1.0000
  H   H7351     1.0  0.97032  0.47267  0.83770  1.0000
  Fe  Fe623     1.0  0.91194  0.46151  0.76249  1.0000
  S   S1237     1.0  0.92235  0.44445  0.76347  1.0000
  H   H7352     1.0  0.74695  0.48210  0.94101  1.0000
  S   S1238     1.0  0.94234  0.48805  0.79892  1.0000
  S   S1239     1.0  0.89396  0.46459  0.76424  1.0000
  C   C4280     1.0  0.95737  0.47785  0.82924  1.0000
  Fe  Fe624     1.0  0.87663  0.46440  0.86532  1.0000
  H   H7353     1.0  0.97655  0.47536  0.80800  1.0000
  S   S1240     1.0  0.86176  0.45715  0.87114  1.0000
  Fe  Fe625     1.0  0.90092  0.46301  0.86068  1.0000
  S   S1241     1.0  0.89866  0.48124  0.85625  1.0000
  S   S1242     1.0  0.91856  0.45449  0.85836  1.0000
  S   S1243     1.0  0.88892  0.48575  0.73476  1.0000
  H   H7354     1.0  0.93150  0.45544  0.83011  1.0000
  Fe  Fe626     1.0  0.88719  0.48086  0.84654  1.0000
  H   H7355     1.0  0.78704  0.43435  0.97679  1.0000
  S   S1244     1.0  0.88789  0.46280  0.87614  1.0000
  S   S1245     1.0  0.89009  0.46249  0.85027  1.0000
  C   C4281     1.0  0.93686  0.46786  0.87504  1.0000
  C   C4282     1.0  0.94239  0.46290  0.86616  1.0000
  C   C4283     1.0  0.93671  0.45908  0.86085  1.0000
  C   C4284     1.0  0.92545  0.46026  0.86434  1.0000
  C   C4285     1.0  0.91986  0.46566  0.87289  1.0000
  C   C4286     1.0  0.92556  0.46943  0.87824  1.0000
  H   H7356     1.0  0.76664  0.44354  0.93739  1.0000
  H   H7357     1.0  0.94106  0.45504  0.85414  1.0000
  H   H7358     1.0  0.91116  0.46665  0.87562  1.0000
  H   H7359     1.0  0.92120  0.47334  0.88504  1.0000
  H   H7360     1.0  0.97443  0.41623  0.79949  1.0000
  H   H7361     1.0  0.74911  0.47308  0.95860  1.0000
  H   H7362     1.0  0.84694  0.46780  0.92358  1.0000
  H   H7363     1.0  0.97405  0.41544  0.86944  1.0000
  C   C4287     1.0  0.88055  0.48030  0.82063  1.0000
  C   C4288     1.0  0.87852  0.47732  0.81192  1.0000
  H   H7364     1.0  0.93633  0.43663  0.86628  1.0000
  Fe  Fe627     1.0  0.80803  0.46162  0.95039  1.0000
  H   H7365     1.0  0.87602  0.47790  0.82893  1.0000
  H   H7366     1.0  0.87237  0.47268  0.81354  1.0000
  H   H7367     1.0  0.96672  0.42880  0.88098  1.0000
  H   H7368     1.0  0.97031  0.42468  0.75615  1.0000
  C   C4289     1.0  0.95310  0.42746  0.86762  1.0000
  Fe  Fe628     1.0  0.96203  0.46628  0.87847  1.0000
  C   C4290     1.0  0.88814  0.48669  0.81854  1.0000
  C   C4291     1.0  0.97493  0.48352  0.81006  1.0000
  C   C4292     1.0  0.96730  0.42463  0.76503  1.0000
  H   H7369     1.0  0.93864  0.40484  0.88504  1.0000
  H   H7370     1.0  0.94459  0.43209  0.85429  1.0000
  H   H7371     1.0  0.91854  0.48503  0.82836  1.0000
  C   C4293     1.0  0.94152  0.43832  0.78962  1.0000
  C   C4294     1.0  0.93240  0.43384  0.79208  1.0000
  C   C4295     1.0  0.92655  0.43561  0.78399  1.0000
  C   C4296     1.0  0.92981  0.44188  0.77348  1.0000
  C   C4297     1.0  0.93905  0.44615  0.77097  1.0000
  C   C4298     1.0  0.94494  0.44425  0.77902  1.0000
  H   H7372     1.0  0.92976  0.42918  0.80027  1.0000
  H   H7373     1.0  0.91940  0.43229  0.78593  1.0000
  H   H7374     1.0  0.94167  0.45088  0.76281  1.0000
  H   H7375     1.0  0.95225  0.44721  0.77699  1.0000
  C   C4299     1.0  0.90869  0.46267  0.81994  1.0000
  H   H7376     1.0  0.82442  0.44374  0.91177  1.0000
  H   H7377     1.0  0.96742  0.40527  0.87965  1.0000
  C   C4300     1.0  0.84607  0.45162  0.90786  1.0000
  C   C4301     1.0  0.83981  0.45756  0.90012  1.0000
  C   C4302     1.0  0.84470  0.45940  0.88884  1.0000
  C   C4303     1.0  0.85591  0.45564  0.88529  1.0000
  C   C4304     1.0  0.86219  0.45007  0.89306  1.0000
  C   C4305     1.0  0.85726  0.44793  0.90429  1.0000
  H   H7378     1.0  0.83122  0.46062  0.90276  1.0000
  H   H7379     1.0  0.83981  0.46373  0.88285  1.0000
  H   H7380     1.0  0.87082  0.44707  0.89038  1.0000
  H   H7381     1.0  0.86216  0.44336  0.91023  1.0000
  C   C4306     1.0  0.77609  0.45518  0.92690  1.0000
  C   C4307     1.0  0.76676  0.45085  0.93086  1.0000
  C   C4308     1.0  0.75755  0.45590  0.92641  1.0000
  C   C4309     1.0  0.75777  0.46509  0.91769  1.0000
  C   C4310     1.0  0.76708  0.46947  0.91375  1.0000
  C   C4311     1.0  0.77617  0.46465  0.91847  1.0000
  C   C4312     1.0  0.91847  0.47621  0.82983  1.0000
  H   H7382     1.0  0.75040  0.45247  0.92948  1.0000
  H   H7383     1.0  0.93375  0.43072  0.74356  1.0000
  H   H7384     1.0  0.78327  0.46813  0.91545  1.0000
  H   H7385     1.0  0.80739  0.42492  0.89370  1.0000
  H   H7386     1.0  0.93594  0.45751  0.80755  1.0000
  H   H7387     1.0  0.76217  0.45825  0.97210  1.0000
  C   C4313     1.0  0.89228  0.48635  0.79910  1.0000
  H   H7388     1.0  0.78254  0.43792  0.95727  1.0000
  H   H7389     1.0  0.83012  0.42288  0.91838  1.0000
  H   H7390     1.0  0.76562  0.48044  0.94612  1.0000
  C   C4314     1.0  0.95798  0.41843  0.76930  1.0000
  H   H7391     1.0  0.95089  0.40670  0.87566  1.0000
  H   H7392     1.0  0.83567  0.44132  0.88882  1.0000
  H   H7393     1.0  0.96641  0.48736  0.80954  1.0000
  H   H7394     1.0  0.76501  0.47220  0.93775  1.0000
  H   H7395     1.0  0.95567  0.47675  0.82175  1.0000
  H   H7396     1.0  0.90573  0.46927  0.81327  1.0000
  H   H7397     1.0  0.80829  0.42314  0.91302  1.0000
  S   S1246     1.0  0.97951  0.43702  0.85908  1.0000
  H   H7398     1.0  0.84620  0.47073  0.94108  1.0000
  N   N309      1.0  0.97637  0.42042  0.77112  1.0000
  H   H7399     1.0  0.79931  0.45401  0.90955  1.0000
  C   C4315     1.0  0.81982  0.47890  0.97422  1.0000
  S   S1247     1.0  0.74603  0.47897  0.97912  1.0000
  C   C4316     1.0  0.94683  0.43742  0.88227  1.0000
  H   H7400     1.0  0.83171  0.42704  0.97308  1.0000
  S   S1248     1.0  0.98015  0.46523  0.75831  1.0000
  H   H7401     1.0  0.94339  0.47134  0.74978  1.0000
  H   H7402     1.0  0.84238  0.42721  0.89059  1.0000
  C   C4317     1.0  0.98384  0.42836  0.76703  1.0000
  H   H7403     1.0  0.79935  0.43602  0.91363  1.0000
  S   S1249     1.0  0.97026  0.44894  0.88463  1.0000
  S   S1250     1.0  0.80453  0.45843  0.96881  1.0000
  H   H7404     1.0  0.76724  0.47662  0.90703  1.0000
  C   C4318     1.0  0.82253  0.42798  0.92226  1.0000
  Fe  Fe629     1.0  0.95787  0.45001  0.79501  1.0000
  C   C4319     1.0  0.96962  0.47430  0.82909  1.0000
  H   H7405     1.0  0.78924  0.44685  0.96016  1.0000
  C   C4320     1.0  0.96238  0.42199  0.88322  1.0000
  H   H7406     1.0  0.82224  0.43865  0.97739  1.0000
  H   H7407     1.0  0.82346  0.42917  0.89045  1.0000
  H   H7408     1.0  0.97867  0.48362  0.91697  1.0000
  H   H7409     1.0  0.96545  0.41517  0.78658  1.0000
  N   N310      1.0  0.84888  0.48365  0.91312  1.0000
  C   C4321     1.0  0.94856  0.47721  0.74475  1.0000
  H   H7410     1.0  0.77065  0.48396  0.93137  1.0000
  H   H7411     1.0  0.93884  0.44103  0.88001  1.0000
  H   H7412     1.0  0.97226  0.44364  0.82252  1.0000
  H   H7413     1.0  0.96117  0.41917  0.89230  1.0000
  H   H7414     1.0  0.81109  0.44317  0.91914  1.0000
  H   H7415     1.0  0.95960  0.44479  0.74795  1.0000
  C   C4322     1.0  0.94264  0.42979  0.86341  1.0000
  H   H7416     1.0  0.89625  0.45460  0.82027  1.0000
  S   S1251     1.0  0.82066  0.46982  0.93814  1.0000
  H   H7417     1.0  0.92372  0.43805  0.82420  1.0000
  C   C4323     1.0  0.73839  0.47291  0.97445  1.0000
  H   H7418     1.0  0.81943  0.47333  0.96020  1.0000
  H   H7419     1.0  0.95497  0.47670  0.75820  1.0000
  Fe  Fe630     1.0  0.80715  0.47865  0.92941  1.0000
  S   S1252     1.0  0.97079  0.46715  0.86098  1.0000
  H   H7420     1.0  0.93537  0.42292  0.88560  1.0000
  H   H7421     1.0  0.90909  0.44928  0.81233  1.0000
  H   H7422     1.0  0.97764  0.40998  0.88235  1.0000
  H   H7423     1.0  0.80386  0.46443  0.89842  1.0000
  H   H7424     1.0  0.90390  0.46527  0.82763  1.0000
  C   C4324     1.0  0.92461  0.45327  0.82840  1.0000
  C   C4325     1.0  0.90511  0.45239  0.81993  1.0000
  H   H7425     1.0  0.91812  0.47930  0.81281  1.0000
  C   C4326     1.0  0.81328  0.44803  0.89660  1.0000
  H   H7426     1.0  0.81990  0.45243  0.89491  1.0000
  H   H7427     1.0  0.97257  0.46613  0.82691  1.0000
  C   C4327     1.0  0.82516  0.42966  0.89819  1.0000
  S   S1253     1.0  0.79428  0.47134  0.94234  1.0000
  H   H7428     1.0  0.81302  0.44697  0.88847  1.0000
  H   H7429     1.0  0.90641  0.44584  0.82730  1.0000
  C   C4328     1.0  0.92449  0.46669  0.79749  1.0000
  H   H7430     1.0  0.95217  0.44316  0.87724  1.0000
  H   H7431     1.0  0.95107  0.46168  0.86357  1.0000
  H   H7432     1.0  0.97607  0.40484  0.75812  1.0000
  C   C4329     1.0  0.98585  0.48648  0.91126  1.0000
  H   H7433     1.0  0.93109  0.47282  0.81584  1.0000
  N   N311      1.0  0.92063  0.46156  0.81878  1.0000
  H   H7434     1.0  0.92648  0.47472  0.79646  1.0000
  C   C4330     1.0  0.94495  0.43825  0.89432  1.0000
  H   H7435     1.0  0.94195  0.44706  0.89475  1.0000
  H   H7436     1.0  0.95251  0.43533  0.89744  1.0000
  Fe  Fe631     1.0  0.91177  0.48558  0.75851  1.0000
  C   C4331     1.0  0.97065  0.41261  0.87831  1.0000
  S   S1254     1.0  0.94386  0.47199  0.88239  1.0000
  H   H7437     1.0  0.92627  0.45045  0.80752  1.0000
  H   H7438     1.0  0.93863  0.43391  0.89983  1.0000
  H   H7439     1.0  0.92955  0.46325  0.79031  1.0000
  H   H7440     1.0  0.93914  0.42240  0.86581  1.0000
  Fe  Fe632     1.0  0.98298  0.45601  0.88703  1.0000
  S   S1255     1.0  0.95857  0.45874  0.80735  1.0000
  H   H7441     1.0  0.82648  0.42104  0.90304  1.0000
  H   H7442     1.0  0.79856  0.43845  0.89359  1.0000
  H   H7443     1.0  0.95301  0.47249  0.83634  1.0000
  H   H7444     1.0  0.79625  0.45626  0.89628  1.0000
  H   H7445     1.0  0.94762  0.42492  0.73872  1.0000
  H   H7446     1.0  0.83893  0.43367  0.90189  1.0000
  H   H7447     1.0  0.75928  0.44121  0.96937  1.0000
  H   H7448     1.0  0.82621  0.48324  0.96979  1.0000
  N   N312      1.0  0.95158  0.42610  0.87985  1.0000
  H   H7449     1.0  0.95621  0.47228  0.74073  1.0000
  H   H7450     1.0  0.81629  0.42303  0.92618  1.0000
  C   C4332     1.0  0.80613  0.43159  0.90802  1.0000
  C   C4333     1.0  0.86615  0.47261  0.90229  1.0000
  C   C4334     1.0  0.92233  0.47263  0.81871  1.0000
  C   C4335     1.0  0.81835  0.43857  0.91420  1.0000
  C   C4336     1.0  0.92901  0.44120  0.82727  1.0000
  H   H7451     1.0  0.92994  0.43590  0.83544  1.0000
  C   C4337     1.0  0.76144  0.45131  0.97938  1.0000
  Fe  Fe633     1.0  0.97971  0.45012  0.86723  1.0000
  C   C4338     1.0  0.76416  0.48086  0.93804  1.0000
  H   H7452     1.0  0.77513  0.45089  0.95977  1.0000
  H   H7453     1.0  0.84390  0.45605  0.98426  1.0000
  H   H7454     1.0  0.77961  0.45938  0.97290  1.0000
  C   C4339     1.0  0.83606  0.43330  0.89478  1.0000
  H   H7455     1.0  0.87109  0.47758  0.90360  1.0000
  H   H7456     1.0  0.94343  0.41748  0.89538  1.0000
  H   H7457     1.0  0.82449  0.43032  0.92896  1.0000
  S   S1256     1.0  0.87281  0.48285  0.86064  1.0000
  H   H7458     1.0  0.96753  0.48657  0.75837  1.0000
  S   S1257     1.0  0.88093  0.47724  0.79033  1.0000
  H   H7459     1.0  0.79435  0.42663  0.90271  1.0000
  Fe  Fe634     1.0  0.88473  0.48110  0.87073  1.0000
  H   H7460     1.0  0.84964  0.47252  0.90309  1.0000
  Fe  Fe635     1.0  0.95576  0.47399  0.79421  1.0000
  C   C4340     1.0  0.80812  0.46721  0.97465  1.0000
  H   H7461     1.0  0.93718  0.44019  0.82175  1.0000
  C   C4341     1.0  0.74178  0.47085  0.96388  1.0000
  H   H7462     1.0  0.95835  0.42012  0.86464  1.0000
  C   C4342     1.0  0.96849  0.45373  0.75273  1.0000
  C   C4343     1.0  0.92714  0.45852  0.80807  1.0000
  S   S1258     1.0  0.95360  0.46542  0.78250  1.0000
  C   C4344     1.0  0.75533  0.44383  0.97724  1.0000
  H   H7463     1.0  0.86952  0.47107  0.89388  1.0000
  C   C4345     1.0  0.95056  0.48327  0.75238  1.0000
  H   H7464     1.0  0.95094  0.40108  0.89001  1.0000
  C   C4346     1.0  0.94385  0.41881  0.88644  1.0000
  C   C4347     1.0  0.80255  0.45593  0.90060  1.0000
  C   C4348     1.0  0.97551  0.44046  0.83865  1.0000
  S   S1259     1.0  0.94855  0.43670  0.79980  1.0000
  H   H7465     1.0  0.92395  0.47159  0.83551  1.0000
  H   H7466     1.0  0.91595  0.46790  0.79704  1.0000
  C   C4349     1.0  0.78162  0.44388  0.96233  1.0000
  H   H7467     1.0  0.92516  0.45309  0.74101  1.0000
  N   N313      1.0  0.81572  0.43696  0.90425  1.0000
  C   C4350     1.0  0.83039  0.43335  0.97787  1.0000
  C   C4351     1.0  0.77834  0.45423  0.98139  1.0000
  H   H7468     1.0  0.95233  0.42107  0.77668  1.0000
  H   H7469     1.0  0.86710  0.46444  0.90802  1.0000
  C   C4352     1.0  0.97925  0.41676  0.79092  1.0000
  H   H7470     1.0  0.83720  0.48264  0.93546  1.0000
  Fe  Fe636     1.0  0.97609  0.45726  0.79893  1.0000
  H   H7471     1.0  0.96820  0.43749  0.84285  1.0000
  N   N314      1.0  0.77226  0.44567  0.98231  1.0000
  C   C4353     1.0  0.98384  0.40563  0.75922  1.0000
  H   H7472     1.0  0.91126  0.44448  0.74442  1.0000
  C   C4354     1.0  0.85412  0.47854  0.90327  1.0000
  C   C4355     1.0  0.97779  0.44393  0.82714  1.0000
  H   H7473     1.0  0.96667  0.42899  0.78392  1.0000
  C   C4356     1.0  0.88435  0.48034  0.80114  1.0000
  H   H7474     1.0  0.93615  0.46537  0.73610  1.0000
  Fe  Fe637     1.0  0.97154  0.46309  0.77613  1.0000
  S   S1260     1.0  0.97570  0.44703  0.78779  1.0000
  H   H7475     1.0  0.95315  0.42053  0.76293  1.0000
  H   H7476     1.0  0.96351  0.43335  0.76540  1.0000
  C   C4357     1.0  0.97715  0.45899  0.74943  1.0000
  H   H7477     1.0  0.94414  0.44468  0.73727  1.0000
  C   C4358     1.0  0.83690  0.48747  0.91339  1.0000
  H   H7478     1.0  0.97383  0.48608  0.84212  1.0000
  H   H7479     1.0  0.96090  0.40939  0.77132  1.0000
  H   H7480     1.0  0.97124  0.48087  0.74137  1.0000
  S   S1261     1.0  0.97337  0.47330  0.78663  1.0000
  C   C4359     1.0  0.84580  0.47824  0.93438  1.0000
  H   H7481     1.0  0.83668  0.43820  0.97374  1.0000
  C   C4360     1.0  0.85047  0.47478  0.92327  1.0000
  H   H7482     1.0  0.73864  0.46375  0.95224  1.0000
  C   C4361     1.0  0.97136  0.42057  0.78307  1.0000
  H   H7483     1.0  0.78662  0.45030  0.98285  1.0000
  H   H7484     1.0  0.83311  0.48029  0.91529  1.0000
  H   H7485     1.0  0.74700  0.44850  0.97656  1.0000
  H   H7486     1.0  0.77544  0.43114  0.97561  1.0000
  H   H7487     1.0  0.85376  0.48485  0.89547  1.0000
  H   H7488     1.0  0.85921  0.47124  0.92314  1.0000
  H   H7489     1.0  0.92979  0.48808  0.85954  1.0000
  H   H7490     1.0  0.97925  0.43674  0.76818  1.0000
  C   C4362     1.0  0.98253  0.44107  0.84470  1.0000
  H   H7491     1.0  0.75448  0.43655  0.98404  1.0000
  C   C4363     1.0  0.91592  0.44486  0.73580  1.0000
  C   C4364     1.0  0.98339  0.45967  0.73869  1.0000
  Fe  Fe638     1.0  0.98323  0.47267  0.86553  1.0000
  C   C4365     1.0  0.94027  0.43044  0.73601  1.0000
  C   C4366     1.0  0.98249  0.40888  0.77018  1.0000
  H   H7492     1.0  0.98487  0.43123  0.74910  1.0000
  C   C4367     1.0  0.75283  0.48731  0.93614  1.0000
  H   H7493     1.0  0.75320  0.48758  0.92742  1.0000
  H   H7494     1.0  0.98430  0.42275  0.78960  1.0000
  C   C4368     1.0  0.97278  0.44926  0.73477  1.0000
  H   H7495     1.0  0.91983  0.43633  0.73507  1.0000
  H   H7496     1.0  0.98555  0.48567  0.90306  1.0000
  H   H7497     1.0  0.98450  0.40851  0.79041  1.0000
  H   H7498     1.0  0.94243  0.48914  0.05040  1.0000
  Fe  Fe639     1.0  0.90582  0.53556  0.19435  1.0000
  S   S1262     1.0  0.91123  0.55059  0.18337  1.0000
  S   S1263     1.0  0.91518  0.52444  0.20676  1.0000
  Fe  Fe640     1.0  0.88548  0.54046  0.18578  1.0000
  S   S1264     1.0  0.88912  0.55602  0.17420  1.0000
  S   S1265     1.0  0.86967  0.53644  0.18678  1.0000
  Fe  Fe641     1.0  0.90611  0.54604  0.17042  1.0000
  S   S1266     1.0  0.91728  0.54524  0.15375  1.0000
  Fe  Fe642     1.0  0.89387  0.55896  0.18825  1.0000
  S   S1267     1.0  0.88890  0.57528  0.19298  1.0000
  S   S1268     1.0  0.90214  0.53019  0.18111  1.0000
  S   S1269     1.0  0.88876  0.54429  0.20017  1.0000
  H   H7499     1.0  0.92438  0.58188  0.14820  1.0000
  Fe  Fe643     1.0  0.95641  0.55175  0.20844  1.0000
  H   H7500     1.0  0.96209  0.54134  0.15495  1.0000
  S   S1270     1.0  0.94019  0.55189  0.21984  1.0000
  S   S1271     1.0  0.96972  0.56277  0.16799  1.0000
  H   H7501     1.0  0.88925  0.50931  0.21768  1.0000
  H   H7502     1.0  0.96017  0.51414  0.17407  1.0000
  C   C4369     1.0  0.75223  0.50244  0.01053  1.0000
  C   C4370     1.0  0.81487  0.51679  0.00695  1.0000
  H   H7503     1.0  0.86745  0.55769  0.21780  1.0000
  C   C4371     1.0  0.89467  0.55821  0.05142  1.0000
  C   C4372     1.0  0.81100  0.52334  0.98824  1.0000
  S   S1272     1.0  0.96333  0.54177  0.19558  1.0000
  H   H7504     1.0  0.92797  0.49499  0.10989  1.0000
  H   H7505     1.0  0.89444  0.49864  0.14458  1.0000
  S   S1273     1.0  0.86288  0.49342  0.10779  1.0000
  H   H7506     1.0  0.85118  0.50933  0.05949  1.0000
  Fe  Fe644     1.0  0.89644  0.55207  0.10224  1.0000
  S   S1274     1.0  0.89743  0.55932  0.08425  1.0000
  S   S1275     1.0  0.89306  0.56259  0.11442  1.0000
  Fe  Fe645     1.0  0.89968  0.52899  0.09936  1.0000
  S   S1276     1.0  0.90104  0.53413  0.08116  1.0000
  S   S1277     1.0  0.90246  0.51126  0.10774  1.0000
  Fe  Fe646     1.0  0.91134  0.54489  0.08202  1.0000
  S   S1278     1.0  0.92794  0.54536  0.07140  1.0000
  Fe  Fe647     1.0  0.88691  0.54788  0.08519  1.0000
  S   S1279     1.0  0.87182  0.55393  0.07803  1.0000
  S   S1280     1.0  0.91109  0.53850  0.09994  1.0000
  S   S1281     1.0  0.88478  0.54188  0.10351  1.0000
  C   C4373     1.0  0.89237  0.58024  0.02446  1.0000
  H   H7507     1.0  0.90957  0.52017  0.12183  1.0000
  H   H7508     1.0  0.92463  0.53915  0.23283  1.0000
  H   H7509     1.0  0.77540  0.53053  0.07913  1.0000
  Fe  Fe648     1.0  0.97078  0.54911  0.09925  1.0000
  H   H7510     1.0  0.93880  0.52074  0.18520  1.0000
  S   S1282     1.0  0.95323  0.55747  0.09976  1.0000
  H   H7511     1.0  0.91937  0.49566  0.09633  1.0000
  H   H7512     1.0  0.85950  0.51704  0.01612  1.0000
  H   H7513     1.0  0.84553  0.49249  0.06016  1.0000
  C   C4374     1.0  0.89142  0.51227  0.20871  1.0000
  H   H7514     1.0  0.92714  0.49846  0.12235  1.0000
  N   N315      1.0  0.90465  0.49312  0.20843  1.0000
  Fe  Fe649     1.0  0.84429  0.53789  0.03919  1.0000
  S   S1283     1.0  0.84036  0.52233  0.03860  1.0000
  S   S1284     1.0  0.86055  0.53431  0.04391  1.0000
  Fe  Fe650     1.0  0.82375  0.55177  0.03122  1.0000
  S   S1285     1.0  0.81848  0.53727  0.03016  1.0000
  S   S1286     1.0  0.81288  0.56840  0.02702  1.0000
  Fe  Fe651     1.0  0.82338  0.52962  0.04621  1.0000
  S   S1287     1.0  0.81276  0.52034  0.06016  1.0000
  Fe  Fe652     1.0  0.83591  0.53161  0.02252  1.0000
  S   S1288     1.0  0.84007  0.52442  0.00757  1.0000
  S   S1289     1.0  0.82741  0.54456  0.04806  1.0000
  S   S1290     1.0  0.84107  0.54668  0.02239  1.0000
  C   C4375     1.0  0.79972  0.56902  0.02573  1.0000
  H   H7515     1.0  0.88343  0.58253  0.02583  1.0000
  H   H7516     1.0  0.80395  0.55504  0.01831  1.0000
  H   H7517     1.0  0.93109  0.51139  0.23155  1.0000
  C   C4376     1.0  0.80930  0.50175  0.04159  1.0000
  C   C4377     1.0  0.81314  0.50883  0.04525  1.0000
  C   C4378     1.0  0.80847  0.51106  0.05570  1.0000
  C   C4379     1.0  0.79994  0.50627  0.06244  1.0000
  H   H7518     1.0  0.78943  0.51038  0.01816  1.0000
  H   H7519     1.0  0.81286  0.50011  0.03352  1.0000
  H   H7520     1.0  0.81971  0.51254  0.04000  1.0000
  H   H7521     1.0  0.79635  0.50794  0.07054  1.0000
  H   H7522     1.0  0.78034  0.49150  0.98885  1.0000
  H   H7523     1.0  0.92442  0.56860  0.19501  1.0000
  C   C4380     1.0  0.83017  0.54484  0.99739  1.0000
  C   C4381     1.0  0.83584  0.53421  0.99628  1.0000
  H   H7524     1.0  0.95069  0.55784  0.15853  1.0000
  H   H7525     1.0  0.89627  0.55106  0.04763  1.0000
  H   H7526     1.0  0.73791  0.51462  0.03180  1.0000
  H   H7527     1.0  0.82854  0.54718  0.00515  1.0000
  C   C4382     1.0  0.91618  0.58033  0.11467  1.0000
  C   C4383     1.0  0.97079  0.50321  0.07669  1.0000
  H   H7528     1.0  0.94944  0.55460  0.17329  1.0000
  C   C4384     1.0  0.80066  0.49708  0.04828  1.0000
  H   H7529     1.0  0.77638  0.57746  0.98935  1.0000
  C   C4385     1.0  0.97342  0.55900  0.14737  1.0000
  C   C4386     1.0  0.96810  0.51365  0.07910  1.0000
  S   S1291     1.0  0.98151  0.55633  0.10481  1.0000
  H   H7530     1.0  0.93092  0.51705  0.17824  1.0000
  H   H7531     1.0  0.97284  0.52453  0.08592  1.0000
  H   H7532     1.0  0.96035  0.51906  0.07816  1.0000
  C   C4387     1.0  0.86846  0.54755  0.06942  1.0000
  C   C4388     1.0  0.87591  0.53919  0.06471  1.0000
  C   C4389     1.0  0.87331  0.53514  0.05700  1.0000
  C   C4390     1.0  0.86323  0.53936  0.05399  1.0000
  C   C4391     1.0  0.85567  0.54751  0.05891  1.0000
  C   C4392     1.0  0.85831  0.55163  0.06654  1.0000
  H   H7533     1.0  0.88373  0.53597  0.06686  1.0000
  H   H7534     1.0  0.87916  0.52876  0.05329  1.0000
  H   H7535     1.0  0.84789  0.55082  0.05666  1.0000
  H   H7536     1.0  0.85253  0.55814  0.07010  1.0000
  C   C4393     1.0  0.93525  0.54882  0.07892  1.0000
  C   C4394     1.0  0.94656  0.54527  0.07727  1.0000
  C   C4395     1.0  0.95221  0.54776  0.08370  1.0000
  C   C4396     1.0  0.94655  0.55393  0.09166  1.0000
  C   C4397     1.0  0.93528  0.55747  0.09322  1.0000
  C   C4398     1.0  0.92966  0.55491  0.08691  1.0000
  H   H7537     1.0  0.95093  0.54051  0.07113  1.0000
  H   H7538     1.0  0.96091  0.54498  0.08242  1.0000
  H   H7539     1.0  0.93080  0.56219  0.09931  1.0000
  H   H7540     1.0  0.92096  0.55781  0.08816  1.0000
  C   C4399     1.0  0.87353  0.49849  0.10846  1.0000
  C   C4400     1.0  0.87342  0.50967  0.10459  1.0000
  C   C4401     1.0  0.88242  0.51357  0.10420  1.0000
  C   C4402     1.0  0.89136  0.50635  0.10798  1.0000
  C   C4403     1.0  0.89141  0.49518  0.11200  1.0000
  C   C4404     1.0  0.84085  0.49772  0.06609  1.0000
  H   H7541     1.0  0.86656  0.51525  0.10154  1.0000
  H   H7542     1.0  0.88244  0.52215  0.10085  1.0000
  H   H7543     1.0  0.90888  0.57703  0.22550  1.0000
  H   H7544     1.0  0.89972  0.53541  0.13758  1.0000
  C   C4405     1.0  0.78670  0.56212  0.02075  1.0000
  C   C4406     1.0  0.86270  0.51191  0.07690  1.0000
  C   C4407     1.0  0.94681  0.49862  0.20315  1.0000
  H   H7545     1.0  0.86240  0.50619  0.08504  1.0000
  H   H7546     1.0  0.96396  0.50671  0.20773  1.0000
  H   H7547     1.0  0.91105  0.58714  0.19631  1.0000
  C   C4408     1.0  0.90394  0.59891  0.21681  1.0000
  S   S1292     1.0  0.77068  0.52410  0.00638  1.0000
  N   N316      1.0  0.91910  0.58324  0.20994  1.0000
  H   H7548     1.0  0.85568  0.49788  0.06968  1.0000
  H   H7549     1.0  0.96212  0.51003  0.22055  1.0000
  H   H7550     1.0  0.90834  0.55021  0.05919  1.0000
  C   C4409     1.0  0.97525  0.55463  0.15805  1.0000
  H   H7551     1.0  0.92127  0.50670  0.15006  1.0000
  H   H7552     1.0  0.94680  0.56982  0.13076  1.0000
  H   H7553     1.0  0.82805  0.50392  0.01223  1.0000
  C   C4410     1.0  0.93257  0.50249  0.16048  1.0000
  H   H7554     1.0  0.83345  0.52091  0.06480  1.0000
  N   N317      1.0  0.93155  0.57555  0.12523  1.0000
  C   C4411     1.0  0.86645  0.50060  0.01194  1.0000
  H   H7555     1.0  0.95145  0.55116  0.12919  1.0000
  C   C4412     1.0  0.90550  0.55823  0.05381  1.0000
  C   C4413     1.0  0.97929  0.50657  0.13770  1.0000
  H   H7556     1.0  0.78492  0.51979  0.04504  1.0000
  H   H7557     1.0  0.90387  0.58080  0.20890  1.0000
  H   H7558     1.0  0.89500  0.53378  0.12700  1.0000
  C   C4414     1.0  0.76052  0.50829  0.00647  1.0000
  H   H7559     1.0  0.95093  0.49004  0.20251  1.0000
  C   C4415     1.0  0.84139  0.49318  0.03401  1.0000
  H   H7560     1.0  0.80570  0.53843  0.00944  1.0000
  C   C4416     1.0  0.91052  0.54971  0.14283  1.0000
  C   C4417     1.0  0.91595  0.54747  0.13248  1.0000
  C   C4418     1.0  0.91067  0.55133  0.12364  1.0000
  C   C4419     1.0  0.90000  0.55753  0.12515  1.0000
  C   C4420     1.0  0.89473  0.55996  0.13540  1.0000
  C   C4421     1.0  0.89994  0.55600  0.14422  1.0000
  H   H7561     1.0  0.92421  0.54274  0.13129  1.0000
  H   H7562     1.0  0.91488  0.54964  0.11565  1.0000
  H   H7563     1.0  0.88653  0.56486  0.13657  1.0000
  H   H7564     1.0  0.89578  0.55804  0.15201  1.0000
  C   C4422     1.0  0.92162  0.53252  0.21046  1.0000
  C   C4423     1.0  0.92845  0.53860  0.20232  1.0000
  C   C4424     1.0  0.93415  0.54463  0.20515  1.0000
  C   C4425     1.0  0.93280  0.54478  0.21617  1.0000
  C   C4426     1.0  0.92570  0.53900  0.22430  1.0000
  C   C4427     1.0  0.92026  0.53270  0.22148  1.0000
  H   H7565     1.0  0.92958  0.53834  0.19390  1.0000
  H   H7566     1.0  0.93951  0.54922  0.19883  1.0000
  C   C4428     1.0  0.93093  0.58090  0.20439  1.0000
  H   H7567     1.0  0.75230  0.52505  0.02452  1.0000
  C   C4429     1.0  0.88585  0.57454  0.20721  1.0000
  C   C4430     1.0  0.89078  0.56554  0.21444  1.0000
  C   C4431     1.0  0.87871  0.58343  0.21128  1.0000
  H   H7568     1.0  0.89642  0.55868  0.21133  1.0000
  H   H7569     1.0  0.87491  0.59041  0.20574  1.0000
  C   C4432     1.0  0.87030  0.50618  0.17503  1.0000
  C   C4433     1.0  0.86151  0.51522  0.17457  1.0000
  C   C4434     1.0  0.86136  0.52446  0.17823  1.0000
  C   C4435     1.0  0.87012  0.52486  0.18210  1.0000
  C   C4436     1.0  0.87892  0.51588  0.18251  1.0000
  C   C4437     1.0  0.87888  0.50646  0.17926  1.0000
  H   H7570     1.0  0.85479  0.51506  0.17142  1.0000
  H   H7571     1.0  0.85447  0.53137  0.17799  1.0000
  H   H7572     1.0  0.88565  0.51617  0.18551  1.0000
  H   H7573     1.0  0.88550  0.49949  0.18002  1.0000
  C   C4438     1.0  0.87839  0.55966  0.03708  1.0000
  H   H7574     1.0  0.84816  0.52384  0.08069  1.0000
  C   C4439     1.0  0.93392  0.58704  0.19231  1.0000
  H   H7575     1.0  0.93435  0.57194  0.20499  1.0000
  H   H7576     1.0  0.94874  0.58749  0.12283  1.0000
  H   H7577     1.0  0.94805  0.56967  0.11700  1.0000
  C   C4440     1.0  0.89044  0.52981  0.23356  1.0000
  H   H7578     1.0  0.88094  0.58568  0.06328  1.0000
  H   H7579     1.0  0.89526  0.57832  0.01617  1.0000
  H   H7580     1.0  0.83315  0.49541  0.03236  1.0000
  H   H7581     1.0  0.81865  0.52390  0.00520  1.0000
  H   H7582     1.0  0.92596  0.50911  0.11003  1.0000
  H   H7583     1.0  0.84729  0.50744  0.02512  1.0000
  H   H7584     1.0  0.86736  0.50750  0.07028  1.0000
  H   H7585     1.0  0.96717  0.49073  0.12096  1.0000
  S   S1293     1.0  0.97012  0.54473  0.21698  1.0000
  H   H7586     1.0  0.82204  0.50008  0.00378  1.0000
  N   N318      1.0  0.84353  0.51104  0.07623  1.0000
  H   H7587     1.0  0.86663  0.56175  0.23021  1.0000
  C   C4441     1.0  0.87410  0.53803  0.13844  1.0000
  C   C4442     1.0  0.77049  0.54428  0.04687  1.0000
  H   H7588     1.0  0.97051  0.50715  0.14134  1.0000
  N   N319      1.0  0.78093  0.54073  0.05086  1.0000
  H   H7589     1.0  0.89775  0.59710  0.21370  1.0000
  C   C4443     1.0  0.83794  0.50850  0.09749  1.0000
  S   S1294     1.0  0.76456  0.57100  0.02543  1.0000
  C   C4444     1.0  0.95764  0.50883  0.21503  1.0000
  C   C4445     1.0  0.78419  0.55060  0.05187  1.0000
  C   C4446     1.0  0.76060  0.51646  0.01152  1.0000
  H   H7590     1.0  0.77418  0.58448  0.03184  1.0000
  C   C4447     1.0  0.74418  0.50457  0.01979  1.0000
  C   C4448     1.0  0.94299  0.55565  0.12884  1.0000
  H   H7591     1.0  0.82634  0.51349  0.07708  1.0000
  H   H7592     1.0  0.90809  0.50900  0.19974  1.0000
  C   C4449     1.0  0.86267  0.55789  0.22631  1.0000
  H   H7593     1.0  0.91074  0.56864  0.19593  1.0000
  H   H7594     1.0  0.87612  0.49257  0.14331  1.0000
  H   H7595     1.0  0.86856  0.50356  0.13444  1.0000
  C   C4450     1.0  0.82862  0.52898  0.07804  1.0000
  H   H7596     1.0  0.89720  0.52888  0.22631  1.0000
  C   C4451     1.0  0.88866  0.56559  0.22568  1.0000
  H   H7597     1.0  0.90208  0.60795  0.21599  1.0000
  H   H7598     1.0  0.93322  0.57427  0.10853  1.0000
  H   H7599     1.0  0.79300  0.58344  0.03251  1.0000
  H   H7600     1.0  0.79449  0.51243  0.99766  1.0000
  Fe  Fe653     1.0  0.97116  0.55577  0.18577  1.0000
  H   H7601     1.0  0.89270  0.52728  0.16266  1.0000
  S   S1295     1.0  0.76832  0.55621  0.00141  1.0000
  H   H7602     1.0  0.83434  0.49823  0.15584  1.0000
  H   H7603     1.0  0.93818  0.50653  0.07040  1.0000
  H   H7604     1.0  0.85853  0.49245  0.13219  1.0000
  Fe  Fe654     1.0  0.97728  0.55850  0.20579  1.0000
  H   H7605     1.0  0.78484  0.55616  0.01761  1.0000
  C   C4452     1.0  0.79501  0.54830  0.05536  1.0000
  C   C4453     1.0  0.91222  0.58069  0.20384  1.0000
  H   H7606     1.0  0.86730  0.51796  0.07671  1.0000
  H   H7607     1.0  0.84030  0.50218  0.10469  1.0000
  C   C4454     1.0  0.82672  0.55257  0.98838  1.0000
  C   C4455     1.0  0.93234  0.58747  0.12182  1.0000
  C   C4456     1.0  0.91555  0.59525  0.21023  1.0000
  H   H7608     1.0  0.76407  0.53443  0.07260  1.0000
  H   H7609     1.0  0.92750  0.53064  0.18010  1.0000
  C   C4457     1.0  0.95067  0.52016  0.21093  1.0000
  C   C4458     1.0  0.91762  0.57612  0.22138  1.0000
  C   C4459     1.0  0.98086  0.49634  0.07776  1.0000
  H   H7610     1.0  0.93780  0.55338  0.13708  1.0000
  H   H7611     1.0  0.88122  0.56294  0.02818  1.0000
  H   H7612     1.0  0.93560  0.59510  0.19183  1.0000
  C   C4460     1.0  0.94306  0.49953  0.21526  1.0000
  H   H7613     1.0  0.92763  0.52175  0.08072  1.0000
  H   H7614     1.0  0.89602  0.58019  0.04840  1.0000
  H   H7615     1.0  0.87308  0.57722  0.06179  1.0000
  H   H7616     1.0  0.94192  0.52101  0.21411  1.0000
  H   H7617     1.0  0.77741  0.52512  0.06051  1.0000
  C   C4461     1.0  0.84187  0.50333  0.08736  1.0000
  C   C4462     1.0  0.93993  0.49405  0.16570  1.0000
  H   H7618     1.0  0.93895  0.59988  0.12443  1.0000
  N   N320      1.0  0.89078  0.52254  0.14250  1.0000
  H   H7619     1.0  0.89897  0.50494  0.19475  1.0000
  H   H7620     1.0  0.90831  0.50905  0.05877  1.0000
  H   H7621     1.0  0.83357  0.53512  0.07324  1.0000
  H   H7622     1.0  0.77209  0.54776  0.03784  1.0000
  H   H7623     1.0  0.82899  0.51136  0.09935  1.0000
  Fe  Fe655     1.0  0.97766  0.53589  0.20336  1.0000
  H   H7624     1.0  0.91607  0.58924  0.11212  1.0000
  N   N321      1.0  0.95182  0.49957  0.22066  1.0000
  C   C4463     1.0  0.79592  0.49944  0.05866  1.0000
  H   H7625     1.0  0.91771  0.51401  0.08700  1.0000
  H   H7626     1.0  0.91008  0.51927  0.06487  1.0000
  H   H7627     1.0  0.92645  0.56462  0.11866  1.0000
  N   N322      1.0  0.80635  0.51945  0.00035  1.0000
  C   C4464     1.0  0.86729  0.51211  0.01242  1.0000
  C   C4465     1.0  0.80117  0.50991  0.00217  1.0000
  H   H7628     1.0  0.86146  0.50247  0.03444  1.0000
  H   H7629     1.0  0.87912  0.51394  0.14183  1.0000
  Fe  Fe656     1.0  0.75273  0.56324  0.99575  1.0000
  C   C4466     1.0  0.79652  0.50476  0.01422  1.0000
  H   H7630     1.0  0.93963  0.50077  0.19945  1.0000
  H   H7631     1.0  0.79384  0.54599  0.00452  1.0000
  H   H7632     1.0  0.79099  0.53101  0.99944  1.0000
  C   C4467     1.0  0.74416  0.51286  0.02469  1.0000
  H   H7633     1.0  0.97393  0.55525  0.23341  1.0000
  H   H7634     1.0  0.89023  0.49202  0.22171  1.0000
  H   H7635     1.0  0.86986  0.51681  0.00393  1.0000
  H   H7636     1.0  0.92745  0.51594  0.06537  1.0000
  H   H7637     1.0  0.79624  0.55612  0.05621  1.0000
  H   H7638     1.0  0.89834  0.48958  0.11490  1.0000
  H   H7639     1.0  0.89818  0.51379  0.06977  1.0000
  H   H7640     1.0  0.97507  0.49381  0.10727  1.0000
  H   H7641     1.0  0.80276  0.50174  0.01922  1.0000
  H   H7642     1.0  0.91200  0.55907  0.04629  1.0000
  H   H7643     1.0  0.80609  0.54223  0.99485  1.0000
  H   H7644     1.0  0.95374  0.49826  0.14078  1.0000
  H   H7645     1.0  0.91426  0.57805  0.10790  1.0000
  H   H7646     1.0  0.93139  0.51086  0.16121  1.0000
  H   H7647     1.0  0.94986  0.53219  0.18324  1.0000
  C   C4468     1.0  0.83287  0.51821  0.07384  1.0000
  C   C4469     1.0  0.84893  0.49893  0.02411  1.0000
  S   S1296     1.0  0.75348  0.54573  0.02491  1.0000
  H   H7648     1.0  0.78817  0.52826  0.06345  1.0000
  H   H7649     1.0  0.93254  0.57563  0.22635  1.0000
  H   H7650     1.0  0.87488  0.49609  0.00906  1.0000
  S   S1297     1.0  0.98330  0.54461  0.08449  1.0000
  H   H7651     1.0  0.91574  0.52764  0.12722  1.0000
  H   H7652     1.0  0.95235  0.52232  0.20183  1.0000
  H   H7653     1.0  0.87901  0.53426  0.22311  1.0000
  C   C4470     1.0  0.83784  0.53128  0.98618  1.0000
  C   C4471     1.0  0.78009  0.53213  0.06144  1.0000
  H   H7654     1.0  0.84925  0.49672  0.08845  1.0000
  H   H7655     1.0  0.95086  0.54361  0.14906  1.0000
  C   C4472     1.0  0.90117  0.50483  0.20245  1.0000
  H   H7656     1.0  0.84476  0.50198  0.14435  1.0000
  C   C4473     1.0  0.88723  0.51557  0.13718  1.0000
  H   H7657     1.0  0.79352  0.52638  0.01286  1.0000
  H   H7658     1.0  0.87529  0.52626  0.15376  1.0000
  H   H7659     1.0  0.93505  0.58995  0.11272  1.0000
  H   H7660     1.0  0.95290  0.52652  0.21356  1.0000
  H   H7661     1.0  0.88940  0.51107  0.15816  1.0000
  H   H7662     1.0  0.85234  0.52351  0.06670  1.0000
  C   C4474     1.0  0.96106  0.52770  0.14936  1.0000
  H   H7663     1.0  0.92408  0.49037  0.06127  1.0000
  H   H7664     1.0  0.91619  0.56258  0.20785  1.0000
  H   H7665     1.0  0.91597  0.60041  0.20174  1.0000
  H   H7666     1.0  0.88379  0.58604  0.04385  1.0000
  C   C4475     1.0  0.92682  0.50014  0.15418  1.0000
  H   H7667     1.0  0.87347  0.51155  0.01697  1.0000
  H   H7668     1.0  0.88624  0.51996  0.12870  1.0000
  H   H7669     1.0  0.88327  0.55129  0.03955  1.0000
  H   H7670     1.0  0.90301  0.50440  0.13201  1.0000
  H   H7671     1.0  0.79510  0.54244  0.06340  1.0000
  C   C4476     1.0  0.88804  0.57851  0.04891  1.0000
  H   H7672     1.0  0.87862  0.54381  0.13206  1.0000
  H   H7673     1.0  0.90576  0.52596  0.15306  1.0000
  H   H7674     1.0  0.83572  0.49865  0.08811  1.0000
  C   C4477     1.0  0.94600  0.50025  0.12732  1.0000
  H   H7675     1.0  0.98599  0.49577  0.20723  1.0000
  C   C4478     1.0  0.87843  0.56746  0.04409  1.0000
  H   H7676     1.0  0.88911  0.55609  0.05948  1.0000
  H   H7677     1.0  0.97972  0.49062  0.13561  1.0000
  H   H7678     1.0  0.90466  0.56462  0.05832  1.0000
  C   C4479     1.0  0.92837  0.48951  0.08130  1.0000
  H   H7679     1.0  0.79450  0.52312  0.03264  1.0000
  H   H7680     1.0  0.83393  0.50325  0.06263  1.0000
  H   H7681     1.0  0.86994  0.55885  0.03826  1.0000
  C   C4480     1.0  0.79744  0.56139  0.02134  1.0000
  H   H7682     1.0  0.93146  0.50799  0.08865  1.0000
  C   C4481     1.0  0.92632  0.51325  0.08286  1.0000
  H   H7683     1.0  0.90956  0.57868  0.12195  1.0000
  C   C4482     1.0  0.95508  0.53186  0.17492  1.0000
  H   H7684     1.0  0.86012  0.54228  0.22682  1.0000
  C   C4483     1.0  0.87623  0.58325  0.22252  1.0000
  H   H7685     1.0  0.91506  0.52796  0.22786  1.0000
  H   H7686     1.0  0.82025  0.53266  0.07673  1.0000
  H   H7687     1.0  0.91582  0.57954  0.13595  1.0000
  H   H7688     1.0  0.92664  0.50372  0.05504  1.0000
  C   C4484     1.0  0.90708  0.51168  0.06653  1.0000
  Fe  Fe657     1.0  0.76173  0.54102  0.00876  1.0000
  H   H7689     1.0  0.90306  0.59515  0.22572  1.0000
  H   H7690     1.0  0.83080  0.50971  0.99771  1.0000
  C   C4485     1.0  0.76145  0.55318  0.05182  1.0000
  N   N323      1.0  0.88945  0.56860  0.04435  1.0000
  H   H7691     1.0  0.81132  0.51564  0.01593  1.0000
  C   C4486     1.0  0.82445  0.50710  0.00489  1.0000
  H   H7692     1.0  0.80692  0.50302  0.99875  1.0000
  H   H7693     1.0  0.94127  0.58197  0.18795  1.0000
  H   H7694     1.0  0.93574  0.57040  0.14625  1.0000
  H   H7695     1.0  0.75209  0.49632  0.00648  1.0000
  C   C4487     1.0  0.88086  0.53064  0.14686  1.0000
  H   H7696     1.0  0.93703  0.52999  0.16084  1.0000
  H   H7697     1.0  0.94572  0.49744  0.05730  1.0000
  N   N324      1.0  0.92447  0.49942  0.07281  1.0000
  H   H7698     1.0  0.93847  0.56318  0.16739  1.0000
  H   H7699     1.0  0.92125  0.56551  0.13745  1.0000
  C   C4488     1.0  0.92733  0.57325  0.11660  1.0000
  C   C4489     1.0  0.88150  0.57796  0.06084  1.0000
  H   H7700     1.0  0.83779  0.49207  0.07376  1.0000
  C   C4490     1.0  0.92700  0.57351  0.14648  1.0000
  C   C4491     1.0  0.94264  0.56811  0.12531  1.0000
  S   S1298     1.0  0.74333  0.56980  0.01070  1.0000
  H   H7701     1.0  0.82251  0.56083  0.98925  1.0000
  H   H7702     1.0  0.87044  0.59004  0.22562  1.0000
  H   H7703     1.0  0.88413  0.51391  0.20530  1.0000
  H   H7704     1.0  0.96670  0.53046  0.14157  1.0000
  C   C4492     1.0  0.92364  0.57339  0.13606  1.0000
  H   H7705     1.0  0.93881  0.58821  0.13560  1.0000
  H   H7706     1.0  0.75888  0.55090  0.06084  1.0000
  H   H7707     1.0  0.79729  0.53171  0.04535  1.0000
  H   H7708     1.0  0.92062  0.49835  0.18882  1.0000
  C   C4493     1.0  0.79753  0.52877  0.00409  1.0000
  C   C4494     1.0  0.93446  0.52381  0.17838  1.0000
  H   H7709     1.0  0.93507  0.54486  0.17614  1.0000
  H   H7710     1.0  0.93489  0.54837  0.16202  1.0000
  C   C4495     1.0  0.94017  0.59078  0.12656  1.0000
  H   H7711     1.0  0.76683  0.50650  0.99945  1.0000
  S   S1299     1.0  0.96115  0.49788  0.07408  1.0000
  H   H7712     1.0  0.86222  0.50197  0.00518  1.0000
  S   S1300     1.0  0.74699  0.54750  0.00164  1.0000
  H   H7713     1.0  0.79194  0.54198  0.03487  1.0000
  Fe  Fe658     1.0  0.75868  0.56166  0.01686  1.0000
  H   H7714     1.0  0.92423  0.59294  0.12395  1.0000
  C   C4496     1.0  0.96675  0.49339  0.11218  1.0000
  H   H7715     1.0  0.96589  0.52085  0.15445  1.0000
  C   C4497     1.0  0.78713  0.52669  0.03826  1.0000
  H   H7716     1.0  0.89883  0.56266  0.02963  1.0000
  H   H7717     1.0  0.88545  0.57113  0.06671  1.0000
  C   C4498     1.0  0.89665  0.57017  0.03303  1.0000
  H   H7718     1.0  0.90462  0.57128  0.03335  1.0000
  H   H7719     1.0  0.87392  0.56443  0.05252  1.0000
  H   H7720     1.0  0.90317  0.51537  0.16497  1.0000
  C   C4499     1.0  0.89456  0.50413  0.13635  1.0000
  H   H7721     1.0  0.78476  0.55670  0.04391  1.0000
  C   C4500     1.0  0.89853  0.52898  0.13422  1.0000
  C   C4501     1.0  0.77827  0.57038  0.02466  1.0000
  H   H7722     1.0  0.96465  0.51747  0.18399  1.0000
  C   C4502     1.0  0.91223  0.50235  0.07512  1.0000
  H   H7723     1.0  0.78925  0.49582  0.06386  1.0000
  H   H7724     1.0  0.94075  0.55262  0.12279  1.0000
  H   H7725     1.0  0.87114  0.53323  0.13450  1.0000
  H   H7726     1.0  0.75419  0.55447  0.04845  1.0000
  S   S1301     1.0  0.94707  0.49719  0.17349  1.0000
  S   S1302     1.0  0.79543  0.48862  0.04367  1.0000
  H   H7727     1.0  0.90864  0.50475  0.08314  1.0000
  H   H7728     1.0  0.94739  0.51920  0.16527  1.0000
  S   S1303     1.0  0.96285  0.56643  0.19813  1.0000
  H   H7729     1.0  0.82827  0.52776  0.08687  1.0000
  H   H7730     1.0  0.96011  0.53790  0.17362  1.0000
  H   H7731     1.0  0.80201  0.54532  0.04906  1.0000
  H   H7732     1.0  0.92762  0.58843  0.18766  1.0000
  H   H7733     1.0  0.92299  0.56786  0.15359  1.0000
  C   C4503     1.0  0.85131  0.51810  0.07505  1.0000
  H   H7734     1.0  0.78066  0.53015  0.03352  1.0000
  C   C4504     1.0  0.75233  0.51880  0.02054  1.0000
  H   H7735     1.0  0.86683  0.54317  0.14280  1.0000
  H   H7736     1.0  0.77799  0.55514  0.05771  1.0000
  C   C4505     1.0  0.92919  0.50891  0.07231  1.0000
  C   C4506     1.0  0.79580  0.57944  0.99357  1.0000
  C   C4507     1.0  0.88250  0.49125  0.11218  1.0000
  N   N325      1.0  0.94737  0.50543  0.11524  1.0000
  C   C4508     1.0  0.86802  0.49628  0.14137  1.0000
  C   C4509     1.0  0.95915  0.50473  0.10960  1.0000
  C   C4510     1.0  0.94162  0.51735  0.11393  1.0000
  C   C4511     1.0  0.97756  0.55267  0.13929  1.0000
  H   H7737     1.0  0.93905  0.49256  0.21984  1.0000
  C   C4512     1.0  0.93024  0.50068  0.11337  1.0000
  C   C4513     1.0  0.94176  0.52387  0.10200  1.0000
  C   C4514     1.0  0.95095  0.50495  0.13400  1.0000
  C   C4515     1.0  0.88119  0.57438  0.22976  1.0000
  C   C4516     1.0  0.98478  0.50930  0.08553  1.0000
  H   H7738     1.0  0.96251  0.51090  0.11127  1.0000
  H   H7739     1.0  0.96004  0.50686  0.10056  1.0000
  H   H7740     1.0  0.93304  0.51822  0.11851  1.0000
  H   H7741     1.0  0.94527  0.52178  0.11767  1.0000
  H   H7742     1.0  0.89256  0.55870  0.23120  1.0000
  C   C4517     1.0  0.92844  0.49640  0.06172  1.0000
  H   H7743     1.0  0.78715  0.58277  0.99698  1.0000
  H   H7744     1.0  0.88274  0.54544  0.22520  1.0000
  S   S1304     1.0  0.97434  0.53256  0.11051  1.0000
  C   C4518     1.0  0.96317  0.52062  0.17554  1.0000
  H   H7745     1.0  0.97108  0.52139  0.16978  1.0000
  H   H7746     1.0  0.94494  0.50162  0.10092  1.0000
  H   H7747     1.0  0.95008  0.52464  0.09739  1.0000
  H   H7748     1.0  0.93688  0.53235  0.10211  1.0000
  H   H7749     1.0  0.93813  0.52029  0.09747  1.0000
  H   H7750     1.0  0.94484  0.51158  0.13761  1.0000
  H   H7751     1.0  0.95812  0.50826  0.12916  1.0000
  H   H7752     1.0  0.93728  0.50123  0.13138  1.0000
  H   H7753     1.0  0.92119  0.59775  0.21357  1.0000
  H   H7754     1.0  0.91301  0.49648  0.23052  1.0000
  H   H7755     1.0  0.88307  0.53642  0.15035  1.0000
  H   H7756     1.0  0.77173  0.54420  0.07212  1.0000
  H   H7757     1.0  0.93633  0.50686  0.21564  1.0000
  H   H7758     1.0  0.95505  0.52468  0.14712  1.0000
  C   C4519     1.0  0.78065  0.57806  0.02881  1.0000
  H   H7759     1.0  0.92039  0.56729  0.22111  1.0000
  H   H7760     1.0  0.80062  0.58420  0.99545  1.0000
  C   C4520     1.0  0.90974  0.52244  0.12938  1.0000
  H   H7761     1.0  0.94161  0.51753  0.23243  1.0000
  H   H7762     1.0  0.84186  0.51522  0.09684  1.0000
  H   H7763     1.0  0.87317  0.57556  0.04126  1.0000
  C   C4521     1.0  0.92815  0.48931  0.15335  1.0000
  C   C4522     1.0  0.94519  0.55584  0.16663  1.0000
  H   H7764     1.0  0.76379  0.56124  0.04932  1.0000
  H   H7765     1.0  0.90245  0.50885  0.14988  1.0000
  H   H7766     1.0  0.91295  0.51498  0.13509  1.0000
  C   C4523     1.0  0.77230  0.53566  0.07177  1.0000
  H   H7767     1.0  0.76689  0.53709  0.04815  1.0000
  S   S1305     1.0  0.87048  0.49490  0.16990  1.0000
  C   C4524     1.0  0.89944  0.52155  0.15845  1.0000
  C   C4525     1.0  0.79131  0.57746  0.02922  1.0000
  H   H7768     1.0  0.84221  0.52307  0.98527  1.0000
  H   H7769     1.0  0.89529  0.58752  0.02436  1.0000
  C   C4526     1.0  0.80116  0.53940  0.00307  1.0000
  C   C4527     1.0  0.91629  0.56946  0.20054  1.0000
  C   C4528     1.0  0.78972  0.53560  0.04229  1.0000
  C   C4529     1.0  0.89547  0.51550  0.15219  1.0000
  N   N326      1.0  0.94845  0.53529  0.16626  1.0000
  C   C4530     1.0  0.94039  0.54589  0.16785  1.0000
  C   C4531     1.0  0.94205  0.52698  0.16715  1.0000
  C   C4532     1.0  0.95557  0.53752  0.15490  1.0000
  C   C4533     1.0  0.84837  0.50413  0.06769  1.0000
  C   C4534     1.0  0.98333  0.49776  0.13069  1.0000
  H   H7770     1.0  0.96877  0.56732  0.14534  1.0000
  C   C4535     1.0  0.90707  0.49857  0.22524  1.0000
  H   H7771     1.0  0.89332  0.52040  0.20737  1.0000
  H   H7772     1.0  0.79831  0.57080  0.99792  1.0000
  H   H7773     1.0  0.95218  0.50427  0.19819  1.0000
  H   H7774     1.0  0.93583  0.58320  0.20876  1.0000
  C   C4536     1.0  0.92362  0.57797  0.22912  1.0000
  H   H7775     1.0  0.98269  0.54041  0.16882  1.0000
  H   H7776     1.0  0.90908  0.49499  0.07583  1.0000
  H   H7777     1.0  0.90564  0.50757  0.22206  1.0000
  C   C4537     1.0  0.94266  0.49931  0.11005  1.0000
  H   H7778     1.0  0.97612  0.55611  0.13109  1.0000
  H   H7779     1.0  0.93671  0.48932  0.08182  1.0000
  H   H7780     1.0  0.77472  0.49385  0.01883  1.0000
  H   H7781     1.0  0.98337  0.50463  0.14461  1.0000
  C   C4538     1.0  0.94691  0.49979  0.23257  1.0000
  C   C4539     1.0  0.94072  0.49145  0.05843  1.0000
  H   H7782     1.0  0.79359  0.49750  0.01438  1.0000
  H   H7783     1.0  0.84585  0.50003  0.01663  1.0000
  H   H7784     1.0  0.88435  0.49578  0.20324  1.0000
  H   H7785     1.0  0.86255  0.49954  0.14845  1.0000
  C   C4540     1.0  0.88040  0.53748  0.22957  1.0000
  C   C4541     1.0  0.97512  0.51670  0.08356  1.0000
  C   C4542     1.0  0.98082  0.56958  0.22631  1.0000
  C   C4543     1.0  0.98371  0.54198  0.14184  1.0000
  H   H7786     1.0  0.81712  0.52820  0.98707  1.0000
  C   C4544     1.0  0.91191  0.49232  0.21590  1.0000
  H   H7787     1.0  0.85461  0.56348  0.22595  1.0000
  H   H7788     1.0  0.78997  0.56198  0.99125  1.0000
  H   H7789     1.0  0.89137  0.50028  0.13167  1.0000
  H   H7790     1.0  0.97250  0.49392  0.22523  1.0000
  H   H7791     1.0  0.89953  0.49633  0.23060  1.0000
  H   H7792     1.0  0.97001  0.51913  0.23275  1.0000
  H   H7793     1.0  0.97949  0.50120  0.12346  1.0000
  C   C4545     1.0  0.98126  0.54388  0.16062  1.0000
  H   H7794     1.0  0.98025  0.51479  0.13259  1.0000
  Fe  Fe659     1.0  0.73894  0.55327  0.01726  1.0000
  H   H7795     1.0  0.92111  0.58647  0.23042  1.0000
  H   H7796     1.0  0.91920  0.49562  0.21119  1.0000
  H   H7797     1.0  0.74501  0.49317  0.04713  1.0000
  H   H7798     1.0  0.94615  0.49033  0.11213  1.0000
  C   C4546     1.0  0.86537  0.49456  0.03177  1.0000
  N   N327      1.0  0.86090  0.49394  0.02248  1.0000
  H   H7799     1.0  0.84087  0.49578  0.04161  1.0000
  H   H7800     1.0  0.87419  0.49447  0.02896  1.0000
  C   C4547     1.0  0.84107  0.49498  0.14941  1.0000
  H   H7801     1.0  0.94899  0.49116  0.12882  1.0000
  H   H7802     1.0  0.83744  0.49209  0.14431  1.0000
  H   H7803     1.0  0.76905  0.49429  0.04236  1.0000
  S   S1306     1.0  0.98362  0.51781  0.20897  1.0000
  H   H7804     1.0  0.86050  0.52454  0.23284  1.0000
  H   H7805     1.0  0.87462  0.51788  0.23272  1.0000
  C   C4548     1.0  0.98351  0.57826  0.22858  1.0000
  Fe  Fe660     1.0  0.98606  0.53935  0.11489  1.0000
  C   C4549     1.0  0.86118  0.54628  0.23287  1.0000
  H   H7806     1.0  0.85213  0.48903  0.16040  1.0000
  C   C4550     1.0  0.92176  0.48951  0.19290  1.0000
  H   H7807     1.0  0.98319  0.48853  0.07538  1.0000
  S   S1307     1.0  0.98486  0.56802  0.21254  1.0000
  S   S1308     1.0  0.98631  0.54905  0.19253  1.0000
  H   H7808     1.0  0.75057  0.50330  0.04900  1.0000
  C   C4551     1.0  0.98549  0.53761  0.15251  1.0000
  C   C4552     1.0  0.96005  0.48883  0.22027  1.0000
  H   H7809     1.0  0.76093  0.49644  0.03279  1.0000
  C   C4553     1.0  0.76260  0.49129  0.04077  1.0000
  C   C4554     1.0  0.75212  0.49438  0.04926  1.0000
  H   H7810     1.0  0.75268  0.49000  0.05778  1.0000
  H   H7811     1.0  0.82270  0.50797  0.98481  1.0000
  S   S1309     1.0  0.79294  0.97304  0.47328  1.0000
  H   H7812     1.0  0.94015  0.74642  0.46196  1.0000
  C   C4555     1.0  0.86302  0.69094  0.46710  1.0000
  H   H7813     1.0  0.93664  0.54476  0.25824  1.0000
  H   H7814     1.0  0.97898  0.86169  0.40910  1.0000
  H   H7815     1.0  0.90462  0.50446  0.31529  1.0000
  Fe  Fe661     1.0  0.88634  0.55616  0.36382  1.0000
  S   S1310     1.0  0.89875  0.55091  0.34947  1.0000
  S   S1311     1.0  0.87326  0.54674  0.37258  1.0000
  Fe  Fe662     1.0  0.89589  0.57556  0.36303  1.0000
  S   S1312     1.0  0.90869  0.57170  0.34819  1.0000
  S   S1313     1.0  0.89944  0.58943  0.36822  1.0000
  Fe  Fe663     1.0  0.89572  0.56894  0.34191  1.0000
  S   S1314     1.0  0.89435  0.57627  0.32428  1.0000
  Fe  Fe664     1.0  0.91040  0.55417  0.35722  1.0000
  S   S1315     1.0  0.92716  0.54367  0.35746  1.0000
  S   S1316     1.0  0.88261  0.57425  0.35590  1.0000
  S   S1317     1.0  0.89823  0.55796  0.37235  1.0000
  H   H7816     1.0  0.92577  0.65596  0.42587  1.0000
  Fe  Fe665     1.0  0.96450  0.55783  0.38358  1.0000
  H   H7817     1.0  0.93513  0.50894  0.24406  1.0000
  S   S1318     1.0  0.94650  0.55980  0.38776  1.0000
  H   H7818     1.0  0.92251  0.66719  0.43994  1.0000
  H   H7819     1.0  0.88945  0.51231  0.35903  1.0000
  S   S1319     1.0  0.97500  0.81509  0.45188  1.0000
  H   H7820     1.0  0.90920  0.52954  0.36231  1.0000
  H   H7821     1.0  0.95119  0.75248  0.45953  1.0000
  C   C4556     1.0  0.83461  0.95435  0.40964  1.0000
  S   S1320     1.0  0.87820  0.49965  0.26181  1.0000
  Fe  Fe666     1.0  0.88886  0.56413  0.25452  1.0000
  S   S1321     1.0  0.90634  0.55868  0.24678  1.0000
  S   S1322     1.0  0.87721  0.57430  0.24389  1.0000
  Fe  Fe667     1.0  0.89195  0.55294  0.27781  1.0000
  S   S1323     1.0  0.90955  0.54653  0.27159  1.0000
  S   S1324     1.0  0.88712  0.54707  0.29623  1.0000
  Fe  Fe668     1.0  0.90925  0.56338  0.26087  1.0000
  S   S1325     1.0  0.92221  0.57210  0.25949  1.0000
  Fe  Fe669     1.0  0.90480  0.54254  0.25836  1.0000
  S   S1326     1.0  0.91359  0.52649  0.25361  1.0000
  S   S1327     1.0  0.89189  0.57014  0.26784  1.0000
  S   S1328     1.0  0.88697  0.54765  0.26523  1.0000
  C   C4557     1.0  0.87451  0.52875  0.33433  1.0000
  S   S1329     1.0  0.96597  0.73693  0.44718  1.0000
  S   S1330     1.0  0.96071  0.55941  0.29018  1.0000
  H   H7822     1.0  0.91500  0.49680  0.39752  1.0000
  Fe  Fe670     1.0  0.80072  0.97452  0.45551  1.0000
  Fe  Fe671     1.0  0.96318  0.54172  0.29015  1.0000
  S   S1331     1.0  0.94805  0.53640  0.29187  1.0000
  C   C4558     1.0  0.93360  0.80348  0.42849  1.0000
  Fe  Fe672     1.0  0.88680  0.61504  0.42069  1.0000
  S   S1332     1.0  0.89070  0.60729  0.43737  1.0000
  S   S1333     1.0  0.87906  0.60656  0.41270  1.0000
  Fe  Fe673     1.0  0.89464  0.63559  0.41876  1.0000
  S   S1334     1.0  0.89951  0.62947  0.43490  1.0000
  S   S1335     1.0  0.89785  0.65192  0.40850  1.0000
  Fe  Fe674     1.0  0.90601  0.61339  0.42976  1.0000
  S   S1336     1.0  0.92210  0.60304  0.43260  1.0000
  Fe  Fe675     1.0  0.88381  0.62407  0.44121  1.0000
  S   S1337     1.0  0.87353  0.62849  0.45717  1.0000
  S   S1338     1.0  0.90271  0.61994  0.41286  1.0000
  S   S1339     1.0  0.87831  0.63137  0.42531  1.0000
  C   C4559     1.0  0.96920  0.66085  0.40650  1.0000
  Fe  Fe676     1.0  0.88627  0.89927  0.46450  1.0000
  S   S1340     1.0  0.88421  0.91249  0.44947  1.0000
  N   N328      1.0  0.87025  0.53925  0.23836  1.0000
  Fe  Fe677     1.0  0.89250  0.88082  0.45200  1.0000
  S   S1341     1.0  0.89038  0.89274  0.43603  1.0000
  S   S1342     1.0  0.90083  0.86281  0.45292  1.0000
  Fe  Fe678     1.0  0.89935  0.90236  0.44095  1.0000
  S   S1343     1.0  0.91308  0.91006  0.42980  1.0000
  Fe  Fe679     1.0  0.87537  0.90176  0.44617  1.0000
  S   S1344     1.0  0.85828  0.90847  0.44328  1.0000
  S   S1345     1.0  0.90219  0.89010  0.45639  1.0000
  S   S1346     1.0  0.87673  0.88886  0.46175  1.0000
  Fe  Fe680     1.0  0.89606  0.70605  0.45506  1.0000
  S   S1347     1.0  0.88581  0.71422  0.44269  1.0000
  S   S1348     1.0  0.88963  0.70716  0.47267  1.0000
  Fe  Fe681     1.0  0.91474  0.69588  0.43860  1.0000
  S   S1349     1.0  0.90622  0.70321  0.42470  1.0000
  S   S1350     1.0  0.93168  0.68594  0.43695  1.0000
  Fe  Fe682     1.0  0.90121  0.71851  0.43156  1.0000
  S   S1351     1.0  0.90431  0.73511  0.42183  1.0000
  Fe  Fe683     1.0  0.89175  0.69816  0.43719  1.0000
  S   S1352     1.0  0.88017  0.68852  0.43666  1.0000
  S   S1353     1.0  0.91098  0.71135  0.44444  1.0000
  S   S1354     1.0  0.90084  0.68967  0.45055  1.0000
  Fe  Fe684     1.0  0.88912  0.80960  0.44857  1.0000
  S   S1355     1.0  0.90565  0.80382  0.45231  1.0000
  S   S1356     1.0  0.87877  0.82657  0.44980  1.0000
  Fe  Fe685     1.0  0.88946  0.78716  0.44477  1.0000
  S   S1357     1.0  0.90610  0.77981  0.44793  1.0000
  S   S1358     1.0  0.87970  0.77592  0.44364  1.0000
  Fe  Fe686     1.0  0.90031  0.78834  0.46185  1.0000
  S   S1359     1.0  0.90318  0.77955  0.47852  1.0000
  Fe  Fe687     1.0  0.90985  0.79594  0.43794  1.0000
  S   S1360     1.0  0.92587  0.79573  0.42607  1.0000
  S   S1361     1.0  0.88333  0.79473  0.45952  1.0000
  S   S1362     1.0  0.89363  0.80272  0.43338  1.0000
  H   H7823     1.0  0.96382  0.53524  0.24014  1.0000
  S   S1363     1.0  0.97654  0.54492  0.37555  1.0000
  H   H7824     1.0  0.74619  0.97093  0.48005  1.0000
  C   C4560     1.0  0.80269  0.95677  0.40305  1.0000
  H   H7825     1.0  0.84153  0.95368  0.41327  1.0000
  C   C4561     1.0  0.87239  0.64049  0.37211  1.0000
  C   C4562     1.0  0.90016  0.84832  0.39719  1.0000
  C   C4563     1.0  0.96570  0.51079  0.38370  1.0000
  C   C4564     1.0  0.92113  0.93894  0.46082  1.0000
  H   H7826     1.0  0.88135  0.84116  0.42699  1.0000
  N   N329      1.0  0.96482  0.66698  0.41565  1.0000
  C   C4565     1.0  0.86664  0.52077  0.23793  1.0000
  H   H7827     1.0  0.87767  0.53873  0.25149  1.0000
  C   C4566     1.0  0.98177  0.57929  0.23940  1.0000
  H   H7828     1.0  0.91737  0.66937  0.42281  1.0000
  H   H7829     1.0  0.96857  0.66641  0.39834  1.0000
  H   H7830     1.0  0.97916  0.73843  0.46282  1.0000
  C   C4567     1.0  0.94224  0.75406  0.46223  1.0000
  C   C4568     1.0  0.93728  0.76332  0.45344  1.0000
  H   H7831     1.0  0.91012  0.59181  0.31525  1.0000
  C   C4569     1.0  0.96852  0.55803  0.33772  1.0000
  H   H7832     1.0  0.93618  0.82902  0.45257  1.0000
  H   H7833     1.0  0.92944  0.64155  0.44005  1.0000
  C   C4570     1.0  0.89710  0.81640  0.48000  1.0000
  S   S1364     1.0  0.96848  0.89967  0.44971  1.0000
  H   H7834     1.0  0.95761  0.50822  0.41163  1.0000
  C   C4571     1.0  0.85485  0.94165  0.43597  1.0000
  C   C4572     1.0  0.77335  0.96927  0.43557  1.0000
  H   H7835     1.0  0.95994  0.80385  0.42589  1.0000
  C   C4573     1.0  0.95538  0.86526  0.48062  1.0000
  C   C4574     1.0  0.91882  0.79120  0.47423  1.0000
  H   H7836     1.0  0.91789  0.82857  0.48175  1.0000
  S   S1365     1.0  0.95413  0.82354  0.43416  1.0000
  H   H7837     1.0  0.97149  0.49150  0.39756  1.0000
  H   H7838     1.0  0.98588  0.52471  0.35154  1.0000
  H   H7839     1.0  0.92034  0.79069  0.46575  1.0000
  H   H7840     1.0  0.83014  0.94188  0.42360  1.0000
  H   H7841     1.0  0.95714  0.92946  0.48363  1.0000
  H   H7842     1.0  0.83152  0.96325  0.40654  1.0000
  C   C4575     1.0  0.85311  0.92100  0.48022  1.0000
  C   C4576     1.0  0.90292  0.72114  0.47011  1.0000
  H   H7843     1.0  0.94806  0.51469  0.25670  1.0000
  H   H7844     1.0  0.94314  0.49259  0.23658  1.0000
  Fe  Fe688     1.0  0.82046  0.96823  0.43822  1.0000
  S   S1366     1.0  0.96559  0.70793  0.44646  1.0000
  H   H7845     1.0  0.90439  0.72188  0.46140  1.0000
  C   C4577     1.0  0.81205  0.95733  0.40772  1.0000
  Fe  Fe689     1.0  0.97606  0.88634  0.46219  1.0000
  C   C4578     1.0  0.92451  0.79713  0.47723  1.0000
  C   C4579     1.0  0.89771  0.74626  0.42824  1.0000
  C   C4580     1.0  0.90119  0.75619  0.42421  1.0000
  C   C4581     1.0  0.89602  0.76519  0.42919  1.0000
  C   C4582     1.0  0.88700  0.76446  0.43791  1.0000
  C   C4583     1.0  0.88344  0.75456  0.44186  1.0000
  C   C4584     1.0  0.88892  0.74542  0.43720  1.0000
  H   H7846     1.0  0.90788  0.75693  0.41718  1.0000
  H   H7847     1.0  0.89874  0.77283  0.42600  1.0000
  H   H7848     1.0  0.87636  0.75396  0.44844  1.0000
  H   H7849     1.0  0.88610  0.73784  0.44030  1.0000
  H   H7850     1.0  0.88205  0.52480  0.39204  1.0000
  H   H7851     1.0  0.97136  0.55819  0.35325  1.0000
  C   C4585     1.0  0.93842  0.71970  0.42660  1.0000
  H   H7852     1.0  0.92097  0.59180  0.32085  1.0000
  S   S1367     1.0  0.94650  0.49158  0.38360  1.0000
  H   H7853     1.0  0.92582  0.50412  0.39365  1.0000
  H   H7854     1.0  0.87539  0.69079  0.48146  1.0000
  H   H7855     1.0  0.80885  0.96388  0.41255  1.0000
  H   H7856     1.0  0.93460  0.58182  0.30747  1.0000
  H   H7857     1.0  0.94292  0.94119  0.43241  1.0000
  C   C4586     1.0  0.85276  0.92275  0.44166  1.0000
  C   C4587     1.0  0.85944  0.93031  0.43778  1.0000
  H   H7858     1.0  0.94881  0.79300  0.42268  1.0000
  H   H7859     1.0  0.94012  0.50064  0.30678  1.0000
  C   C4588     1.0  0.94476  0.66702  0.41730  1.0000
  C   C4589     1.0  0.84145  0.92662  0.44404  1.0000
  H   H7860     1.0  0.86814  0.92744  0.43580  1.0000
  H   H7861     1.0  0.93838  0.57061  0.36288  1.0000
  H   H7862     1.0  0.85917  0.51657  0.34944  1.0000
  H   H7863     1.0  0.83625  0.92080  0.44712  1.0000
  C   C4590     1.0  0.92607  0.90174  0.43054  1.0000
  C   C4591     1.0  0.92737  0.89063  0.43578  1.0000
  C   C4592     1.0  0.93765  0.88433  0.43714  1.0000
  H   H7864     1.0  0.92772  0.49276  0.28329  1.0000
  H   H7865     1.0  0.87290  0.52374  0.25019  1.0000
  C   C4593     1.0  0.93518  0.90645  0.42647  1.0000
  H   H7866     1.0  0.92048  0.88683  0.43865  1.0000
  C   C4594     1.0  0.86177  0.62758  0.39627  1.0000
  H   H7867     1.0  0.92188  0.65982  0.47055  1.0000
  H   H7868     1.0  0.93425  0.91497  0.42216  1.0000
  C   C4595     1.0  0.89433  0.85292  0.45235  1.0000
  C   C4596     1.0  0.88330  0.85536  0.45232  1.0000
  C   C4597     1.0  0.87854  0.84718  0.45168  1.0000
  C   C4598     1.0  0.88479  0.83657  0.45101  1.0000
  C   C4599     1.0  0.89578  0.83418  0.45109  1.0000
  C   C4600     1.0  0.90052  0.84231  0.45176  1.0000
  H   H7869     1.0  0.87847  0.86355  0.45274  1.0000
  H   H7870     1.0  0.87002  0.84911  0.45156  1.0000
  H   H7871     1.0  0.90072  0.82616  0.45042  1.0000
  H   H7872     1.0  0.90908  0.84040  0.45153  1.0000
  Fe  Fe690     1.0  0.97465  0.61856  0.45743  1.0000
  H   H7873     1.0  0.97107  0.65603  0.46010  1.0000
  C   C4601     1.0  0.94201  0.54274  0.25044  1.0000
  H   H7874     1.0  0.96243  0.50443  0.38223  1.0000
  H   H7875     1.0  0.91322  0.73198  0.46863  1.0000
  C   C4602     1.0  0.85065  0.93938  0.48338  1.0000
  C   C4603     1.0  0.95541  0.53157  0.26116  1.0000
  C   C4604     1.0  0.86720  0.52851  0.24476  1.0000
  H   H7876     1.0  0.93969  0.52062  0.27435  1.0000
  C   C4605     1.0  0.93096  0.61169  0.43026  1.0000
  C   C4606     1.0  0.92826  0.62277  0.42505  1.0000
  C   C4607     1.0  0.93500  0.62982  0.42396  1.0000
  C   C4608     1.0  0.94447  0.62579  0.42803  1.0000
  C   C4609     1.0  0.94757  0.61455  0.43242  1.0000
  C   C4610     1.0  0.94078  0.60751  0.43364  1.0000
  H   H7877     1.0  0.92096  0.62594  0.42191  1.0000
  H   H7878     1.0  0.93274  0.63844  0.42019  1.0000
  C   C4611     1.0  0.97798  0.85893  0.41817  1.0000
  H   H7879     1.0  0.94304  0.59888  0.43740  1.0000
  C   C4612     1.0  0.89297  0.66214  0.41626  1.0000
  C   C4613     1.0  0.89768  0.67128  0.41331  1.0000
  C   C4614     1.0  0.89398  0.67932  0.41966  1.0000
  C   C4615     1.0  0.88525  0.67846  0.42870  1.0000
  C   C4616     1.0  0.88038  0.66946  0.43145  1.0000
  C   C4617     1.0  0.88438  0.66119  0.42541  1.0000
  H   H7880     1.0  0.90431  0.67205  0.40621  1.0000
  H   H7881     1.0  0.89770  0.68630  0.41741  1.0000
  H   H7882     1.0  0.87357  0.66879  0.43834  1.0000
  H   H7883     1.0  0.88068  0.65419  0.42774  1.0000
  C   C4618     1.0  0.97478  0.55863  0.34459  1.0000
  H   H7884     1.0  0.85318  0.54704  0.23877  1.0000
  C   C4619     1.0  0.89211  0.62386  0.46478  1.0000
  C   C4620     1.0  0.88124  0.62937  0.46587  1.0000
  H   H7885     1.0  0.94317  0.50195  0.34543  1.0000
  H   H7886     1.0  0.83930  0.93049  0.40616  1.0000
  H   H7887     1.0  0.92236  0.51132  0.37727  1.0000
  H   H7888     1.0  0.89571  0.61877  0.45881  1.0000
  H   H7889     1.0  0.93758  0.60572  0.47993  1.0000
  S   S1368     1.0  0.98202  0.68667  0.45843  1.0000
  H   H7890     1.0  0.91773  0.57901  0.32200  1.0000
  H   H7891     1.0  0.95954  0.52528  0.37125  1.0000
  H   H7892     1.0  0.85958  0.64219  0.40160  1.0000
  H   H7893     1.0  0.97127  0.52012  0.26104  1.0000
  Fe  Fe691     1.0  0.79786  0.97228  0.43427  1.0000
  C   C4621     1.0  0.92930  0.56384  0.26944  1.0000
  C   C4622     1.0  0.94053  0.56232  0.26746  1.0000
  C   C4623     1.0  0.94630  0.55406  0.27457  1.0000
  C   C4624     1.0  0.94080  0.54741  0.28364  1.0000
  C   C4625     1.0  0.92953  0.54955  0.28603  1.0000
  C   C4626     1.0  0.92378  0.55792  0.27905  1.0000
  H   H7894     1.0  0.94480  0.56718  0.26021  1.0000
  H   H7895     1.0  0.95503  0.55256  0.27271  1.0000
  H   H7896     1.0  0.92518  0.54484  0.29325  1.0000
  H   H7897     1.0  0.91503  0.55971  0.28104  1.0000
  C   C4627     1.0  0.90912  0.64584  0.44912  1.0000
  H   H7898     1.0  0.95068  0.67954  0.42033  1.0000
  H   H7899     1.0  0.94951  0.53444  0.26830  1.0000
  C   C4628     1.0  0.97758  0.57149  0.24820  1.0000
  H   H7900     1.0  0.91122  0.51491  0.36315  1.0000
  C   C4629     1.0  0.88833  0.50651  0.26025  1.0000
  C   C4630     1.0  0.89828  0.50391  0.25303  1.0000
  C   C4631     1.0  0.90623  0.50987  0.25116  1.0000
  C   C4632     1.0  0.90434  0.51812  0.25686  1.0000
  C   C4633     1.0  0.89473  0.52008  0.26472  1.0000
  C   C4634     1.0  0.88658  0.51450  0.26620  1.0000
  H   H7901     1.0  0.89970  0.49752  0.24867  1.0000
  H   H7902     1.0  0.91371  0.50824  0.24517  1.0000
  H   H7903     1.0  0.89364  0.52574  0.26979  1.0000
  H   H7904     1.0  0.87904  0.51622  0.27211  1.0000
  H   H7905     1.0  0.89688  0.51227  0.37739  1.0000
  H   H7906     1.0  0.92165  0.57250  0.23728  1.0000
  S   S1369     1.0  0.97744  0.87295  0.45396  1.0000
  C   C4635     1.0  0.89276  0.90811  0.48318  1.0000
  S   S1370     1.0  0.96687  0.61061  0.44935  1.0000
  H   H7907     1.0  0.96034  0.55688  0.34115  1.0000
  C   C4636     1.0  0.97173  0.67476  0.41492  1.0000
  C   C4637     1.0  0.97872  0.59446  0.40741  1.0000
  H   H7908     1.0  0.89578  0.84161  0.39959  1.0000
  H   H7909     1.0  0.94633  0.50607  0.39644  1.0000
  C   C4638     1.0  0.89412  0.59319  0.38114  1.0000
  C   C4639     1.0  0.89960  0.59919  0.38442  1.0000
  C   C4640     1.0  0.89540  0.60281  0.39435  1.0000
  C   C4641     1.0  0.88541  0.60090  0.40090  1.0000
  C   C4642     1.0  0.87995  0.59488  0.39764  1.0000
  C   C4643     1.0  0.88435  0.59091  0.38790  1.0000
  H   H7910     1.0  0.90709  0.60113  0.37923  1.0000
  H   H7911     1.0  0.89976  0.60733  0.39679  1.0000
  H   H7912     1.0  0.87222  0.59334  0.40264  1.0000
  H   H7913     1.0  0.87999  0.58638  0.38546  1.0000
  C   C4644     1.0  0.93288  0.54699  0.36644  1.0000
  C   C4645     1.0  0.92628  0.55046  0.37586  1.0000
  C   C4646     1.0  0.93064  0.55396  0.38260  1.0000
  C   C4647     1.0  0.94166  0.55400  0.37996  1.0000
  C   C4648     1.0  0.94841  0.55014  0.37075  1.0000
  C   C4649     1.0  0.94402  0.54658  0.36402  1.0000
  H   H7914     1.0  0.91779  0.55047  0.37800  1.0000
  H   H7915     1.0  0.92540  0.55693  0.38971  1.0000
  H   H7916     1.0  0.95688  0.55034  0.36853  1.0000
  H   H7917     1.0  0.94916  0.54390  0.35672  1.0000
  C   C4650     1.0  0.89234  0.56797  0.31666  1.0000
  C   C4651     1.0  0.89054  0.57272  0.30604  1.0000
  C   C4652     1.0  0.88923  0.56630  0.29962  1.0000
  C   C4653     1.0  0.88949  0.55511  0.30386  1.0000
  C   C4654     1.0  0.89134  0.55032  0.31445  1.0000
  C   C4655     1.0  0.89281  0.55671  0.32082  1.0000
  H   H7918     1.0  0.88993  0.58145  0.30283  1.0000
  H   H7919     1.0  0.88765  0.57010  0.29152  1.0000
  H   H7920     1.0  0.89173  0.54164  0.31771  1.0000
  H   H7921     1.0  0.89422  0.55295  0.32895  1.0000
  H   H7922     1.0  0.87331  0.54062  0.34382  1.0000
  H   H7923     1.0  0.86554  0.66145  0.39447  1.0000
  H   H7924     1.0  0.97729  0.77361  0.46288  1.0000
  H   H7925     1.0  0.95649  0.59038  0.35944  1.0000
  C   C4656     1.0  0.87440  0.51157  0.37096  1.0000
  C   C4657     1.0  0.86584  0.51737  0.37773  1.0000
  C   C4658     1.0  0.86563  0.52814  0.37795  1.0000
  C   C4659     1.0  0.87397  0.53331  0.37142  1.0000
  C   C4660     1.0  0.88256  0.52760  0.36449  1.0000
  C   C4661     1.0  0.88277  0.51672  0.36426  1.0000
  H   H7926     1.0  0.85933  0.51349  0.38289  1.0000
  H   H7927     1.0  0.85896  0.53247  0.38331  1.0000
  H   H7928     1.0  0.88903  0.53152  0.35938  1.0000
  H   H7929     1.0  0.85948  0.66764  0.46901  1.0000
  H   H7930     1.0  0.89937  0.80740  0.48288  1.0000
  H   H7931     1.0  0.96906  0.83630  0.41811  1.0000
  H   H7932     1.0  0.88291  0.74297  0.47287  1.0000
  C   C4662     1.0  0.93944  0.49864  0.35382  1.0000
  C   C4663     1.0  0.82581  0.94926  0.41860  1.0000
  C   C4664     1.0  0.90340  0.90271  0.47939  1.0000
  C   C4665     1.0  0.96395  0.51857  0.24067  1.0000
  S   S1371     1.0  0.97278  0.57134  0.37349  1.0000
  C   C4666     1.0  0.94136  0.59671  0.40945  1.0000
  H   H7933     1.0  0.82522  0.94227  0.39896  1.0000
  S   S1372     1.0  0.81549  0.98155  0.44775  1.0000
  H   H7934     1.0  0.91783  0.58591  0.40818  1.0000
  H   H7935     1.0  0.90271  0.81854  0.47198  1.0000
  H   H7936     1.0  0.98406  0.91746  0.47181  1.0000
  H   H7937     1.0  0.74660  0.97386  0.43517  1.0000
  C   C4667     1.0  0.89380  0.63147  0.47918  1.0000
  C   C4668     1.0  0.91943  0.49212  0.28800  1.0000
  C   C4669     1.0  0.89658  0.75742  0.47411  1.0000
  S   S1373     1.0  0.97000  0.88440  0.48043  1.0000
  Fe  Fe692     1.0  0.97128  0.88642  0.44060  1.0000
  H   H7938     1.0  0.83087  0.92121  0.40874  1.0000
  H   H7939     1.0  0.85936  0.50155  0.33966  1.0000
  H   H7940     1.0  0.77937  0.96625  0.45018  1.0000
  C   C4670     1.0  0.94620  0.81599  0.43177  1.0000
  N   N330      1.0  0.92268  0.51884  0.31395  1.0000
  C   C4671     1.0  0.92015  0.53029  0.31602  1.0000
  C   C4672     1.0  0.92426  0.52014  0.30172  1.0000
  C   C4673     1.0  0.93316  0.51276  0.31746  1.0000
  C   C4674     1.0  0.91347  0.51337  0.32057  1.0000
  C   C4675     1.0  0.91844  0.53112  0.32805  1.0000
  C   C4676     1.0  0.91405  0.52572  0.29695  1.0000
  C   C4677     1.0  0.93788  0.50098  0.31557  1.0000
  C   C4678     1.0  0.95951  0.85579  0.42298  1.0000
  H   H7941     1.0  0.92675  0.53464  0.31111  1.0000
  H   H7942     1.0  0.91266  0.53537  0.31330  1.0000
  H   H7943     1.0  0.92755  0.51222  0.29913  1.0000
  H   H7944     1.0  0.93059  0.52491  0.29717  1.0000
  H   H7945     1.0  0.93960  0.51751  0.31325  1.0000
  H   H7946     1.0  0.93222  0.51190  0.32641  1.0000
  H   H7947     1.0  0.91382  0.51087  0.32941  1.0000
  H   H7948     1.0  0.90555  0.51936  0.32035  1.0000
  H   H7949     1.0  0.91581  0.53993  0.32848  1.0000
  H   H7950     1.0  0.91199  0.52703  0.33369  1.0000
  H   H7951     1.0  0.92604  0.52790  0.33111  1.0000
  H   H7952     1.0  0.90717  0.52166  0.30116  1.0000
  H   H7953     1.0  0.91137  0.53458  0.29706  1.0000
  H   H7954     1.0  0.91598  0.52520  0.28820  1.0000
  C   C4679     1.0  0.95035  0.60280  0.40247  1.0000
  H   H7955     1.0  0.91314  0.52134  0.39683  1.0000
  Fe  Fe693     1.0  0.97557  0.55912  0.27668  1.0000
  H   H7956     1.0  0.96248  0.52013  0.27443  1.0000
  H   H7957     1.0  0.98012  0.67754  0.39746  1.0000
  C   C4680     1.0  0.95764  0.53029  0.24186  1.0000
  C   C4681     1.0  0.87934  0.64712  0.39613  1.0000
  C   C4682     1.0  0.88526  0.63045  0.38912  1.0000
  C   C4683     1.0  0.89576  0.63368  0.38166  1.0000
  H   H7958     1.0  0.88327  0.64211  0.40301  1.0000
  H   H7959     1.0  0.88567  0.65118  0.39008  1.0000
  H   H7960     1.0  0.88342  0.62455  0.38557  1.0000
  H   H7961     1.0  0.88729  0.62548  0.39707  1.0000
  H   H7962     1.0  0.86517  0.65320  0.40839  1.0000
  H   H7963     1.0  0.89981  0.63696  0.38611  1.0000
  H   H7964     1.0  0.90153  0.62622  0.37929  1.0000
  H   H7965     1.0  0.89432  0.63975  0.37403  1.0000
  H   H7966     1.0  0.90628  0.85291  0.47468  1.0000
  C   C4684     1.0  0.92654  0.58615  0.30556  1.0000
  C   C4685     1.0  0.86674  0.66918  0.46253  1.0000
  H   H7967     1.0  0.91346  0.59662  0.29254  1.0000
  H   H7968     1.0  0.91444  0.49221  0.28234  1.0000
  H   H7969     1.0  0.94259  0.51666  0.40367  1.0000
  H   H7970     1.0  0.92801  0.55363  0.31396  1.0000
  H   H7971     1.0  0.87441  0.66203  0.40243  1.0000
  H   H7972     1.0  0.94795  0.86692  0.41360  1.0000
  C   C4686     1.0  0.96273  0.52061  0.26568  1.0000
  H   H7973     1.0  0.86276  0.49699  0.35281  1.0000
  Fe  Fe694     1.0  0.96614  0.69796  0.46348  1.0000
  C   C4687     1.0  0.94144  0.52194  0.38674  1.0000
  H   H7974     1.0  0.97293  0.74646  0.47925  1.0000
  H   H7975     1.0  0.92885  0.59721  0.28046  1.0000
  H   H7976     1.0  0.95250  0.60697  0.40771  1.0000
  H   H7977     1.0  0.92930  0.75659  0.43546  1.0000
  H   H7978     1.0  0.93339  0.56433  0.31503  1.0000
  H   H7979     1.0  0.93193  0.72870  0.46432  1.0000
  S   S1374     1.0  0.89589  0.49626  0.34484  1.0000
  H   H7980     1.0  0.93832  0.71461  0.46555  1.0000
  C   C4688     1.0  0.76408  0.97120  0.43140  1.0000
  C   C4689     1.0  0.94541  0.60669  0.48071  1.0000
  H   H7981     1.0  0.86373  0.65171  0.38288  1.0000
  C   C4690     1.0  0.92797  0.92701  0.46229  1.0000
  C   C4691     1.0  0.91201  0.90483  0.48222  1.0000
  C   C4692     1.0  0.97286  0.55869  0.32647  1.0000
  C   C4693     1.0  0.89833  0.62485  0.47146  1.0000
  H   H7982     1.0  0.96770  0.68025  0.42081  1.0000
  H   H7983     1.0  0.83778  0.95013  0.40270  1.0000
  H   H7984     1.0  0.84786  0.52571  0.31993  1.0000
  S   S1375     1.0  0.97325  0.70948  0.46788  1.0000
  C   C4694     1.0  0.82194  0.93823  0.40757  1.0000
  H   H7985     1.0  0.88416  0.82904  0.47445  1.0000
  H   H7986     1.0  0.86897  0.76022  0.46477  1.0000
  S   S1376     1.0  0.87411  0.49799  0.37122  1.0000
  C   C4695     1.0  0.96916  0.85093  0.44277  1.0000
  H   H7987     1.0  0.95855  0.51359  0.24029  1.0000
  H   H7988     1.0  0.93099  0.82671  0.43718  1.0000
  N   N331      1.0  0.81730  0.94673  0.41455  1.0000
  H   H7989     1.0  0.97339  0.84661  0.40669  1.0000
  H   H7990     1.0  0.90778  0.50201  0.38168  1.0000
  H   H7991     1.0  0.97323  0.65423  0.42703  1.0000
  H   H7992     1.0  0.89314  0.53328  0.23898  1.0000
  C   C4696     1.0  0.94648  0.59074  0.38503  1.0000
  H   H7993     1.0  0.93053  0.51646  0.26928  1.0000
  S   S1377     1.0  0.97318  0.53549  0.30281  1.0000
  C   C4697     1.0  0.83134  0.92869  0.41097  1.0000
  H   H7994     1.0  0.95813  0.82988  0.47947  1.0000
  C   C4698     1.0  0.75374  0.97217  0.43846  1.0000
  Fe  Fe695     1.0  0.96868  0.81138  0.43928  1.0000
  N   N332      1.0  0.94093  0.58647  0.40641  1.0000
  S   S1378     1.0  0.83826  0.95986  0.43521  1.0000
  C   C4699     1.0  0.92677  0.75637  0.47766  1.0000
  H   H7995     1.0  0.95897  0.81345  0.47268  1.0000
  C   C4700     1.0  0.91398  0.65555  0.46010  1.0000
  C   C4701     1.0  0.89707  0.65181  0.45056  1.0000
  C   C4702     1.0  0.92144  0.66198  0.46177  1.0000
  H   H7996     1.0  0.90573  0.66092  0.46133  1.0000
  H   H7997     1.0  0.91327  0.64828  0.46705  1.0000
  H   H7998     1.0  0.89359  0.65316  0.45901  1.0000
  H   H7999     1.0  0.89571  0.65966  0.44449  1.0000
  H   H8000     1.0  0.89238  0.64654  0.44929  1.0000
  H   H8001     1.0  0.91827  0.67098  0.45934  1.0000
  H   H8002     1.0  0.96989  0.77501  0.43741  1.0000
  H   H8003     1.0  0.95244  0.90388  0.42499  1.0000
  H   H8004     1.0  0.91438  0.83428  0.46899  1.0000
  H   H8005     1.0  0.83137  0.92636  0.41982  1.0000
  H   H8006     1.0  0.94649  0.66159  0.41150  1.0000
  S   S1379     1.0  0.92504  0.49423  0.34507  1.0000
  C   C4703     1.0  0.86664  0.76251  0.47289  1.0000
  N   N333      1.0  0.85344  0.93280  0.47467  1.0000
  H   H8007     1.0  0.86776  0.69359  0.45861  1.0000
  H   H8008     1.0  0.92907  0.69279  0.47289  1.0000
  C   C4704     1.0  0.85489  0.91320  0.47250  1.0000
  C   C4705     1.0  0.87707  0.51424  0.32479  1.0000
  H   H8009     1.0  0.88481  0.81614  0.47208  1.0000
  S   S1380     1.0  0.95117  0.69198  0.47344  1.0000
  H   H8010     1.0  0.80481  0.94983  0.42891  1.0000
  H   H8011     1.0  0.80034  0.96474  0.39736  1.0000
  H   H8012     1.0  0.94792  0.89764  0.46461  1.0000
  H   H8013     1.0  0.94199  0.59497  0.41815  1.0000
  H   H8014     1.0  0.81548  0.96336  0.46624  1.0000
  H   H8015     1.0  0.97759  0.76593  0.47649  1.0000
  H   H8016     1.0  0.91890  0.50064  0.31027  1.0000
  C   C4706     1.0  0.97921  0.52643  0.33172  1.0000
  H   H8017     1.0  0.97939  0.67023  0.41749  1.0000
  H   H8018     1.0  0.93354  0.56601  0.34519  1.0000
  S   S1381     1.0  0.79120  0.98571  0.44348  1.0000
  H   H8019     1.0  0.94547  0.49769  0.31865  1.0000
  S   S1382     1.0  0.80632  0.96037  0.44711  1.0000
  H   H8020     1.0  0.93644  0.54271  0.24537  1.0000
  N   N334      1.0  0.97595  0.65433  0.48097  1.0000
  N   N335      1.0  0.90451  0.84200  0.41658  1.0000
  C   C4707     1.0  0.91376  0.84043  0.42202  1.0000
  C   C4708     1.0  0.90218  0.83078  0.41846  1.0000
  C   C4709     1.0  0.89483  0.84967  0.42198  1.0000
  C   C4710     1.0  0.90801  0.84698  0.40457  1.0000
  C   C4711     1.0  0.91654  0.85102  0.42263  1.0000
  C   C4712     1.0  0.91103  0.82260  0.41231  1.0000
  C   C4713     1.0  0.88346  0.84892  0.42163  1.0000
  H   H8021     1.0  0.91204  0.83559  0.43063  1.0000
  H   H8022     1.0  0.92139  0.83561  0.41779  1.0000
  H   H8023     1.0  0.89465  0.83122  0.41600  1.0000
  H   H8024     1.0  0.90066  0.82688  0.42740  1.0000
  H   H8025     1.0  0.89465  0.84831  0.43084  1.0000
  H   H8026     1.0  0.89545  0.85841  0.41850  1.0000
  H   H8027     1.0  0.90929  0.85536  0.40345  1.0000
  H   H8028     1.0  0.91614  0.84241  0.40088  1.0000
  H   H8029     1.0  0.91920  0.85608  0.41439  1.0000
  H   H8030     1.0  0.90974  0.85609  0.42758  1.0000
  H   H8031     1.0  0.92340  0.84866  0.42682  1.0000
  H   H8032     1.0  0.91190  0.82534  0.40329  1.0000
  H   H8033     1.0  0.91901  0.82102  0.41435  1.0000
  H   H8034     1.0  0.90868  0.81455  0.41471  1.0000
  H   H8035     1.0  0.88249  0.84974  0.41325  1.0000
  H   H8036     1.0  0.87736  0.85570  0.42502  1.0000
  H   H8037     1.0  0.87080  0.66147  0.45957  1.0000
  H   H8038     1.0  0.86159  0.94927  0.45616  1.0000
  H   H8039     1.0  0.92012  0.90026  0.47972  1.0000
  H   H8040     1.0  0.96452  0.66861  0.43767  1.0000
  H   H8041     1.0  0.94044  0.57464  0.29141  1.0000
  H   H8042     1.0  0.97284  0.52453  0.37302  1.0000
  C   C4714     1.0  0.93240  0.58131  0.41519  1.0000
  H   H8043     1.0  0.89958  0.74877  0.47338  1.0000
  C   C4715     1.0  0.90752  0.84480  0.48042  1.0000
  H   H8044     1.0  0.85591  0.68863  0.46604  1.0000
  C   C4716     1.0  0.94560  0.68967  0.46375  1.0000
  H   H8045     1.0  0.95949  0.65651  0.44416  1.0000
  H   H8046     1.0  0.93859  0.76784  0.48266  1.0000
  H   H8047     1.0  0.90487  0.84800  0.38869  1.0000
  H   H8048     1.0  0.86320  0.91212  0.46731  1.0000
  C   C4717     1.0  0.86679  0.94476  0.46212  1.0000
  H   H8049     1.0  0.84940  0.94836  0.47970  1.0000
  H   H8050     1.0  0.95120  0.72816  0.43738  1.0000
  H   H8051     1.0  0.98290  0.72875  0.47489  1.0000
  C   C4718     1.0  0.86202  0.54957  0.25418  1.0000
  H   H8052     1.0  0.86455  0.55278  0.25993  1.0000
  H   H8053     1.0  0.85732  0.54333  0.25921  1.0000
  H   H8054     1.0  0.94960  0.73166  0.47455  1.0000
  N   N336      1.0  0.92771  0.83994  0.47071  1.0000
  C   C4719     1.0  0.92689  0.84814  0.45998  1.0000
  C   C4720     1.0  0.89323  0.50370  0.39428  1.0000
  H   H8055     1.0  0.96849  0.51417  0.24716  1.0000
  H   H8056     1.0  0.96745  0.68744  0.40051  1.0000
  C   C4721     1.0  0.93749  0.85151  0.45295  1.0000
  Fe  Fe696     1.0  0.98354  0.60591  0.43914  1.0000
  H   H8057     1.0  0.95677  0.86189  0.42827  1.0000
  C   C4722     1.0  0.97761  0.90300  0.47572  1.0000
  H   H8058     1.0  0.92363  0.84507  0.45467  1.0000
  H   H8059     1.0  0.92096  0.85588  0.46143  1.0000
  H   H8060     1.0  0.93568  0.73466  0.48192  1.0000
  N   N337      1.0  0.87598  0.75813  0.47862  1.0000
  H   H8061     1.0  0.89262  0.67131  0.47354  1.0000
  H   H8062     1.0  0.96214  0.52645  0.33843  1.0000
  H   H8063     1.0  0.85912  0.77798  0.47870  1.0000
  H   H8064     1.0  0.76382  0.97638  0.47435  1.0000
  H   H8065     1.0  0.94347  0.66211  0.42584  1.0000
  H   H8066     1.0  0.92447  0.74973  0.47554  1.0000
  C   C4723     1.0  0.88536  0.82012  0.47840  1.0000
  C   C4724     1.0  0.97471  0.68230  0.40357  1.0000
  H   H8067     1.0  0.83026  0.93945  0.48030  1.0000
  H   H8068     1.0  0.95792  0.58200  0.41826  1.0000
  H   H8069     1.0  0.92833  0.76472  0.45523  1.0000
  C   C4725     1.0  0.93962  0.49358  0.37323  1.0000
  H   H8070     1.0  0.79531  0.95569  0.40954  1.0000
  C   C4726     1.0  0.95603  0.57488  0.41663  1.0000
  H   H8071     1.0  0.87948  0.66519  0.47121  1.0000
  H   H8072     1.0  0.93249  0.49533  0.32043  1.0000
  Fe  Fe697     1.0  0.98566  0.90111  0.44127  1.0000
  H   H8073     1.0  0.86445  0.83409  0.47046  1.0000
  H   H8074     1.0  0.93415  0.58248  0.39502  1.0000
  H   H8075     1.0  0.94109  0.62868  0.47981  1.0000
  H   H8076     1.0  0.85350  0.83610  0.48218  1.0000
  H   H8077     1.0  0.85676  0.55667  0.24975  1.0000
  S   S1383     1.0  0.97329  0.49374  0.36194  1.0000
  H   H8078     1.0  0.95429  0.84967  0.42676  1.0000
  H   H8079     1.0  0.86835  0.77963  0.46541  1.0000
  H   H8080     1.0  0.91570  0.49963  0.29136  1.0000
  H   H8081     1.0  0.96545  0.49438  0.31544  1.0000
  S   S1384     1.0  0.94713  0.49286  0.26528  1.0000
  H   H8082     1.0  0.95154  0.59911  0.47916  1.0000
  H   H8083     1.0  0.97358  0.86642  0.42143  1.0000
  C   C4727     1.0  0.97456  0.56287  0.24605  1.0000
  H   H8084     1.0  0.94087  0.56030  0.24405  1.0000
  H   H8085     1.0  0.91551  0.94002  0.46880  1.0000
  H   H8086     1.0  0.95816  0.76267  0.47417  1.0000
  C   C4728     1.0  0.93018  0.49447  0.35605  1.0000
  H   H8087     1.0  0.89440  0.68138  0.47932  1.0000
  C   C4729     1.0  0.94522  0.74677  0.48086  1.0000
  H   H8088     1.0  0.86814  0.63999  0.47473  1.0000
  H   H8089     1.0  0.96152  0.86825  0.40736  1.0000
  N   N338      1.0  0.86912  0.52049  0.33301  1.0000
  H   H8090     1.0  0.93019  0.73665  0.42406  1.0000
  S   S1385     1.0  0.96783  0.79397  0.44810  1.0000
  C   C4730     1.0  0.88557  0.76231  0.47078  1.0000
  H   H8091     1.0  0.90953  0.63836  0.45579  1.0000
  H   H8092     1.0  0.92989  0.66007  0.45707  1.0000
  H   H8093     1.0  0.96039  0.85469  0.44463  1.0000
  C   C4731     1.0  0.87899  0.74572  0.48074  1.0000
  H   H8094     1.0  0.92241  0.52135  0.35893  1.0000
  H   H8095     1.0  0.85297  0.53070  0.33572  1.0000
  H   H8096     1.0  0.95158  0.55226  0.23594  1.0000
  H   H8097     1.0  0.85261  0.70722  0.46739  1.0000
  C   C4732     1.0  0.96481  0.65869  0.42638  1.0000
  N   N339      1.0  0.87575  0.63988  0.39115  1.0000
  C   C4733     1.0  0.87047  0.65644  0.40054  1.0000
  N   N340      1.0  0.91689  0.65242  0.44916  1.0000
  H   H8098     1.0  0.91428  0.57009  0.31105  1.0000
  H   H8099     1.0  0.93860  0.87573  0.44111  1.0000
  H   H8100     1.0  0.87731  0.65277  0.37647  1.0000
  C   C4734     1.0  0.91624  0.66279  0.44030  1.0000
  H   H8101     1.0  0.86495  0.70544  0.47145  1.0000
  H   H8102     1.0  0.93707  0.82392  0.47698  1.0000
  H   H8103     1.0  0.90687  0.92747  0.45961  1.0000
  C   C4735     1.0  0.91777  0.66122  0.42860  1.0000
  H   H8104     1.0  0.91147  0.64266  0.44147  1.0000
  H   H8105     1.0  0.81544  0.93452  0.40716  1.0000
  H   H8106     1.0  0.89423  0.85634  0.39701  1.0000
  H   H8107     1.0  0.84809  0.93418  0.45994  1.0000
  C   C4736     1.0  0.94072  0.76675  0.47408  1.0000
  C   C4737     1.0  0.86463  0.93317  0.46764  1.0000
  C   C4738     1.0  0.93126  0.63596  0.45667  1.0000
  H   H8108     1.0  0.90841  0.66874  0.44216  1.0000
  H   H8109     1.0  0.87400  0.50757  0.32372  1.0000
  H   H8110     1.0  0.97605  0.90448  0.46763  1.0000
  C   C4739     1.0  0.92821  0.64542  0.44704  1.0000
  H   H8111     1.0  0.93446  0.65043  0.44433  1.0000
  H   H8112     1.0  0.93174  0.63909  0.46359  1.0000
  C   C4740     1.0  0.91127  0.78586  0.48222  1.0000
  H   H8113     1.0  0.86921  0.63100  0.40733  1.0000
  H   H8114     1.0  0.87973  0.64106  0.36539  1.0000
  H   H8115     1.0  0.94377  0.84446  0.45035  1.0000
  H   H8116     1.0  0.91125  0.65779  0.42787  1.0000
  H   H8117     1.0  0.95301  0.55356  0.24889  1.0000
  H   H8118     1.0  0.92560  0.63033  0.45964  1.0000
  C   C4741     1.0  0.83367  0.93619  0.47274  1.0000
  N   N341      1.0  0.94970  0.53165  0.25256  1.0000
  H   H8119     1.0  0.88081  0.67585  0.45933  1.0000
  H   H8120     1.0  0.94282  0.81663  0.46041  1.0000
  H   H8121     1.0  0.96755  0.67083  0.47453  1.0000
  H   H8122     1.0  0.93794  0.55871  0.30276  1.0000
  H   H8123     1.0  0.95854  0.66206  0.46859  1.0000
  C   C4742     1.0  0.93293  0.57946  0.28860  1.0000
  H   H8124     1.0  0.80505  0.95027  0.39829  1.0000
  H   H8125     1.0  0.94205  0.59251  0.28370  1.0000
  C   C4743     1.0  0.87211  0.64672  0.38080  1.0000
  H   H8126     1.0  0.91828  0.50178  0.40741  1.0000
  H   H8127     1.0  0.95132  0.50140  0.36057  1.0000
  H   H8128     1.0  0.97113  0.55691  0.25281  1.0000
  C   C4744     1.0  0.86658  0.63543  0.39951  1.0000
  H   H8129     1.0  0.92430  0.85332  0.47908  1.0000
  C   C4745     1.0  0.93489  0.81933  0.43410  1.0000
  C   C4746     1.0  0.85884  0.52673  0.32919  1.0000
  H   H8130     1.0  0.90942  0.57651  0.28721  1.0000
  C   C4747     1.0  0.96899  0.66542  0.48254  1.0000
  C   C4748     1.0  0.95967  0.66333  0.43680  1.0000
  H   H8131     1.0  0.87184  0.63180  0.37526  1.0000
  H   H8132     1.0  0.93695  0.67291  0.41640  1.0000
  H   H8133     1.0  0.85725  0.63195  0.38971  1.0000
  C   C4749     1.0  0.86667  0.51278  0.34407  1.0000
  H   H8134     1.0  0.96928  0.52562  0.39234  1.0000
  C   C4750     1.0  0.94801  0.68667  0.44555  1.0000
  H   H8135     1.0  0.95961  0.76047  0.44250  1.0000
  H   H8136     1.0  0.96834  0.52926  0.34757  1.0000
  H   H8137     1.0  0.92837  0.82055  0.46367  1.0000
  H   H8138     1.0  0.97380  0.85745  0.44031  1.0000
  H   H8139     1.0  0.86541  0.64466  0.36814  1.0000
  H   H8140     1.0  0.86026  0.53384  0.32222  1.0000
  H   H8141     1.0  0.94708  0.71973  0.42534  1.0000
  H   H8142     1.0  0.92638  0.94490  0.45890  1.0000
  H   H8143     1.0  0.92748  0.59463  0.30118  1.0000
  H   H8144     1.0  0.92578  0.49689  0.26149  1.0000
  H   H8145     1.0  0.89684  0.49488  0.39724  1.0000
  H   H8146     1.0  0.82817  0.94092  0.44448  1.0000
  H   H8147     1.0  0.85960  0.75880  0.47732  1.0000
  C   C4751     1.0  0.93442  0.69072  0.46544  1.0000
  H   H8148     1.0  0.91604  0.94131  0.45472  1.0000
  C   C4752     1.0  0.91437  0.52131  0.36465  1.0000
  H   H8149     1.0  0.93923  0.58890  0.27247  1.0000
  H   H8150     1.0  0.93552  0.92728  0.46438  1.0000
  H   H8151     1.0  0.94753  0.60914  0.39551  1.0000
  C   C4753     1.0  0.88838  0.67694  0.47915  1.0000
  H   H8152     1.0  0.95875  0.58036  0.35166  1.0000
  H   H8153     1.0  0.88262  0.52462  0.33625  1.0000
  H   H8154     1.0  0.95678  0.85659  0.40672  1.0000
  H   H8155     1.0  0.86068  0.54105  0.34108  1.0000
  H   H8156     1.0  0.86788  0.62031  0.39396  1.0000
  H   H8157     1.0  0.85582  0.62429  0.40353  1.0000
  C   C4754     1.0  0.97414  0.76651  0.43793  1.0000
  S   S1386     1.0  0.81251  0.97893  0.42439  1.0000
  H   H8158     1.0  0.95025  0.57892  0.36534  1.0000
  C   C4755     1.0  0.95240  0.76846  0.46929  1.0000
  H   H8159     1.0  0.87324  0.51118  0.34853  1.0000
  H   H8160     1.0  0.93038  0.80120  0.47105  1.0000
  H   H8161     1.0  0.80194  0.94173  0.42156  1.0000
  H   H8162     1.0  0.86629  0.92893  0.46081  1.0000
  H   H8163     1.0  0.85537  0.77727  0.46676  1.0000
  C   C4756     1.0  0.93669  0.83000  0.46907  1.0000
  S   S1387     1.0  0.96815  0.61850  0.47536  1.0000
  H   H8164     1.0  0.91090  0.93048  0.44458  1.0000
  H   H8165     1.0  0.88577  0.52651  0.31307  1.0000
  S   S1388     1.0  0.97186  0.63485  0.44573  1.0000
  C   C4757     1.0  0.95252  0.58484  0.35757  1.0000
  H   H8166     1.0  0.93251  0.58009  0.37671  1.0000
  H   H8167     1.0  0.88458  0.50991  0.32786  1.0000
  H   H8168     1.0  0.93944  0.63098  0.45379  1.0000
  N   N342      1.0  0.90594  0.51762  0.38562  1.0000
  C   C4758     1.0  0.75786  0.97965  0.48129  1.0000
  C   C4759     1.0  0.94732  0.55266  0.24452  1.0000
  C   C4760     1.0  0.93077  0.72959  0.43116  1.0000
  H   H8169     1.0  0.95627  0.86245  0.47302  1.0000
  C   C4761     1.0  0.80861  0.94317  0.42426  1.0000
  H   H8170     1.0  0.98227  0.85388  0.47241  1.0000
  C   C4762     1.0  0.95239  0.68747  0.45385  1.0000
  H   H8171     1.0  0.91894  0.59617  0.41450  1.0000
  H   H8172     1.0  0.92145  0.69029  0.45860  1.0000
  H   H8173     1.0  0.88673  0.76069  0.46250  1.0000
  C   C4763     1.0  0.98257  0.76735  0.46803  1.0000
  H   H8174     1.0  0.93301  0.60735  0.33610  1.0000
  H   H8175     1.0  0.85411  0.69924  0.48080  1.0000
  C   C4764     1.0  0.91830  0.58717  0.31650  1.0000
  H   H8176     1.0  0.90281  0.59053  0.28358  1.0000
  C   C4765     1.0  0.92663  0.58242  0.37135  1.0000
  H   H8177     1.0  0.94921  0.57268  0.34553  1.0000
  H   H8178     1.0  0.98025  0.83876  0.43443  1.0000
  C   C4766     1.0  0.90792  0.72687  0.47421  1.0000
  Fe  Fe698     1.0  0.96578  0.62637  0.43662  1.0000
  C   C4767     1.0  0.88056  0.52109  0.31317  1.0000
  H   H8179     1.0  0.88552  0.51543  0.30770  1.0000
  N   N343      1.0  0.93375  0.73223  0.44040  1.0000
  H   H8180     1.0  0.86008  0.94745  0.43267  1.0000
  C   C4768     1.0  0.91589  0.51889  0.37653  1.0000
  H   H8181     1.0  0.98024  0.67143  0.44365  1.0000
  C   C4769     1.0  0.93164  0.57761  0.36096  1.0000
  H   H8182     1.0  0.91974  0.57859  0.37633  1.0000
  H   H8183     1.0  0.92344  0.59139  0.36969  1.0000
  H   H8184     1.0  0.95806  0.58080  0.39930  1.0000
  C   C4770     1.0  0.88287  0.63684  0.48048  1.0000
  H   H8185     1.0  0.96038  0.64885  0.46588  1.0000
  H   H8186     1.0  0.97100  0.51553  0.36596  1.0000
  H   H8187     1.0  0.85915  0.53000  0.25045  1.0000
  H   H8188     1.0  0.87357  0.52600  0.30950  1.0000
  H   H8189     1.0  0.96360  0.86325  0.48227  1.0000
  H   H8190     1.0  0.92209  0.76406  0.47330  1.0000
  H   H8191     1.0  0.83309  0.92749  0.47457  1.0000
  H   H8192     1.0  0.94255  0.56810  0.33212  1.0000
  H   H8193     1.0  0.76486  0.97216  0.42269  1.0000
  C   C4771     1.0  0.94298  0.52307  0.25630  1.0000
  H   H8194     1.0  0.88826  0.52738  0.40173  1.0000
  C   C4772     1.0  0.81411  0.96474  0.47438  1.0000
  H   H8195     1.0  0.90623  0.58706  0.30175  1.0000
  H   H8196     1.0  0.85770  0.51350  0.32194  1.0000
  H   H8197     1.0  0.92545  0.57396  0.35976  1.0000
  C   C4773     1.0  0.93015  0.84535  0.47831  1.0000
  C   C4774     1.0  0.84537  0.93764  0.46741  1.0000
  H   H8198     1.0  0.93665  0.90607  0.47177  1.0000
  H   H8199     1.0  0.93304  0.59725  0.32886  1.0000
  C   C4775     1.0  0.90118  0.50892  0.38424  1.0000
  C   C4776     1.0  0.83686  0.93799  0.44251  1.0000
  C   C4777     1.0  0.96461  0.65434  0.46750  1.0000
  H   H8200     1.0  0.91945  0.52552  0.37708  1.0000
  C   C4778     1.0  0.92858  0.81295  0.43267  1.0000
  H   H8201     1.0  0.92075  0.60644  0.33348  1.0000
  H   H8202     1.0  0.93531  0.77379  0.46973  1.0000
  H   H8203     1.0  0.94037  0.76089  0.44540  1.0000
  H   H8204     1.0  0.83268  0.98564  0.46905  1.0000
  H   H8205     1.0  0.94598  0.72460  0.45760  1.0000
  H   H8206     1.0  0.90495  0.89662  0.47463  1.0000
  S   S1389     1.0  0.88185  0.90514  0.48021  1.0000
  H   H8207     1.0  0.92416  0.91172  0.44639  1.0000
  H   H8208     1.0  0.92015  0.91006  0.46071  1.0000
  H   H8209     1.0  0.87331  0.49611  0.34085  1.0000
  Fe  Fe699     1.0  0.97392  0.71877  0.45035  1.0000
  H   H8210     1.0  0.94177  0.53061  0.38548  1.0000
  H   H8211     1.0  0.96380  0.56870  0.41545  1.0000
  H   H8212     1.0  0.83106  0.96003  0.47472  1.0000
  H   H8213     1.0  0.94580  0.53190  0.40553  1.0000
  H   H8214     1.0  0.94468  0.51911  0.37892  1.0000
  N   N344      1.0  0.86984  0.68130  0.47358  1.0000
  C   C4779     1.0  0.85846  0.70123  0.47210  1.0000
  H   H8215     1.0  0.92021  0.58890  0.34617  1.0000
  H   H8216     1.0  0.93276  0.52160  0.38930  1.0000
  H   H8217     1.0  0.90253  0.51458  0.40351  1.0000
  H   H8218     1.0  0.94352  0.93700  0.47398  1.0000
  C   C4780     1.0  0.91707  0.83635  0.47540  1.0000
  C   C4781     1.0  0.93524  0.52284  0.26767  1.0000
  H   H8219     1.0  0.95802  0.59733  0.39937  1.0000
  C   C4782     1.0  0.92174  0.91629  0.45303  1.0000
  H   H8220     1.0  0.81876  0.93283  0.43603  1.0000
  H   H8221     1.0  0.95116  0.66779  0.43703  1.0000
  H   H8222     1.0  0.92932  0.53073  0.26804  1.0000
  H   H8223     1.0  0.91677  0.58636  0.27745  1.0000
  C   C4783     1.0  0.93691  0.68744  0.44730  1.0000
  H   H8224     1.0  0.93006  0.57787  0.33443  1.0000
  C   C4784     1.0  0.94448  0.73561  0.43698  1.0000
  H   H8225     1.0  0.89994  0.84180  0.48241  1.0000
  H   H8226     1.0  0.88594  0.79846  0.48051  1.0000
  H   H8227     1.0  0.92623  0.93594  0.44017  1.0000
  C   C4785     1.0  0.81209  0.93257  0.43258  1.0000
  C   C4786     1.0  0.84356  0.94554  0.43821  1.0000
  S   S1390     1.0  0.96445  0.55872  0.31809  1.0000
  H   H8228     1.0  0.89584  0.53132  0.37652  1.0000
  H   H8229     1.0  0.93481  0.89753  0.46368  1.0000
  C   C4787     1.0  0.95152  0.57808  0.40614  1.0000
  N   N345      1.0  0.92360  0.58072  0.29829  1.0000
  C   C4788     1.0  0.92155  0.56949  0.30429  1.0000
  C   C4789     1.0  0.91336  0.58773  0.29478  1.0000
  C   C4790     1.0  0.93086  0.56123  0.30922  1.0000
  C   C4791     1.0  0.75268  0.97081  0.44975  1.0000
  C   C4792     1.0  0.93783  0.72274  0.45973  1.0000
  H   H8230     1.0  0.96676  0.83793  0.43702  1.0000
  C   C4793     1.0  0.92604  0.59336  0.34673  1.0000
  H   H8231     1.0  0.88281  0.53830  0.39178  1.0000
  S   S1391     1.0  0.97678  0.57286  0.26160  1.0000
  H   H8232     1.0  0.96104  0.68656  0.45248  1.0000
  C   C4794     1.0  0.86819  0.53539  0.34323  1.0000
  C   C4795     1.0  0.94666  0.88914  0.43351  1.0000
  H   H8233     1.0  0.97110  0.84554  0.45058  1.0000
  H   H8234     1.0  0.87098  0.92857  0.47240  1.0000
  C   C4796     1.0  0.90945  0.51479  0.39637  1.0000
  C   C4797     1.0  0.88730  0.52958  0.39315  1.0000
  C   C4798     1.0  0.93978  0.90296  0.46410  1.0000
  H   H8235     1.0  0.94346  0.90852  0.44649  1.0000
  C   C4799     1.0  0.87657  0.63574  0.47385  1.0000
  C   C4800     1.0  0.87480  0.67277  0.46669  1.0000
  H   H8236     1.0  0.92649  0.71941  0.45244  1.0000
  H   H8237     1.0  0.91691  0.73821  0.44767  1.0000
  H   H8238     1.0  0.95321  0.68576  0.43766  1.0000
  S   S1392     1.0  0.95190  0.63497  0.42828  1.0000
  H   H8239     1.0  0.92128  0.59844  0.35282  1.0000
  C   C4801     1.0  0.93584  0.82379  0.46094  1.0000
  H   H8240     1.0  0.93361  0.60290  0.40920  1.0000
  C   C4802     1.0  0.80364  0.96882  0.47996  1.0000
  H   H8241     1.0  0.93347  0.58073  0.42356  1.0000
  C   C4803     1.0  0.94075  0.91236  0.45376  1.0000
  H   H8242     1.0  0.93317  0.57269  0.41464  1.0000
  H   H8243     1.0  0.92620  0.74268  0.45216  1.0000
  H   H8244     1.0  0.97080  0.51535  0.34562  1.0000
  H   H8245     1.0  0.91514  0.58380  0.42277  1.0000
  H   H8246     1.0  0.95244  0.74815  0.42540  1.0000
  H   H8247     1.0  0.86620  0.81620  0.47953  1.0000
  C   C4804     1.0  0.93588  0.59018  0.28099  1.0000
  H   H8248     1.0  0.91961  0.56549  0.29879  1.0000
  N   N346      1.0  0.97132  0.85025  0.42256  1.0000
  H   H8249     1.0  0.80510  0.93148  0.43962  1.0000
  H   H8250     1.0  0.95260  0.73737  0.41952  1.0000
  C   C4805     1.0  0.93438  0.72201  0.44955  1.0000
  C   C4806     1.0  0.92471  0.74101  0.44486  1.0000
  H   H8251     1.0  0.91516  0.75759  0.44098  1.0000
  H   H8252     1.0  0.93177  0.57442  0.28359  1.0000
  C   C4807     1.0  0.77227  0.96795  0.44685  1.0000
  H   H8253     1.0  0.96063  0.53767  0.25802  1.0000
  C   C4808     1.0  0.96482  0.49431  0.40424  1.0000
  H   H8254     1.0  0.94477  0.83216  0.46638  1.0000
  H   H8255     1.0  0.93490  0.92471  0.43504  1.0000
  C   C4809     1.0  0.94737  0.74265  0.42526  1.0000
  H   H8256     1.0  0.88582  0.50382  0.39168  1.0000
  C   C4810     1.0  0.89813  0.52866  0.38461  1.0000
  C   C4811     1.0  0.91060  0.58501  0.28520  1.0000
  H   H8257     1.0  0.94043  0.74801  0.42180  1.0000
  N   N347      1.0  0.93572  0.58545  0.35063  1.0000
  C   C4812     1.0  0.94256  0.57891  0.34219  1.0000
  C   C4813     1.0  0.93668  0.57244  0.33836  1.0000
  C   C4814     1.0  0.92263  0.75234  0.43704  1.0000
  H   H8258     1.0  0.92248  0.72798  0.43380  1.0000
  H   H8259     1.0  0.92122  0.75190  0.42920  1.0000
  C   C4815     1.0  0.94545  0.90021  0.42812  1.0000
  H   H8260     1.0  0.94762  0.91569  0.45385  1.0000
  H   H8261     1.0  0.90206  0.53506  0.38499  1.0000
  S   S1393     1.0  0.97222  0.55458  0.39775  1.0000
  H   H8262     1.0  0.95318  0.49899  0.23712  1.0000
  C   C4816     1.0  0.96246  0.82187  0.48303  1.0000
  H   H8263     1.0  0.93812  0.84770  0.47484  1.0000
  H   H8264     1.0  0.95514  0.61125  0.43498  1.0000
  C   C4817     1.0  0.94491  0.80030  0.42594  1.0000
  C   C4818     1.0  0.94267  0.59182  0.35267  1.0000
  H   H8265     1.0  0.93780  0.59757  0.35808  1.0000
  H   H8266     1.0  0.94042  0.71493  0.44663  1.0000
  H   H8267     1.0  0.94503  0.74013  0.44286  1.0000
  N   N348      1.0  0.93074  0.92146  0.45278  1.0000
  H   H8268     1.0  0.97382  0.64014  0.47669  1.0000
  C   C4819     1.0  0.94412  0.49823  0.36240  1.0000
  Fe  Fe700     1.0  0.97549  0.79730  0.45978  1.0000
  S   S1394     1.0  0.95943  0.88075  0.43496  1.0000
  C   C4820     1.0  0.89576  0.71481  0.47731  1.0000
  H   H8269     1.0  0.74988  0.98792  0.46374  1.0000
  H   H8270     1.0  0.81419  0.92524  0.42898  1.0000
  H   H8271     1.0  0.95403  0.74649  0.47770  1.0000
  H   H8272     1.0  0.93805  0.52411  0.25023  1.0000
  H   H8273     1.0  0.90676  0.62059  0.47050  1.0000
  C   C4821     1.0  0.94729  0.51446  0.39575  1.0000
  H   H8274     1.0  0.95079  0.92830  0.43799  1.0000
  H   H8275     1.0  0.82198  0.95498  0.42429  1.0000
  H   H8276     1.0  0.95775  0.52549  0.41141  1.0000
  C   C4822     1.0  0.93324  0.92912  0.44175  1.0000
  H   H8277     1.0  0.89048  0.50775  0.40129  1.0000
  H   H8278     1.0  0.93677  0.71180  0.43207  1.0000
  Fe  Fe701     1.0  0.97165  0.55332  0.30203  1.0000
  H   H8279     1.0  0.86623  0.53008  0.35150  1.0000
  H   H8280     1.0  0.94673  0.58417  0.33481  1.0000
  H   H8281     1.0  0.95069  0.57041  0.40449  1.0000
  H   H8282     1.0  0.96008  0.51323  0.26577  1.0000
  H   H8283     1.0  0.86413  0.67548  0.45544  1.0000
  C   C4823     1.0  0.96869  0.80227  0.48374  1.0000
  H   H8284     1.0  0.88913  0.52148  0.23776  1.0000
  H   H8285     1.0  0.84672  0.51669  0.33336  1.0000
  C   C4824     1.0  0.91061  0.92397  0.45220  1.0000
  H   H8286     1.0  0.87595  0.53500  0.32655  1.0000
  C   C4825     1.0  0.92854  0.60148  0.33564  1.0000
  H   H8287     1.0  0.94609  0.59715  0.34486  1.0000
  S   S1395     1.0  0.78625  0.96868  0.42666  1.0000
  S   S1396     1.0  0.97097  0.79104  0.47790  1.0000
  H   H8288     1.0  0.93685  0.71996  0.41855  1.0000
  H   H8289     1.0  0.87532  0.94390  0.45739  1.0000
  C   C4826     1.0  0.94301  0.93432  0.43977  1.0000
  C   C4827     1.0  0.85252  0.52014  0.32605  1.0000
  H   H8290     1.0  0.81807  0.96050  0.40046  1.0000
  H   H8291     1.0  0.95232  0.87429  0.47883  1.0000
  C   C4828     1.0  0.86241  0.83327  0.47951  1.0000
  H   H8292     1.0  0.97111  0.50799  0.40404  1.0000
  H   H8293     1.0  0.84895  0.91586  0.46719  1.0000
  H   H8294     1.0  0.76125  0.96710  0.46265  1.0000
  H   H8295     1.0  0.92359  0.92207  0.46973  1.0000
  H   H8296     1.0  0.90508  0.91902  0.45192  1.0000
  C   C4829     1.0  0.94046  0.93739  0.48277  1.0000
  C   C4830     1.0  0.86544  0.50128  0.34416  1.0000
  H   H8297     1.0  0.84481  0.94664  0.46428  1.0000
  H   H8298     1.0  0.91315  0.49590  0.32431  1.0000
  C   C4831     1.0  0.96320  0.50670  0.40375  1.0000
  N   N349      1.0  0.95906  0.51459  0.39405  1.0000
  C   C4832     1.0  0.98535  0.58696  0.42424  1.0000
  H   H8299     1.0  0.95180  0.58269  0.38384  1.0000
  C   C4833     1.0  0.95473  0.53057  0.40401  1.0000
  H   H8300     1.0  0.95654  0.53876  0.40262  1.0000
  C   C4834     1.0  0.97509  0.89383  0.48376  1.0000
  C   C4835     1.0  0.95120  0.80644  0.42776  1.0000
  C   C4836     1.0  0.97210  0.84394  0.43407  1.0000
  H   H8301     1.0  0.91986  0.81547  0.43455  1.0000
  C   C4837     1.0  0.91263  0.50310  0.31729  1.0000
  H   H8302     1.0  0.88211  0.69088  0.46758  1.0000
  H   H8303     1.0  0.95258  0.77687  0.46964  1.0000
  H   H8304     1.0  0.96066  0.65221  0.42681  1.0000
  C   C4838     1.0  0.87221  0.54468  0.24627  1.0000
  C   C4839     1.0  0.76199  0.96850  0.45392  1.0000
  C   C4840     1.0  0.96719  0.51965  0.37295  1.0000
  H   H8305     1.0  0.95768  0.53207  0.38675  1.0000
  H   H8306     1.0  0.95148  0.59636  0.38482  1.0000
  C   C4841     1.0  0.96831  0.75821  0.44094  1.0000
  N   N350      1.0  0.93875  0.75597  0.47372  1.0000
  C   C4842     1.0  0.93008  0.68952  0.45725  1.0000
  C   C4843     1.0  0.96050  0.52581  0.39372  1.0000
  S   S1397     1.0  0.73990  0.97199  0.45888  1.0000
  H   H8307     1.0  0.94285  0.93768  0.44678  1.0000
  H   H8308     1.0  0.93969  0.77116  0.45233  1.0000
  H   H8309     1.0  0.96411  0.65498  0.40738  1.0000
  H   H8310     1.0  0.93102  0.59678  0.39496  1.0000
  H   H8311     1.0  0.90268  0.76192  0.46835  1.0000
  C   C4844     1.0  0.94405  0.73505  0.48159  1.0000
  H   H8312     1.0  0.97939  0.75480  0.46250  1.0000
  C   C4845     1.0  0.93759  0.58920  0.39558  1.0000
  H   H8313     1.0  0.95357  0.67887  0.40642  1.0000
  C   C4846     1.0  0.82291  0.96267  0.47923  1.0000
  C   C4847     1.0  0.92046  0.58724  0.41502  1.0000
  H   H8314     1.0  0.86612  0.83903  0.48132  1.0000
  H   H8315     1.0  0.94260  0.59425  0.37788  1.0000
  C   C4848     1.0  0.86223  0.77507  0.47093  1.0000
  H   H8316     1.0  0.93569  0.85738  0.44529  1.0000
  C   C4849     1.0  0.95357  0.67363  0.41482  1.0000
  C   C4850     1.0  0.91758  0.50372  0.39871  1.0000
  C   C4851     1.0  0.95646  0.86219  0.41193  1.0000
  H   H8317     1.0  0.86420  0.51330  0.24366  1.0000
  H   H8318     1.0  0.95051  0.57107  0.42393  1.0000
  H   H8319     1.0  0.94809  0.61351  0.47411  1.0000
  C   C4852     1.0  0.87868  0.68550  0.47533  1.0000
  H   H8320     1.0  0.88426  0.77136  0.46955  1.0000
  H   H8321     1.0  0.86580  0.94973  0.46816  1.0000
  H   H8322     1.0  0.97414  0.50673  0.38457  1.0000
  C   C4853     1.0  0.98028  0.59589  0.41714  1.0000
  C   C4854     1.0  0.96297  0.81262  0.47918  1.0000
  C   C4855     1.0  0.97370  0.74712  0.44189  1.0000
  H   H8323     1.0  0.94076  0.85580  0.45714  1.0000
  C   C4856     1.0  0.98218  0.91034  0.47807  1.0000
  S   S1398     1.0  0.97718  0.54185  0.27566  1.0000
  C   C4857     1.0  0.96918  0.64847  0.47788  1.0000
  H   H8324     1.0  0.85403  0.90491  0.47756  1.0000
  H   H8325     1.0  0.82842  0.94087  0.46685  1.0000
  H   H8326     1.0  0.97928  0.68797  0.40434  1.0000
  H   H8327     1.0  0.95736  0.49206  0.40408  1.0000
  H   H8328     1.0  0.87664  0.55133  0.24190  1.0000
  H   H8329     1.0  0.95529  0.76794  0.46054  1.0000
  C   C4858     1.0  0.96970  0.52417  0.34152  1.0000
  H   H8330     1.0  0.93538  0.94573  0.48329  1.0000
  C   C4859     1.0  0.93021  0.48965  0.37552  1.0000
  C   C4860     1.0  0.97446  0.84227  0.41512  1.0000
  S   S1399     1.0  0.98196  0.62128  0.42594  1.0000
  H   H8331     1.0  0.89633  0.75810  0.48249  1.0000
  Fe  Fe702     1.0  0.98206  0.69744  0.44170  1.0000
  H   H8332     1.0  0.97704  0.53530  0.32768  1.0000
  H   H8333     1.0  0.86409  0.74084  0.48106  1.0000
  C   C4861     1.0  0.98551  0.55965  0.34024  1.0000
  H   H8334     1.0  0.98157  0.67329  0.48319  1.0000
  H   H8335     1.0  0.81323  0.98822  0.47089  1.0000
  H   H8336     1.0  0.97519  0.60152  0.40175  1.0000
  H   H8337     1.0  0.97912  0.52179  0.32575  1.0000
  H   H8338     1.0  0.96719  0.48950  0.41206  1.0000
  H   H8339     1.0  0.98085  0.64542  0.41110  1.0000
  C   C4862     1.0  0.98087  0.65380  0.40585  1.0000
  H   H8340     1.0  0.97787  0.60396  0.41894  1.0000
  C   C4863     1.0  0.97707  0.61678  0.48384  1.0000
  C   C4864     1.0  0.93822  0.51007  0.23504  1.0000
  C   C4865     1.0  0.98363  0.55956  0.32212  1.0000
  C   C4866     1.0  0.98544  0.76382  0.43534  1.0000
  Fe  Fe703     1.0  0.98488  0.78959  0.43847  1.0000
  H   H8341     1.0  0.95337  0.53352  0.23492  1.0000
  C   C4867     1.0  0.97606  0.56199  0.23507  1.0000
  S   S1400     1.0  0.98507  0.80679  0.42841  1.0000
  H   H8342     1.0  0.98142  0.50268  0.30765  1.0000
  S   S1401     1.0  0.98091  0.58306  0.39191  1.0000
  H   H8343     1.0  0.98467  0.65313  0.39721  1.0000
  H   H8344     1.0  0.98347  0.66176  0.46448  1.0000
  Fe  Fe704     1.0  0.98148  0.56730  0.38722  1.0000
  H   H8345     1.0  0.88669  0.48977  0.30102  1.0000
  H   H8346     1.0  0.98348  0.50589  0.27376  1.0000
  C   C4868     1.0  0.98194  0.58407  0.40482  1.0000
  C   C4869     1.0  0.98502  0.74443  0.43911  1.0000
  H   H8347     1.0  0.98503  0.65140  0.44353  1.0000
  C   C4870     1.0  0.98624  0.83553  0.41348  1.0000
  H   H8348     1.0  0.98381  0.53752  0.34217  1.0000
  H   H8349     1.0  0.98402  0.58602  0.24096  1.0000
  H   H8350     1.0  0.98479  0.51794  0.28492  1.0000
  C   C4871     1.0  0.98590  0.73253  0.46621  1.0000
  C   C4872     1.0  0.92544  0.49021  0.36693  1.0000
  C   C4873     1.0  0.93061  0.48955  0.25866  1.0000
  C   C4874     1.0  0.98580  0.65586  0.47192  1.0000
  Fe  Fe705     1.0  0.98509  0.54257  0.38895  1.0000
  H   H8351     1.0  0.85425  0.67827  0.48362  1.0000
  C   C4875     1.0  0.98641  0.66837  0.43708  1.0000
  H   H8352     1.0  0.98629  0.65738  0.40829  1.0000
  Fe  Fe706     1.0  0.98574  0.55811  0.36675  1.0000
  C   C4876     1.0  0.98647  0.57500  0.41220  1.0000
  S   S1402     1.0  0.98654  0.55494  0.28854  1.0000
  S   S1403     1.0  0.97231  0.48858  0.33563  1.0000
  Fe  Fe707     1.0  0.88847  0.56250  0.60007  1.0000
  S   S1404     1.0  0.89003  0.55451  0.58622  1.0000
  S   S1405     1.0  0.87485  0.56223  0.61507  1.0000
  Fe  Fe708     1.0  0.91068  0.56724  0.59180  1.0000
  S   S1406     1.0  0.91462  0.55933  0.57751  1.0000
  S   S1407     1.0  0.92194  0.57399  0.59684  1.0000
  Fe  Fe709     1.0  0.89782  0.56838  0.57545  1.0000
  S   S1408     1.0  0.89695  0.57528  0.55759  1.0000
  Fe  Fe710     1.0  0.90660  0.54612  0.58917  1.0000
  S   S1409     1.0  0.91436  0.52820  0.58935  1.0000
  S   S1410     1.0  0.89446  0.57731  0.58901  1.0000
  S   S1411     1.0  0.90455  0.55307  0.60372  1.0000
  C   C4877     1.0  0.93735  0.88876  0.54635  1.0000
  S   S1412     1.0  0.97058  0.55313  0.57871  1.0000
  S   S1413     1.0  0.94090  0.57127  0.69093  1.0000
  Fe  Fe711     1.0  0.88549  0.56497  0.66917  1.0000
  S   S1414     1.0  0.89084  0.54670  0.67096  1.0000
  S   S1415     1.0  0.88790  0.57568  0.65211  1.0000
  Fe  Fe712     1.0  0.88174  0.56345  0.69408  1.0000
  S   S1416     1.0  0.88671  0.54507  0.69752  1.0000
  S   S1417     1.0  0.87847  0.57335  0.70701  1.0000
  Fe  Fe713     1.0  0.90013  0.54754  0.68266  1.0000
  S   S1418     1.0  0.91746  0.53876  0.68303  1.0000
  Fe  Fe714     1.0  0.87682  0.54629  0.68553  1.0000
  S   S1419     1.0  0.86452  0.53592  0.68966  1.0000
  S   S1420     1.0  0.89573  0.56583  0.67992  1.0000
  S   S1421     1.0  0.87078  0.56464  0.68300  1.0000
  Fe  Fe715     1.0  0.88683  0.63676  0.52620  1.0000
  S   S1422     1.0  0.89020  0.65233  0.52759  1.0000
  S   S1423     1.0  0.87843  0.62606  0.54117  1.0000
  Fe  Fe716     1.0  0.89599  0.64036  0.50167  1.0000
  S   S1424     1.0  0.90015  0.65610  0.50095  1.0000
  H   H8353     1.0  0.93145  0.56808  0.71420  1.0000
  Fe  Fe717     1.0  0.90604  0.64733  0.51628  1.0000
  S   S1425     1.0  0.92137  0.65122  0.51667  1.0000
  Fe  Fe718     1.0  0.88395  0.66001  0.51221  1.0000
  S   S1426     1.0  0.87418  0.67739  0.50824  1.0000
  S   S1427     1.0  0.90333  0.63110  0.51620  1.0000
  S   S1428     1.0  0.87914  0.64489  0.51162  1.0000
  H   H8354     1.0  0.92751  0.68181  0.49060  1.0000
  S   S1429     1.0  0.95213  0.61575  0.54469  1.0000
  Fe  Fe719     1.0  0.91218  0.91927  0.53209  1.0000
  S   S1430     1.0  0.92397  0.90666  0.52324  1.0000
  S   S1431     1.0  0.91622  0.93023  0.54029  1.0000
  Fe  Fe720     1.0  0.89246  0.91598  0.52706  1.0000
  S   S1432     1.0  0.90248  0.90316  0.51776  1.0000
  S   S1433     1.0  0.87473  0.91961  0.52691  1.0000
  Fe  Fe721     1.0  0.91155  0.89641  0.53117  1.0000
  S   S1434     1.0  0.91684  0.87807  0.53738  1.0000
  C   C4878     1.0  0.95087  0.52840  0.59058  1.0000
  H   H8355     1.0  0.94352  0.58783  0.57741  1.0000
  S   S1435     1.0  0.90050  0.90831  0.54138  1.0000
  H   H8356     1.0  0.97900  0.85618  0.49425  1.0000
  C   C4879     1.0  0.96636  0.52363  0.67539  1.0000
  S   S1436     1.0  0.96417  0.93354  0.53678  1.0000
  C   C4880     1.0  0.93670  0.61792  0.50757  1.0000
  Fe  Fe722     1.0  0.88532  0.72483  0.52661  1.0000
  H   H8357     1.0  0.91737  0.55770  0.52831  1.0000
  S   S1437     1.0  0.87889  0.70946  0.53486  1.0000
  H   H8358     1.0  0.88705  0.53833  0.56909  1.0000
  C   C4881     1.0  0.97651  0.66723  0.53740  1.0000
  H   H8359     1.0  0.90499  0.56292  0.53698  1.0000
  H   H8360     1.0  0.89253  0.55745  0.55110  1.0000
  H   H8361     1.0  0.94326  0.60023  0.49793  1.0000
  S   S1438     1.0  0.91251  0.79944  0.52279  1.0000
  C   C4882     1.0  0.93283  0.56145  0.64842  1.0000
  H   H8362     1.0  0.92854  0.77213  0.54143  1.0000
  S   S1439     1.0  0.88308  0.73769  0.53612  1.0000
  Fe  Fe723     1.0  0.91686  0.80973  0.53146  1.0000
  S   S1440     1.0  0.90055  0.82140  0.53322  1.0000
  S   S1441     1.0  0.92439  0.80043  0.54583  1.0000
  H   H8363     1.0  0.86196  0.68197  0.49055  1.0000
  C   C4883     1.0  0.94751  0.68482  0.55028  1.0000
  C   C4884     1.0  0.94344  0.59010  0.59964  1.0000
  H   H8364     1.0  0.84945  0.52775  0.68378  1.0000
  H   H8365     1.0  0.94732  0.71623  0.54614  1.0000
  C   C4885     1.0  0.85753  0.52403  0.67987  1.0000
  C   C4886     1.0  0.95561  0.53558  0.57068  1.0000
  C   C4887     1.0  0.88421  0.54605  0.56343  1.0000
  S   S1442     1.0  0.96293  0.54553  0.68950  1.0000
  C   C4888     1.0  0.91188  0.52510  0.71168  1.0000
  Fe  Fe724     1.0  0.83111  0.97111  0.53070  1.0000
  S   S1443     1.0  0.82039  0.96271  0.52672  1.0000
  S   S1444     1.0  0.84355  0.96273  0.54098  1.0000
  H   H8366     1.0  0.90394  0.78187  0.49938  1.0000
  H   H8367     1.0  0.95960  0.54043  0.57350  1.0000
  S   S1445     1.0  0.79018  0.97858  0.53617  1.0000
  H   H8368     1.0  0.92330  0.57946  0.63465  1.0000
  C   C4889     1.0  0.87030  0.59381  0.53760  1.0000
  C   C4890     1.0  0.93240  0.73881  0.53577  1.0000
  H   H8369     1.0  0.88714  0.87086  0.52450  1.0000
  H   H8370     1.0  0.89965  0.52110  0.64744  1.0000
  S   S1446     1.0  0.98174  0.53995  0.70343  1.0000
  H   H8371     1.0  0.93982  0.53987  0.60035  1.0000
  C   C4891     1.0  0.78082  0.97794  0.52908  1.0000
  C   C4892     1.0  0.94844  0.59945  0.59143  1.0000
  H   H8372     1.0  0.91614  0.58397  0.70028  1.0000
  C   C4893     1.0  0.92047  0.53775  0.56020  1.0000
  C   C4894     1.0  0.76297  0.97534  0.52979  1.0000
  C   C4895     1.0  0.77076  0.97564  0.53513  1.0000
  H   H8373     1.0  0.78825  0.92742  0.52684  1.0000
  H   H8374     1.0  0.94976  0.58268  0.60182  1.0000
  H   H8375     1.0  0.75532  0.97334  0.53455  1.0000
  H   H8376     1.0  0.76901  0.97401  0.54401  1.0000
  C   C4896     1.0  0.93469  0.80570  0.54737  1.0000
  C   C4897     1.0  0.93775  0.80261  0.55748  1.0000
  C   C4898     1.0  0.94614  0.80647  0.55881  1.0000
  H   H8377     1.0  0.90661  0.50241  0.60598  1.0000
  S   S1447     1.0  0.97930  0.53757  0.60691  1.0000
  C   C4899     1.0  0.94006  0.81271  0.53859  1.0000
  H   H8378     1.0  0.93362  0.79722  0.56431  1.0000
  H   H8379     1.0  0.94852  0.80398  0.56662  1.0000
  C   C4900     1.0  0.95527  0.89176  0.53548  1.0000
  H   H8380     1.0  0.93786  0.81509  0.53076  1.0000
  C   C4901     1.0  0.94883  0.89484  0.55410  1.0000
  C   C4902     1.0  0.92966  0.88541  0.55747  1.0000
  H   H8381     1.0  0.97302  0.59067  0.56393  1.0000
  H   H8382     1.0  0.92602  0.54016  0.55225  1.0000
  C   C4903     1.0  0.91552  0.55584  0.65088  1.0000
  C   C4904     1.0  0.93969  0.87477  0.49960  1.0000
  H   H8383     1.0  0.94411  0.90333  0.55147  1.0000
  H   H8384     1.0  0.90789  0.55263  0.55923  1.0000
  N   N351      1.0  0.93429  0.70261  0.54264  1.0000
  C   C4905     1.0  0.90856  0.54370  0.56022  1.0000
  H   H8385     1.0  0.92032  0.58172  0.65341  1.0000
  H   H8386     1.0  0.92351  0.70105  0.53343  1.0000
  H   H8387     1.0  0.90964  0.69179  0.52805  1.0000
  H   H8388     1.0  0.93594  0.68598  0.54081  1.0000
  H   H8389     1.0  0.97113  0.53482  0.55861  1.0000
  H   H8390     1.0  0.93872  0.54375  0.58633  1.0000
  H   H8391     1.0  0.93215  0.61091  0.58040  1.0000
  H   H8392     1.0  0.91737  0.55775  0.54200  1.0000
  H   H8393     1.0  0.95418  0.68882  0.54538  1.0000
  H   H8394     1.0  0.90145  0.52624  0.56329  1.0000
  C   C4906     1.0  0.86659  0.93200  0.53033  1.0000
  C   C4907     1.0  0.85689  0.93653  0.52669  1.0000
  C   C4908     1.0  0.84997  0.94613  0.52967  1.0000
  C   C4909     1.0  0.85254  0.95109  0.53659  1.0000
  C   C4910     1.0  0.86229  0.94661  0.54019  1.0000
  C   C4911     1.0  0.86938  0.93716  0.53695  1.0000
  H   H8395     1.0  0.85471  0.93260  0.52155  1.0000
  H   H8396     1.0  0.84253  0.94954  0.52680  1.0000
  H   H8397     1.0  0.86433  0.95039  0.54555  1.0000
  H   H8398     1.0  0.87684  0.93368  0.53982  1.0000
  C   C4912     1.0  0.92968  0.93084  0.53902  1.0000
  C   C4913     1.0  0.93158  0.93953  0.54206  1.0000
  C   C4914     1.0  0.94218  0.94026  0.54129  1.0000
  C   C4915     1.0  0.95099  0.93222  0.53761  1.0000
  C   C4916     1.0  0.94910  0.92344  0.53469  1.0000
  C   C4917     1.0  0.93845  0.92281  0.53526  1.0000
  H   H8399     1.0  0.92481  0.94573  0.54504  1.0000
  H   H8400     1.0  0.94355  0.94704  0.54364  1.0000
  H   H8401     1.0  0.95582  0.91711  0.53212  1.0000
  H   H8402     1.0  0.93695  0.91607  0.53301  1.0000
  C   C4918     1.0  0.91416  0.86988  0.53009  1.0000
  C   C4919     1.0  0.91395  0.85879  0.53481  1.0000
  C   C4920     1.0  0.91142  0.85238  0.52914  1.0000
  C   C4921     1.0  0.90894  0.85712  0.51881  1.0000
  H   H8403     1.0  0.86542  0.87988  0.54834  1.0000
  C   C4922     1.0  0.91215  0.87438  0.51957  1.0000
  H   H8404     1.0  0.91566  0.85517  0.54290  1.0000
  H   H8405     1.0  0.91125  0.84383  0.53282  1.0000
  H   H8406     1.0  0.96635  0.68461  0.51592  1.0000
  H   H8407     1.0  0.91288  0.88267  0.51559  1.0000
  H   H8408     1.0  0.95067  0.52089  0.59732  1.0000
  C   C4923     1.0  0.92885  0.64163  0.52573  1.0000
  C   C4924     1.0  0.90593  0.49372  0.60858  1.0000
  C   C4925     1.0  0.91036  0.54474  0.54040  1.0000
  C   C4926     1.0  0.94247  0.62594  0.53846  1.0000
  C   C4927     1.0  0.93312  0.62353  0.53743  1.0000
  C   C4928     1.0  0.92626  0.63143  0.53106  1.0000
  H   H8409     1.0  0.93927  0.83399  0.49040  1.0000
  H   H8410     1.0  0.94739  0.59785  0.56556  1.0000
  H   H8411     1.0  0.93136  0.61551  0.54130  1.0000
  H   H8412     1.0  0.91915  0.62952  0.53010  1.0000
  C   C4929     1.0  0.87524  0.68638  0.51571  1.0000
  C   C4930     1.0  0.87676  0.68248  0.52646  1.0000
  C   C4931     1.0  0.87759  0.68972  0.53229  1.0000
  C   C4932     1.0  0.87734  0.70084  0.52729  1.0000
  C   C4933     1.0  0.87589  0.70476  0.51650  1.0000
  C   C4934     1.0  0.87460  0.69757  0.51082  1.0000
  H   H8413     1.0  0.87701  0.67394  0.53042  1.0000
  H   H8414     1.0  0.87859  0.68666  0.54067  1.0000
  H   H8415     1.0  0.87554  0.71334  0.51262  1.0000
  H   H8416     1.0  0.87325  0.70065  0.50255  1.0000
  C   C4935     1.0  0.86649  0.52720  0.68082  1.0000
  C   C4936     1.0  0.87690  0.52257  0.67555  1.0000
  H   H8417     1.0  0.94912  0.87059  0.51743  1.0000
  C   C4937     1.0  0.90790  0.50417  0.57964  1.0000
  H   H8418     1.0  0.96903  0.55779  0.66738  1.0000
  N   N352      1.0  0.92356  0.56245  0.64327  1.0000
  H   H8419     1.0  0.88384  0.52503  0.67620  1.0000
  H   H8420     1.0  0.87675  0.62588  0.50457  1.0000
  C   C4938     1.0  0.89695  0.53013  0.64477  1.0000
  H   H8421     1.0  0.88779  0.70970  0.49408  1.0000
  C   C4939     1.0  0.85132  0.49956  0.71282  1.0000
  C   C4940     1.0  0.92939  0.49589  0.66580  1.0000
  C   C4941     1.0  0.89247  0.54862  0.55248  1.0000
  N   N353      1.0  0.90380  0.54165  0.55189  1.0000
  H   H8422     1.0  0.94605  0.49273  0.65707  1.0000
  H   H8423     1.0  0.97329  0.77058  0.53801  1.0000
  S   S1448     1.0  0.97866  0.56225  0.72042  1.0000
  H   H8424     1.0  0.96631  0.51318  0.57170  1.0000
  C   C4942     1.0  0.93426  0.56229  0.68890  1.0000
  C   C4943     1.0  0.92747  0.56605  0.68147  1.0000
  C   C4944     1.0  0.92250  0.55876  0.67954  1.0000
  C   C4945     1.0  0.92420  0.54772  0.68506  1.0000
  C   C4946     1.0  0.93110  0.54394  0.69244  1.0000
  C   C4947     1.0  0.93593  0.55126  0.69452  1.0000
  H   H8425     1.0  0.92617  0.57456  0.67709  1.0000
  H   H8426     1.0  0.91754  0.56170  0.67359  1.0000
  H   H8427     1.0  0.93261  0.53543  0.69669  1.0000
  H   H8428     1.0  0.94090  0.54836  0.70055  1.0000
  C   C4948     1.0  0.89283  0.58969  0.55362  1.0000
  C   C4949     1.0  0.88457  0.59562  0.56052  1.0000
  C   C4950     1.0  0.88050  0.60688  0.55673  1.0000
  C   C4951     1.0  0.88489  0.61237  0.54616  1.0000
  C   C4952     1.0  0.89349  0.60653  0.53943  1.0000
  C   C4953     1.0  0.89731  0.59517  0.54308  1.0000
  H   H8429     1.0  0.88103  0.59145  0.56864  1.0000
  H   H8430     1.0  0.87383  0.61134  0.56197  1.0000
  H   H8431     1.0  0.89697  0.61066  0.53129  1.0000
  H   H8432     1.0  0.90372  0.59062  0.53772  1.0000
  C   C4954     1.0  0.93529  0.56779  0.59178  1.0000
  C   C4955     1.0  0.94257  0.56395  0.59874  1.0000
  C   C4956     1.0  0.95336  0.55917  0.59476  1.0000
  C   C4957     1.0  0.95695  0.55852  0.58373  1.0000
  C   C4958     1.0  0.94969  0.56237  0.57673  1.0000
  C   C4959     1.0  0.93879  0.56690  0.58080  1.0000
  H   H8433     1.0  0.93986  0.56467  0.60721  1.0000
  H   H8434     1.0  0.95890  0.55605  0.60024  1.0000
  H   H8435     1.0  0.95250  0.56197  0.56817  1.0000
  H   H8436     1.0  0.93318  0.57005  0.57538  1.0000
  C   C4960     1.0  0.90731  0.52031  0.58605  1.0000
  C   C4961     1.0  0.89612  0.52347  0.58674  1.0000
  H   H8437     1.0  0.88898  0.86364  0.54338  1.0000
  H   H8438     1.0  0.94769  0.50734  0.68565  1.0000
  H   H8439     1.0  0.92721  0.59868  0.58264  1.0000
  H   H8440     1.0  0.89151  0.53088  0.58947  1.0000
  H   H8441     1.0  0.94215  0.60710  0.59194  1.0000
  H   H8442     1.0  0.96434  0.61630  0.49849  1.0000
  C   C4962     1.0  0.87826  0.56613  0.62541  1.0000
  C   C4963     1.0  0.87244  0.56391  0.63633  1.0000
  C   C4964     1.0  0.87557  0.56645  0.64467  1.0000
  C   C4965     1.0  0.88415  0.57176  0.64202  1.0000
  C   C4966     1.0  0.88972  0.57427  0.63106  1.0000
  C   C4967     1.0  0.88695  0.57124  0.62283  1.0000
  H   H8443     1.0  0.86557  0.56017  0.63837  1.0000
  H   H8444     1.0  0.87112  0.56466  0.65310  1.0000
  H   H8445     1.0  0.89617  0.57861  0.62889  1.0000
  H   H8446     1.0  0.89138  0.57316  0.61442  1.0000
  C   C4968     1.0  0.91279  0.57761  0.70708  1.0000
  H   H8447     1.0  0.96171  0.86100  0.51833  1.0000
  C   C4969     1.0  0.96861  0.55508  0.65189  1.0000
  H   H8448     1.0  0.95969  0.76476  0.50905  1.0000
  Fe  Fe725     1.0  0.73856  0.98040  0.51930  1.0000
  C   C4970     1.0  0.94451  0.59648  0.57466  1.0000
  H   H8449     1.0  0.86687  0.88985  0.51909  1.0000
  C   C4971     1.0  0.91255  0.55645  0.53689  1.0000
  C   C4972     1.0  0.97372  0.49681  0.73247  1.0000
  C   C4973     1.0  0.86531  0.97893  0.53816  1.0000
  H   H8450     1.0  0.96183  0.50880  0.58586  1.0000
  H   H8451     1.0  0.80931  0.96907  0.50378  1.0000
  H   H8452     1.0  0.96008  0.85213  0.50446  1.0000
  H   H8453     1.0  0.85718  0.78474  0.52728  1.0000
  N   N354      1.0  0.95287  0.59791  0.57979  1.0000
  C   C4974     1.0  0.98547  0.86093  0.53630  1.0000
  H   H8454     1.0  0.93747  0.58792  0.59654  1.0000
  C   C4975     1.0  0.78478  0.95138  0.50690  1.0000
  Fe  Fe726     1.0  0.80779  0.97841  0.52778  1.0000
  H   H8455     1.0  0.90808  0.58798  0.64869  1.0000
  H   H8456     1.0  0.88806  0.52937  0.55190  1.0000
  H   H8457     1.0  0.78471  0.94267  0.53443  1.0000
  C   C4976     1.0  0.89086  0.51701  0.58384  1.0000
  C   C4977     1.0  0.89837  0.72018  0.49264  1.0000
  N   N355      1.0  0.89430  0.77166  0.55081  1.0000
  C   C4978     1.0  0.89569  0.78339  0.54660  1.0000
  C   C4979     1.0  0.90421  0.76453  0.54511  1.0000
  C   C4980     1.0  0.89363  0.76870  0.56305  1.0000
  C   C4981     1.0  0.88397  0.77110  0.54832  1.0000
  C   C4982     1.0  0.88700  0.79207  0.55223  1.0000
  C   C4983     1.0  0.90569  0.76633  0.53259  1.0000
  C   C4984     1.0  0.89631  0.75637  0.56853  1.0000
  C   C4985     1.0  0.88171  0.75962  0.55011  1.0000
  H   H8458     1.0  0.90371  0.78405  0.54735  1.0000
  H   H8459     1.0  0.89561  0.78625  0.53773  1.0000
  H   H8460     1.0  0.90438  0.75568  0.54843  1.0000
  H   H8461     1.0  0.91166  0.76564  0.54672  1.0000
  H   H8462     1.0  0.89931  0.77241  0.56509  1.0000
  H   H8463     1.0  0.88539  0.77222  0.56752  1.0000
  H   H8464     1.0  0.87679  0.77570  0.55337  1.0000
  H   H8465     1.0  0.88335  0.77550  0.53981  1.0000
  H   H8466     1.0  0.88906  0.80025  0.54844  1.0000
  H   H8467     1.0  0.87885  0.79280  0.55090  1.0000
  H   H8468     1.0  0.88675  0.79053  0.56111  1.0000
  H   H8469     1.0  0.90705  0.77462  0.52814  1.0000
  H   H8470     1.0  0.91297  0.76034  0.52945  1.0000
  H   H8471     1.0  0.89876  0.76475  0.53049  1.0000
  H   H8472     1.0  0.89178  0.75148  0.56652  1.0000
  H   H8473     1.0  0.89413  0.75541  0.57760  1.0000
  H   H8474     1.0  0.90514  0.75281  0.56633  1.0000
  H   H8475     1.0  0.87697  0.75706  0.55854  1.0000
  H   H8476     1.0  0.88903  0.75312  0.54842  1.0000
  H   H8477     1.0  0.87689  0.75996  0.54418  1.0000
  N   N356      1.0  0.88286  0.52925  0.63469  1.0000
  C   C4986     1.0  0.88516  0.53359  0.64326  1.0000
  C   C4987     1.0  0.87112  0.53413  0.63424  1.0000
  C   C4988     1.0  0.89009  0.53320  0.62385  1.0000
  C   C4989     1.0  0.88541  0.51687  0.63797  1.0000
  C   C4990     1.0  0.98443  0.54865  0.66002  1.0000
  C   C4991     1.0  0.86276  0.53056  0.64474  1.0000
  C   C4992     1.0  0.88707  0.53277  0.61336  1.0000
  S   S1449     1.0  0.97671  0.90917  0.52194  1.0000
  H   H8478     1.0  0.88298  0.54274  0.64142  1.0000
  H   H8479     1.0  0.88009  0.53098  0.65149  1.0000
  H   H8480     1.0  0.86892  0.53231  0.62743  1.0000
  H   H8481     1.0  0.86957  0.54327  0.63235  1.0000
  H   H8482     1.0  0.89031  0.54194  0.62292  1.0000
  H   H8483     1.0  0.89862  0.52848  0.62350  1.0000
  H   H8484     1.0  0.90614  0.70742  0.54485  1.0000
  H   H8485     1.0  0.88233  0.51403  0.64690  1.0000
  H   H8486     1.0  0.91677  0.56944  0.62175  1.0000
  S   S1450     1.0  0.90287  0.82292  0.50709  1.0000
  C   C4993     1.0  0.96283  0.53381  0.55938  1.0000
  H   H8487     1.0  0.85450  0.53391  0.64307  1.0000
  H   H8488     1.0  0.86385  0.52150  0.64730  1.0000
  H   H8489     1.0  0.86288  0.53393  0.65165  1.0000
  H   H8490     1.0  0.87976  0.53918  0.61173  1.0000
  H   H8491     1.0  0.88598  0.52464  0.61343  1.0000
  H   H8492     1.0  0.89377  0.53462  0.60626  1.0000
  H   H8493     1.0  0.87938  0.58190  0.72482  1.0000
  H   H8494     1.0  0.87425  0.51504  0.62865  1.0000
  H   H8495     1.0  0.91359  0.69624  0.55318  1.0000
  H   H8496     1.0  0.85093  0.62557  0.53877  1.0000
  H   H8497     1.0  0.94023  0.86000  0.48722  1.0000
  H   H8498     1.0  0.94619  0.55045  0.65515  1.0000
  H   H8499     1.0  0.92432  0.55362  0.72068  1.0000
  C   C4994     1.0  0.96779  0.82073  0.49133  1.0000
  H   H8500     1.0  0.93405  0.56419  0.62706  1.0000
  H   H8501     1.0  0.85936  0.81889  0.49248  1.0000
  H   H8502     1.0  0.91199  0.71030  0.55421  1.0000
  H   H8503     1.0  0.94255  0.93785  0.51467  1.0000
  C   C4995     1.0  0.92417  0.73693  0.53217  1.0000
  H   H8504     1.0  0.92984  0.69099  0.51218  1.0000
  H   H8505     1.0  0.94856  0.84158  0.51626  1.0000
  H   H8506     1.0  0.91836  0.53888  0.53913  1.0000
  C   C4996     1.0  0.89682  0.52631  0.54868  1.0000
  H   H8507     1.0  0.91621  0.60943  0.50878  1.0000
  H   H8508     1.0  0.96649  0.94156  0.49344  1.0000
  H   H8509     1.0  0.89257  0.88378  0.53072  1.0000
  C   C4997     1.0  0.94447  0.52146  0.57844  1.0000
  C   C4998     1.0  0.86476  0.60611  0.53519  1.0000
  C   C4999     1.0  0.92804  0.55925  0.63230  1.0000
  H   H8510     1.0  0.92919  0.62350  0.51106  1.0000
  H   H8511     1.0  0.97215  0.93393  0.50496  1.0000
  H   H8512     1.0  0.93402  0.49501  0.57505  1.0000
  H   H8513     1.0  0.89337  0.88083  0.54845  1.0000
  H   H8514     1.0  0.89821  0.51719  0.55054  1.0000
  H   H8515     1.0  0.87888  0.49686  0.70158  1.0000
  H   H8516     1.0  0.86064  0.97271  0.53900  1.0000
  H   H8517     1.0  0.88051  0.87741  0.55283  1.0000
  Fe  Fe727     1.0  0.97600  0.64313  0.52898  1.0000
  C   C5000     1.0  0.78572  0.92599  0.51157  1.0000
  H   H8518     1.0  0.96825  0.49119  0.69595  1.0000
  C   C5001     1.0  0.92949  0.57354  0.71999  1.0000
  S   S1451     1.0  0.97157  0.63194  0.52143  1.0000
  C   C5002     1.0  0.92311  0.49422  0.72224  1.0000
  C   C5003     1.0  0.97598  0.68626  0.53702  1.0000
  H   H8519     1.0  0.83748  0.98607  0.54492  1.0000
  S   S1452     1.0  0.81281  0.98641  0.51010  1.0000
  H   H8520     1.0  0.90170  0.57991  0.72241  1.0000
  H   H8521     1.0  0.87821  0.83330  0.49171  1.0000
  H   H8522     1.0  0.95958  0.54042  0.55283  1.0000
  H   H8523     1.0  0.90262  0.52369  0.69547  1.0000
  H   H8524     1.0  0.87680  0.97589  0.52261  1.0000
  C   C5004     1.0  0.93424  0.63920  0.49119  1.0000
  H   H8525     1.0  0.84443  0.61287  0.51753  1.0000
  Fe  Fe728     1.0  0.96732  0.62227  0.53866  1.0000
  H   H8526     1.0  0.88136  0.61487  0.52322  1.0000
  H   H8527     1.0  0.92003  0.62588  0.49756  1.0000
  H   H8528     1.0  0.90487  0.53039  0.70827  1.0000
  H   H8529     1.0  0.91374  0.49831  0.67672  1.0000
  H   H8530     1.0  0.88221  0.51953  0.58429  1.0000
  H   H8531     1.0  0.78005  0.95632  0.52746  1.0000
  H   H8532     1.0  0.94839  0.86893  0.54065  1.0000
  C   C5005     1.0  0.86543  0.78581  0.52498  1.0000
  H   H8533     1.0  0.89885  0.52916  0.53963  1.0000
  H   H8534     1.0  0.96120  0.53454  0.65602  1.0000
  H   H8535     1.0  0.91240  0.55730  0.63053  1.0000
  H   H8536     1.0  0.93002  0.60702  0.56927  1.0000
  C   C5006     1.0  0.95044  0.61897  0.57196  1.0000
  N   N357      1.0  0.94897  0.88752  0.54680  1.0000
  H   H8537     1.0  0.85123  0.51649  0.70314  1.0000
  H   H8538     1.0  0.92763  0.89162  0.56252  1.0000
  C   C5007     1.0  0.88152  0.51051  0.63192  1.0000
  H   H8539     1.0  0.93647  0.70308  0.49672  1.0000
  Fe  Fe729     1.0  0.97567  0.82580  0.51034  1.0000
  H   H8540     1.0  0.96565  0.50303  0.67839  1.0000
  C   C5008     1.0  0.91313  0.51062  0.58259  1.0000
  H   H8541     1.0  0.75738  0.93867  0.53489  1.0000
  H   H8542     1.0  0.94503  0.52578  0.56072  1.0000
  C   C5009     1.0  0.86285  0.76119  0.49728  1.0000
  C   C5010     1.0  0.93295  0.60374  0.57705  1.0000
  C   C5011     1.0  0.97283  0.61616  0.49509  1.0000
  C   C5012     1.0  0.93960  0.54982  0.65177  1.0000
  C   C5013     1.0  0.77516  0.97979  0.51226  1.0000
  H   H8543     1.0  0.95322  0.60801  0.49277  1.0000
  H   H8544     1.0  0.84696  0.97799  0.55350  1.0000
  H   H8545     1.0  0.93478  0.56916  0.72595  1.0000
  C   C5014     1.0  0.91789  0.57445  0.64102  1.0000
  H   H8546     1.0  0.87710  0.50346  0.71704  1.0000
  H   H8547     1.0  0.91436  0.55648  0.65949  1.0000
  H   H8548     1.0  0.95021  0.67628  0.54895  1.0000
  H   H8549     1.0  0.90895  0.57502  0.65811  1.0000
  C   C5015     1.0  0.94145  0.84368  0.51250  1.0000
  C   C5016     1.0  0.85900  0.51586  0.67415  1.0000
  Fe  Fe730     1.0  0.88230  0.74994  0.52010  1.0000
  H   H8550     1.0  0.95781  0.76306  0.53365  1.0000
  H   H8551     1.0  0.92660  0.53965  0.64792  1.0000
  C   C5017     1.0  0.95517  0.86057  0.50485  1.0000
  Fe  Fe731     1.0  0.97336  0.55578  0.70885  1.0000
  H   H8552     1.0  0.77699  0.92771  0.51173  1.0000
  C   C5018     1.0  0.97139  0.49656  0.69864  1.0000
  C   C5019     1.0  0.95169  0.81323  0.54994  1.0000
  H   H8553     1.0  0.92143  0.52869  0.56249  1.0000
  H   H8554     1.0  0.96028  0.50359  0.66718  1.0000
  C   C5020     1.0  0.91802  0.54347  0.65079  1.0000
  H   H8555     1.0  0.88904  0.54830  0.54568  1.0000
  H   H8556     1.0  0.93038  0.68790  0.55416  1.0000
  C   C5021     1.0  0.91366  0.57995  0.65098  1.0000
  H   H8557     1.0  0.94605  0.72957  0.48934  1.0000
  H   H8558     1.0  0.91753  0.70070  0.51171  1.0000
  H   H8559     1.0  0.95717  0.53211  0.59146  1.0000
  H   H8560     1.0  0.93599  0.51823  0.68507  1.0000
  C   C5022     1.0  0.94455  0.63641  0.53374  1.0000
  H   H8561     1.0  0.90741  0.55936  0.64883  1.0000
  H   H8562     1.0  0.97874  0.86066  0.54331  1.0000
  C   C5023     1.0  0.89340  0.71448  0.48853  1.0000
  H   H8563     1.0  0.93305  0.53251  0.59570  1.0000
  H   H8564     1.0  0.85205  0.51326  0.67368  1.0000
  H   H8565     1.0  0.89781  0.92373  0.49753  1.0000
  S   S1453     1.0  0.92459  0.82032  0.51607  1.0000
  H   H8566     1.0  0.85660  0.75988  0.49396  1.0000
  H   H8567     1.0  0.94247  0.68044  0.49912  1.0000
  H   H8568     1.0  0.92313  0.71000  0.49436  1.0000
  H   H8569     1.0  0.92330  0.55629  0.61875  1.0000
  C   C5024     1.0  0.88670  0.78879  0.51904  1.0000
  S   S1454     1.0  0.92846  0.80647  0.49171  1.0000
  N   N358      1.0  0.93694  0.61796  0.49584  1.0000
  H   H8570     1.0  0.97329  0.75056  0.49113  1.0000
  C   C5025     1.0  0.89674  0.50738  0.58019  1.0000
  S   S1455     1.0  0.91117  0.73410  0.49064  1.0000
  C   C5026     1.0  0.98435  0.90848  0.48844  1.0000
  H   H8571     1.0  0.96045  0.86617  0.49936  1.0000
  H   H8572     1.0  0.85072  0.50190  0.72058  1.0000
  S   S1456     1.0  0.92079  0.91473  0.49263  1.0000
  H   H8573     1.0  0.93298  0.87721  0.56220  1.0000
  H   H8574     1.0  0.95536  0.62507  0.56700  1.0000
  Fe  Fe732     1.0  0.95608  0.56085  0.69592  1.0000
  H   H8575     1.0  0.95879  0.90030  0.56146  1.0000
  H   H8576     1.0  0.91229  0.52467  0.55202  1.0000
  H   H8577     1.0  0.93907  0.59282  0.60740  1.0000
  H   H8578     1.0  0.92313  0.54003  0.56649  1.0000
  H   H8579     1.0  0.91069  0.57563  0.63761  1.0000
  S   S1457     1.0  0.95663  0.55255  0.71336  1.0000
  H   H8580     1.0  0.94518  0.77914  0.53352  1.0000
  H   H8581     1.0  0.95199  0.52483  0.64894  1.0000
  H   H8582     1.0  0.96074  0.89010  0.51858  1.0000
  H   H8583     1.0  0.94837  0.88579  0.52513  1.0000
  C   C5027     1.0  0.95434  0.76568  0.51720  1.0000
  H   H8584     1.0  0.90384  0.54113  0.56868  1.0000
  C   C5028     1.0  0.94409  0.70171  0.52254  1.0000
  H   H8585     1.0  0.93978  0.65212  0.52333  1.0000
  H   H8586     1.0  0.86231  0.97947  0.51439  1.0000
  C   C5029     1.0  0.92925  0.49639  0.60555  1.0000
  H   H8587     1.0  0.93501  0.84004  0.51881  1.0000
  H   H8588     1.0  0.86649  0.97801  0.54657  1.0000
  C   C5030     1.0  0.90929  0.86813  0.51407  1.0000
  H   H8589     1.0  0.95858  0.58030  0.58509  1.0000
  H   H8590     1.0  0.94598  0.69261  0.52442  1.0000
  Fe  Fe733     1.0  0.82625  0.97135  0.50944  1.0000
  C   C5031     1.0  0.93786  0.64418  0.52726  1.0000
  C   C5032     1.0  0.90391  0.52955  0.55435  1.0000
  H   H8591     1.0  0.94245  0.51286  0.72909  1.0000
  H   H8592     1.0  0.97197  0.64924  0.49878  1.0000
  C   C5033     1.0  0.95632  0.88574  0.52646  1.0000
  H   H8593     1.0  0.95167  0.90055  0.53245  1.0000
  C   C5034     1.0  0.95171  0.86651  0.54810  1.0000
  H   H8594     1.0  0.93605  0.60814  0.52423  1.0000
  H   H8595     1.0  0.91307  0.54204  0.64590  1.0000
  H   H8596     1.0  0.90023  0.49290  0.60410  1.0000
  C   C5035     1.0  0.93666  0.69030  0.54678  1.0000
  H   H8597     1.0  0.93381  0.89747  0.54283  1.0000
  H   H8598     1.0  0.93659  0.88410  0.54077  1.0000
  H   H8599     1.0  0.96133  0.87727  0.52812  1.0000
  S   S1458     1.0  0.90332  0.92775  0.51844  1.0000
  H   H8600     1.0  0.91545  0.53879  0.65930  1.0000
  H   H8601     1.0  0.90628  0.54406  0.53427  1.0000
  C   C5036     1.0  0.90968  0.78611  0.49321  1.0000
  H   H8602     1.0  0.88200  0.89657  0.50417  1.0000
  H   H8603     1.0  0.96374  0.89137  0.53565  1.0000
  H   H8604     1.0  0.92989  0.56456  0.65610  1.0000
  C   C5037     1.0  0.95433  0.87588  0.55147  1.0000
  C   C5038     1.0  0.95997  0.89592  0.55484  1.0000
  H   H8605     1.0  0.92189  0.88503  0.55595  1.0000
  H   H8606     1.0  0.96029  0.55951  0.65226  1.0000
  H   H8607     1.0  0.84532  0.92042  0.48628  1.0000
  C   C5039     1.0  0.91507  0.79235  0.49614  1.0000
  H   H8608     1.0  0.94466  0.89183  0.56271  1.0000
  H   H8609     1.0  0.88612  0.80392  0.49801  1.0000
  H   H8610     1.0  0.96330  0.87485  0.54936  1.0000
  H   H8611     1.0  0.95926  0.86013  0.54653  1.0000
  H   H8612     1.0  0.94611  0.86227  0.55500  1.0000
  C   C5040     1.0  0.98195  0.89923  0.49648  1.0000
  H   H8613     1.0  0.91253  0.49684  0.57675  1.0000
  H   H8614     1.0  0.97336  0.66815  0.49655  1.0000
  H   H8615     1.0  0.84546  0.50853  0.69766  1.0000
  H   H8616     1.0  0.96549  0.88783  0.55693  1.0000
  N   N359      1.0  0.95377  0.52545  0.57948  1.0000
  H   H8617     1.0  0.96395  0.90098  0.54719  1.0000
  H   H8618     1.0  0.95206  0.87414  0.56062  1.0000
  H   H8619     1.0  0.95141  0.63852  0.53498  1.0000
  S   S1459     1.0  0.87038  0.76630  0.51886  1.0000
  C   C5041     1.0  0.94855  0.81645  0.53986  1.0000
  H   H8620     1.0  0.94671  0.68451  0.55910  1.0000
  C   C5042     1.0  0.88444  0.77939  0.51745  1.0000
  C   C5043     1.0  0.93046  0.87897  0.49326  1.0000
  H   H8621     1.0  0.97489  0.76766  0.56728  1.0000
  H   H8622     1.0  0.92596  0.87273  0.49385  1.0000
  H   H8623     1.0  0.93931  0.76163  0.53654  1.0000
  H   H8624     1.0  0.93272  0.55065  0.63306  1.0000
  S   S1460     1.0  0.97368  0.81018  0.52275  1.0000
  H   H8625     1.0  0.94354  0.54584  0.64471  1.0000
  C   C5044     1.0  0.86006  0.89708  0.54188  1.0000
  C   C5045     1.0  0.91955  0.56066  0.62559  1.0000
  H   H8626     1.0  0.93474  0.54463  0.65851  1.0000
  Fe  Fe734     1.0  0.96487  0.53758  0.70655  1.0000
  C   C5046     1.0  0.93997  0.53661  0.59324  1.0000
  Fe  Fe735     1.0  0.91408  0.91417  0.51047  1.0000
  H   H8627     1.0  0.90300  0.68057  0.53311  1.0000
  S   S1461     1.0  0.97028  0.63433  0.54632  1.0000
  C   C5047     1.0  0.92216  0.75584  0.49003  1.0000
  C   C5048     1.0  0.94553  0.51839  0.56752  1.0000
  H   H8628     1.0  0.89088  0.77339  0.51376  1.0000
  C   C5049     1.0  0.87379  0.77784  0.52055  1.0000
  H   H8629     1.0  0.92916  0.70403  0.55968  1.0000
  S   S1462     1.0  0.88271  0.73725  0.51110  1.0000
  S   S1463     1.0  0.95909  0.52204  0.71356  1.0000
  H   H8630     1.0  0.93715  0.73589  0.50584  1.0000
  H   H8631     1.0  0.93851  0.56663  0.64282  1.0000
  C   C5050     1.0  0.88479  0.88389  0.54769  1.0000
  H   H8632     1.0  0.91899  0.52627  0.70483  1.0000
  C   C5051     1.0  0.86768  0.79504  0.52668  1.0000
  H   H8633     1.0  0.86113  0.80102  0.53031  1.0000
  C   C5052     1.0  0.87829  0.79655  0.52381  1.0000
  Fe  Fe736     1.0  0.89692  0.81199  0.52303  1.0000
  C   C5053     1.0  0.91338  0.70483  0.54852  1.0000
  H   H8634     1.0  0.94183  0.71379  0.56053  1.0000
  H   H8635     1.0  0.95104  0.70437  0.51617  1.0000
  N   N360      1.0  0.87586  0.88378  0.53211  1.0000
  S   S1464     1.0  0.75628  0.97534  0.51155  1.0000
  Fe  Fe737     1.0  0.90799  0.83126  0.51712  1.0000
  C   C5054     1.0  0.92357  0.70595  0.53919  1.0000
  H   H8636     1.0  0.95084  0.70432  0.53453  1.0000
  H   H8637     1.0  0.93690  0.70506  0.51881  1.0000
  C   C5055     1.0  0.93327  0.70841  0.55160  1.0000
  H   H8638     1.0  0.94352  0.83952  0.50559  1.0000
  C   C5056     1.0  0.94491  0.60802  0.49231  1.0000
  H   H8639     1.0  0.98660  0.53862  0.72550  1.0000
  H   H8640     1.0  0.84836  0.98400  0.52879  1.0000
  C   C5057     1.0  0.95535  0.78501  0.51349  1.0000
  S   S1465     1.0  0.96872  0.72818  0.53457  1.0000
  C   C5058     1.0  0.90607  0.68637  0.52552  1.0000
  C   C5059     1.0  0.94270  0.70631  0.53270  1.0000
  C   C5060     1.0  0.94379  0.71021  0.55320  1.0000
  H   H8641     1.0  0.96317  0.53268  0.67438  1.0000
  H   H8642     1.0  0.92572  0.94074  0.50114  1.0000
  C   C5061     1.0  0.78855  0.93244  0.51831  1.0000
  Fe  Fe738     1.0  0.90096  0.73598  0.53026  1.0000
  H   H8643     1.0  0.93627  0.87696  0.50777  1.0000
  C   C5062     1.0  0.94086  0.93921  0.50640  1.0000
  S   S1466     1.0  0.97201  0.56569  0.69183  1.0000
  H   H8644     1.0  0.97817  0.80948  0.50168  1.0000
  H   H8645     1.0  0.94636  0.90388  0.50113  1.0000
  C   C5063     1.0  0.92635  0.67825  0.49956  1.0000
  H   H8646     1.0  0.90953  0.59004  0.71618  1.0000
  H   H8647     1.0  0.91084  0.67311  0.51712  1.0000
  C   C5064     1.0  0.98492  0.54160  0.73291  1.0000
  H   H8648     1.0  0.89896  0.69125  0.52211  1.0000
  C   C5065     1.0  0.92361  0.69474  0.50712  1.0000
  H   H8649     1.0  0.93507  0.77422  0.51122  1.0000
  H   H8650     1.0  0.95267  0.82184  0.53304  1.0000
  H   H8651     1.0  0.90748  0.87181  0.50604  1.0000
  S   S1467     1.0  0.90556  0.84965  0.51137  1.0000
  S   S1468     1.0  0.88045  0.80828  0.52645  1.0000
  H   H8652     1.0  0.89489  0.79000  0.51662  1.0000
  C   C5066     1.0  0.77828  0.95191  0.49849  1.0000
  C   C5067     1.0  0.87379  0.76212  0.48906  1.0000
  H   H8653     1.0  0.90356  0.69846  0.50465  1.0000
  H   H8654     1.0  0.86576  0.90062  0.54399  1.0000
  C   C5068     1.0  0.93759  0.60673  0.51583  1.0000
  H   H8655     1.0  0.95000  0.70255  0.55464  1.0000
  H   H8656     1.0  0.97102  0.49872  0.62683  1.0000
  H   H8657     1.0  0.92219  0.71467  0.53461  1.0000
  H   H8658     1.0  0.94075  0.71545  0.53008  1.0000
  C   C5069     1.0  0.91446  0.67972  0.51750  1.0000
  H   H8659     1.0  0.93045  0.69810  0.48903  1.0000
  H   H8660     1.0  0.97537  0.88480  0.50039  1.0000
  C   C5070     1.0  0.94766  0.85920  0.49010  1.0000
  C   C5071     1.0  0.93707  0.85620  0.50903  1.0000
  H   H8661     1.0  0.87915  0.50309  0.63782  1.0000
  H   H8662     1.0  0.97931  0.49405  0.72510  1.0000
  H   H8663     1.0  0.94951  0.85611  0.52294  1.0000
  C   C5072     1.0  0.87672  0.97508  0.53132  1.0000
  H   H8664     1.0  0.92130  0.67531  0.52161  1.0000
  C   C5073     1.0  0.88176  0.86306  0.54095  1.0000
  C   C5074     1.0  0.90238  0.68455  0.49941  1.0000
  C   C5075     1.0  0.78299  0.98006  0.51760  1.0000
  H   H8665     1.0  0.93685  0.52785  0.57930  1.0000
  C   C5076     1.0  0.90918  0.69197  0.50048  1.0000
  S   S1469     1.0  0.96312  0.81681  0.55122  1.0000
  S   S1470     1.0  0.91167  0.73575  0.54103  1.0000
  C   C5077     1.0  0.94505  0.50401  0.73280  1.0000
  H   H8666     1.0  0.88257  0.97946  0.53194  1.0000
  H   H8667     1.0  0.92990  0.85712  0.50569  1.0000
  C   C5078     1.0  0.87945  0.87203  0.53076  1.0000
  H   H8668     1.0  0.87662  0.54537  0.56179  1.0000
  H   H8669     1.0  0.92543  0.62094  0.48557  1.0000
  H   H8670     1.0  0.93108  0.73957  0.54416  1.0000
  N   N361      1.0  0.94491  0.86267  0.50088  1.0000
  H   H8671     1.0  0.93380  0.85943  0.51666  1.0000
  H   H8672     1.0  0.88211  0.55283  0.56782  1.0000
  C   C5079     1.0  0.84277  0.98642  0.55007  1.0000
  H   H8673     1.0  0.87469  0.86302  0.54796  1.0000
  S   S1471     1.0  0.90341  0.72217  0.52205  1.0000
  H   H8674     1.0  0.92802  0.71682  0.55003  1.0000
  H   H8675     1.0  0.98384  0.89760  0.50443  1.0000
  H   H8676     1.0  0.95159  0.85036  0.49106  1.0000
  S   S1472     1.0  0.97456  0.83535  0.52268  1.0000
  C   C5080     1.0  0.76524  0.97721  0.51834  1.0000
  H   H8677     1.0  0.89431  0.51362  0.63689  1.0000
  H   H8678     1.0  0.94296  0.51420  0.58517  1.0000
  H   H8679     1.0  0.90861  0.84582  0.48822  1.0000
  N   N362      1.0  0.91842  0.68619  0.50615  1.0000
  H   H8680     1.0  0.86819  0.83072  0.51125  1.0000
  H   H8681     1.0  0.94773  0.54111  0.56928  1.0000
  C   C5081     1.0  0.93399  0.76969  0.53386  1.0000
  H   H8682     1.0  0.94589  0.87977  0.49523  1.0000
  C   C5082     1.0  0.94999  0.79734  0.51061  1.0000
  S   S1473     1.0  0.90005  0.74921  0.51497  1.0000
  C   C5083     1.0  0.91206  0.50909  0.70501  1.0000
  H   H8683     1.0  0.98559  0.75593  0.57048  1.0000
  C   C5084     1.0  0.96592  0.50703  0.66959  1.0000
  H   H8684     1.0  0.88575  0.55039  0.71705  1.0000
  H   H8685     1.0  0.86762  0.58900  0.53344  1.0000
  C   C5085     1.0  0.96814  0.51206  0.70685  1.0000
  S   S1474     1.0  0.95425  0.49125  0.58093  1.0000
  S   S1475     1.0  0.83216  0.96269  0.49549  1.0000
  H   H8686     1.0  0.95837  0.92316  0.51230  1.0000
  C   C5086     1.0  0.95363  0.86219  0.51656  1.0000
  Fe  Fe739     1.0  0.90074  0.73554  0.50728  1.0000
  H   H8687     1.0  0.91351  0.79279  0.50457  1.0000
  C   C5087     1.0  0.96370  0.51616  0.57942  1.0000
  H   H8688     1.0  0.88985  0.61706  0.50412  1.0000
  H   H8689     1.0  0.86096  0.66337  0.49843  1.0000
  H   H8690     1.0  0.96258  0.58382  0.56438  1.0000
  H   H8691     1.0  0.94862  0.74147  0.53119  1.0000
  Fe  Fe740     1.0  0.91878  0.81110  0.50750  1.0000
  H   H8692     1.0  0.85895  0.62772  0.51380  1.0000
  C   C5088     1.0  0.96089  0.52219  0.64806  1.0000
  H   H8693     1.0  0.90706  0.52775  0.72867  1.0000
  H   H8694     1.0  0.96521  0.92187  0.49872  1.0000
  S   S1476     1.0  0.97701  0.56454  0.60063  1.0000
  H   H8695     1.0  0.96680  0.53576  0.73272  1.0000
  C   C5089     1.0  0.95913  0.92759  0.50356  1.0000
  H   H8696     1.0  0.87971  0.61285  0.50066  1.0000
  H   H8697     1.0  0.88813  0.50774  0.62517  1.0000
  H   H8698     1.0  0.92396  0.76224  0.49292  1.0000
  C   C5090     1.0  0.86189  0.60659  0.51676  1.0000
  C   C5091     1.0  0.86981  0.73949  0.48639  1.0000
  H   H8699     1.0  0.86898  0.50744  0.69637  1.0000
  C   C5092     1.0  0.94236  0.73978  0.52847  1.0000
  H   H8700     1.0  0.98243  0.51265  0.67599  1.0000
  C   C5093     1.0  0.85005  0.60530  0.52085  1.0000
  H   H8701     1.0  0.94010  0.50653  0.60476  1.0000
  H   H8702     1.0  0.96453  0.52643  0.63969  1.0000
  C   C5094     1.0  0.96805  0.58470  0.56904  1.0000
  H   H8703     1.0  0.96898  0.76537  0.52204  1.0000
  C   C5095     1.0  0.94051  0.77864  0.52780  1.0000
  H   H8704     1.0  0.98271  0.52500  0.66507  1.0000
  H   H8705     1.0  0.91773  0.59061  0.72954  1.0000
  C   C5096     1.0  0.97370  0.51870  0.58136  1.0000
  H   H8706     1.0  0.91188  0.50024  0.70725  1.0000
  H   H8707     1.0  0.96335  0.52594  0.55739  1.0000
  H   H8708     1.0  0.96364  0.52002  0.68421  1.0000
  H   H8709     1.0  0.93447  0.78659  0.52698  1.0000
  H   H8710     1.0  0.93208  0.49715  0.59650  1.0000
  H   H8711     1.0  0.79850  0.95328  0.52953  1.0000
  N   N363      1.0  0.86599  0.61192  0.52324  1.0000
  H   H8712     1.0  0.95122  0.50059  0.72620  1.0000
  H   H8713     1.0  0.97697  0.78042  0.57333  1.0000
  H   H8714     1.0  0.95937  0.94319  0.50729  1.0000
  H   H8715     1.0  0.85592  0.94200  0.49669  1.0000
  Fe  Fe741     1.0  0.97892  0.54954  0.68673  1.0000
  H   H8716     1.0  0.88386  0.51553  0.72642  1.0000
  C   C5097     1.0  0.98257  0.49560  0.69664  1.0000
  H   H8717     1.0  0.85947  0.91733  0.48510  1.0000
  C   C5098     1.0  0.95083  0.91060  0.49850  1.0000
  H   H8718     1.0  0.87228  0.89990  0.52136  1.0000
  H   H8719     1.0  0.86574  0.62866  0.52344  1.0000
  C   C5099     1.0  0.97930  0.51149  0.70437  1.0000
  H   H8720     1.0  0.74353  0.97461  0.49320  1.0000
  H   H8721     1.0  0.94179  0.58170  0.70837  1.0000
  S   S1477     1.0  0.96786  0.55164  0.63223  1.0000
  C   C5100     1.0  0.97357  0.55408  0.66050  1.0000
  H   H8722     1.0  0.80337  0.94238  0.52234  1.0000
  H   H8723     1.0  0.90267  0.53334  0.63727  1.0000
  H   H8724     1.0  0.93861  0.51471  0.56831  1.0000
  H   H8725     1.0  0.89140  0.88943  0.51272  1.0000
  C   C5101     1.0  0.87795  0.61131  0.51844  1.0000
  C   C5102     1.0  0.94401  0.73890  0.51759  1.0000
  C   C5103     1.0  0.97175  0.78771  0.55318  1.0000
  H   H8726     1.0  0.97377  0.57661  0.57062  1.0000
  H   H8727     1.0  0.89845  0.82052  0.48575  1.0000
  H   H8728     1.0  0.85953  0.83197  0.50236  1.0000
  C   C5104     1.0  0.94059  0.49246  0.66504  1.0000
  H   H8729     1.0  0.91068  0.53922  0.71812  1.0000
  H   H8730     1.0  0.89737  0.53372  0.65142  1.0000
  H   H8731     1.0  0.88256  0.60266  0.51894  1.0000
  N   N364      1.0  0.96197  0.51931  0.66828  1.0000
  C   C5105     1.0  0.97231  0.67067  0.52793  1.0000
  S   S1478     1.0  0.97102  0.66117  0.52131  1.0000
  H   H8732     1.0  0.76766  0.94071  0.54003  1.0000
  C   C5106     1.0  0.89942  0.91792  0.49239  1.0000
  H   H8733     1.0  0.97143  0.77980  0.55181  1.0000
  C   C5107     1.0  0.88202  0.57305  0.72697  1.0000
  H   H8734     1.0  0.90979  0.55831  0.72121  1.0000
  C   C5108     1.0  0.94689  0.77855  0.49679  1.0000
  H   H8735     1.0  0.93554  0.49933  0.61829  1.0000
  Fe  Fe742     1.0  0.97018  0.73238  0.51639  1.0000
  H   H8736     1.0  0.95495  0.60046  0.59477  1.0000
  H   H8737     1.0  0.86792  0.61028  0.53962  1.0000
  H   H8738     1.0  0.87335  0.51592  0.70721  1.0000
  H   H8739     1.0  0.94659  0.51982  0.69002  1.0000
  C   C5109     1.0  0.92592  0.73592  0.52135  1.0000
  H   H8740     1.0  0.94416  0.61987  0.56741  1.0000
  H   H8741     1.0  0.85616  0.60668  0.53952  1.0000
  H   H8742     1.0  0.86721  0.59843  0.51575  1.0000
  H   H8743     1.0  0.77845  0.94376  0.49733  1.0000
  H   H8744     1.0  0.94234  0.94753  0.50202  1.0000
  H   H8745     1.0  0.98044  0.78724  0.52829  1.0000
  H   H8746     1.0  0.92235  0.50350  0.60672  1.0000
  C   C5110     1.0  0.84641  0.51013  0.70525  1.0000
  H   H8747     1.0  0.79733  0.93232  0.51505  1.0000
  C   C5111     1.0  0.93580  0.73692  0.51409  1.0000
  H   H8748     1.0  0.91320  0.75723  0.49165  1.0000
  H   H8749     1.0  0.86547  0.74130  0.49449  1.0000
  C   C5112     1.0  0.96441  0.93726  0.50215  1.0000
  N   N365      1.0  0.78218  0.94408  0.51818  1.0000
  H   H8750     1.0  0.92307  0.67090  0.50066  1.0000
  C   C5113     1.0  0.88441  0.88710  0.53536  1.0000
  C   C5114     1.0  0.90142  0.51098  0.72382  1.0000
  H   H8751     1.0  0.90519  0.57723  0.70520  1.0000
  C   C5115     1.0  0.79719  0.95010  0.52300  1.0000
  H   H8752     1.0  0.94676  0.62133  0.57996  1.0000
  H   H8753     1.0  0.90498  0.51126  0.69117  1.0000
  H   H8754     1.0  0.86807  0.59041  0.54659  1.0000
  C   C5116     1.0  0.95793  0.60742  0.57295  1.0000
  C   C5117     1.0  0.87835  0.51439  0.66982  1.0000
  H   H8755     1.0  0.94783  0.79961  0.50247  1.0000
  C   C5118     1.0  0.87865  0.80626  0.49471  1.0000
  H   H8756     1.0  0.91975  0.73420  0.51854  1.0000
  H   H8757     1.0  0.98073  0.52562  0.67897  1.0000
  S   S1479     1.0  0.83780  0.97866  0.51326  1.0000
  H   H8758     1.0  0.96138  0.60645  0.56434  1.0000
  H   H8759     1.0  0.86047  0.49695  0.69150  1.0000
  H   H8760     1.0  0.88173  0.89127  0.55133  1.0000
  H   H8761     1.0  0.91834  0.56955  0.70664  1.0000
  H   H8762     1.0  0.92588  0.83196  0.49266  1.0000
  H   H8763     1.0  0.93532  0.78808  0.50821  1.0000
  C   C5119     1.0  0.94079  0.77980  0.50857  1.0000
  H   H8764     1.0  0.97805  0.79313  0.49584  1.0000
  H   H8765     1.0  0.79383  0.97347  0.49487  1.0000
  C   C5120     1.0  0.96182  0.58764  0.58019  1.0000
  H   H8766     1.0  0.84743  0.60308  0.52988  1.0000
  H   H8767     1.0  0.87456  0.66244  0.49086  1.0000
  H   H8768     1.0  0.79859  0.95638  0.51531  1.0000
  N   N366      1.0  0.94777  0.77727  0.51676  1.0000
  C   C5121     1.0  0.94397  0.92022  0.50392  1.0000
  H   H8769     1.0  0.78785  0.91706  0.51524  1.0000
  H   H8770     1.0  0.86315  0.51070  0.71756  1.0000
  H   H8771     1.0  0.96970  0.69829  0.52384  1.0000
  C   C5122     1.0  0.92234  0.49540  0.67610  1.0000
  H   H8772     1.0  0.86241  0.61144  0.50815  1.0000
  H   H8773     1.0  0.79036  0.92751  0.50292  1.0000
  H   H8774     1.0  0.84279  0.93832  0.48909  1.0000
  H   H8775     1.0  0.77680  0.98146  0.50340  1.0000
  H   H8776     1.0  0.84362  0.62223  0.53066  1.0000
  C   C5123     1.0  0.93824  0.49853  0.60962  1.0000
  C   C5124     1.0  0.86044  0.62395  0.52221  1.0000
  H   H8777     1.0  0.90734  0.67829  0.49466  1.0000
  C   C5125     1.0  0.96418  0.50460  0.70396  1.0000
  C   C5126     1.0  0.76628  0.93781  0.53338  1.0000
  H   H8778     1.0  0.95297  0.51214  0.56537  1.0000
  S   S1480     1.0  0.98489  0.88113  0.53923  1.0000
  H   H8779     1.0  0.88379  0.82125  0.50038  1.0000
  C   C5127     1.0  0.97445  0.55066  0.64271  1.0000
  H   H8780     1.0  0.96485  0.60766  0.57617  1.0000
  C   C5128     1.0  0.84960  0.62685  0.53038  1.0000
  C   C5129     1.0  0.89077  0.91566  0.48975  1.0000
  C   C5130     1.0  0.96472  0.52560  0.65656  1.0000
  H   H8781     1.0  0.87442  0.77087  0.48718  1.0000
  C   C5131     1.0  0.97720  0.89195  0.49418  1.0000
  C   C5132     1.0  0.92131  0.50687  0.71954  1.0000
  H   H8782     1.0  0.96494  0.75258  0.52625  1.0000
  N   N367      1.0  0.91136  0.51315  0.71506  1.0000
  H   H8783     1.0  0.92590  0.64116  0.48983  1.0000
  C   C5133     1.0  0.94495  0.51642  0.68387  1.0000
  H   H8784     1.0  0.94596  0.51929  0.66673  1.0000
  H   H8785     1.0  0.97698  0.49850  0.65696  1.0000
  H   H8786     1.0  0.85903  0.88268  0.53741  1.0000
  C   C5134     1.0  0.92577  0.61882  0.49441  1.0000
  H   H8787     1.0  0.92880  0.50903  0.71369  1.0000
  H   H8788     1.0  0.93433  0.58884  0.71894  1.0000
  H   H8789     1.0  0.94811  0.77000  0.49593  1.0000
  H   H8790     1.0  0.92111  0.52774  0.72208  1.0000
  H   H8791     1.0  0.98212  0.49637  0.66885  1.0000
  H   H8792     1.0  0.96791  0.58816  0.58440  1.0000
  C   C5135     1.0  0.94974  0.52190  0.67195  1.0000
  C   C5136     1.0  0.88234  0.56676  0.71962  1.0000
  C   C5137     1.0  0.81067  0.96798  0.49554  1.0000
  H   H8793     1.0  0.94216  0.66713  0.49800  1.0000
  H   H8794     1.0  0.85721  0.90266  0.53457  1.0000
  H   H8795     1.0  0.88382  0.85490  0.53879  1.0000
  H   H8796     1.0  0.88600  0.67237  0.48763  1.0000
  H   H8797     1.0  0.97351  0.52521  0.65350  1.0000
  H   H8798     1.0  0.87926  0.59247  0.53553  1.0000
  H   H8799     1.0  0.88024  0.75771  0.49371  1.0000
  H   H8800     1.0  0.93163  0.60216  0.51597  1.0000
  H   H8801     1.0  0.95555  0.50517  0.70562  1.0000
  C   C5138     1.0  0.86665  0.82661  0.50558  1.0000
  C   C5139     1.0  0.93769  0.67396  0.50221  1.0000
  H   H8802     1.0  0.94300  0.91714  0.51297  1.0000
  H   H8803     1.0  0.89663  0.71965  0.50137  1.0000
  H   H8804     1.0  0.94900  0.75984  0.51901  1.0000
  C   C5140     1.0  0.96968  0.68192  0.52319  1.0000
  H   H8805     1.0  0.83817  0.51368  0.70962  1.0000
  H   H8806     1.0  0.91995  0.50978  0.69909  1.0000
  H   H8807     1.0  0.88998  0.52448  0.71481  1.0000
  H   H8808     1.0  0.93736  0.67062  0.51109  1.0000
  C   C5141     1.0  0.80189  0.97028  0.49060  1.0000
  C   C5142     1.0  0.92051  0.60889  0.50021  1.0000
  H   H8809     1.0  0.96672  0.78903  0.56129  1.0000
  H   H8810     1.0  0.93824  0.64580  0.48559  1.0000
  Fe  Fe743     1.0  0.97447  0.81918  0.53475  1.0000
  H   H8811     1.0  0.86409  0.75446  0.50456  1.0000
  H   H8812     1.0  0.92174  0.50822  0.58211  1.0000
  H   H8813     1.0  0.78334  0.96004  0.50754  1.0000
  C   C5143     1.0  0.97650  0.49169  0.63109  1.0000
  H   H8814     1.0  0.79065  0.98196  0.51285  1.0000
  H   H8815     1.0  0.95579  0.80229  0.51013  1.0000
  C   C5144     1.0  0.82118  0.96441  0.48977  1.0000
  C   C5145     1.0  0.97354  0.81038  0.49576  1.0000
  C   C5146     1.0  0.88105  0.61716  0.50627  1.0000
  H   H8816     1.0  0.92886  0.76876  0.52889  1.0000
  H   H8817     1.0  0.92413  0.94738  0.51202  1.0000
  H   H8818     1.0  0.95486  0.78076  0.49438  1.0000
  H   H8819     1.0  0.96790  0.79413  0.54690  1.0000
  H   H8820     1.0  0.85978  0.92799  0.49561  1.0000
  H   H8821     1.0  0.93573  0.92174  0.50246  1.0000
  C   C5147     1.0  0.91006  0.58100  0.71823  1.0000
  H   H8822     1.0  0.98236  0.50892  0.65892  1.0000
  H   H8823     1.0  0.94276  0.79980  0.51693  1.0000
  C   C5148     1.0  0.90308  0.51476  0.69855  1.0000
  H   H8824     1.0  0.96209  0.78311  0.50644  1.0000
  C   C5149     1.0  0.88561  0.55532  0.72251  1.0000
  H   H8825     1.0  0.94227  0.78427  0.49075  1.0000
  S   S1481     1.0  0.95620  0.74029  0.50819  1.0000
  H   H8826     1.0  0.95949  0.78394  0.52023  1.0000
  H   H8827     1.0  0.87933  0.64192  0.48644  1.0000
  C   C5150     1.0  0.86506  0.88526  0.54013  1.0000
  H   H8828     1.0  0.88637  0.51103  0.66559  1.0000
  H   H8829     1.0  0.86466  0.81869  0.51054  1.0000
  H   H8830     1.0  0.96346  0.51324  0.64841  1.0000
  H   H8831     1.0  0.98241  0.51715  0.70671  1.0000
  C   C5151     1.0  0.87408  0.89105  0.52113  1.0000
  H   H8832     1.0  0.92502  0.74760  0.49498  1.0000
  H   H8833     1.0  0.92103  0.50912  0.72730  1.0000
  Fe  Fe744     1.0  0.97941  0.55116  0.59179  1.0000
  C   C5152     1.0  0.93354  0.58406  0.71344  1.0000
  H   H8834     1.0  0.92832  0.58936  0.70776  1.0000
  H   H8835     1.0  0.76259  0.97834  0.48759  1.0000
  H   H8836     1.0  0.97278  0.51855  0.59016  1.0000
  H   H8837     1.0  0.79354  0.94909  0.50299  1.0000
  C   C5153     1.0  0.92865  0.70183  0.49618  1.0000
  H   H8838     1.0  0.84595  0.63574  0.52787  1.0000
  H   H8839     1.0  0.77006  0.92895  0.53396  1.0000
  C   C5154     1.0  0.89075  0.51973  0.72314  1.0000
  Fe  Fe745     1.0  0.97861  0.92138  0.52996  1.0000
  S   S1482     1.0  0.89006  0.49995  0.57577  1.0000
  H   H8840     1.0  0.76578  0.95351  0.52204  1.0000
  H   H8841     1.0  0.94651  0.53095  0.67105  1.0000
  C   C5155     1.0  0.77011  0.94483  0.52193  1.0000
  C   C5156     1.0  0.87099  0.50809  0.71207  1.0000
  C   C5157     1.0  0.78551  0.94832  0.52618  1.0000
  H   H8842     1.0  0.97854  0.65856  0.54112  1.0000
  H   H8843     1.0  0.95858  0.90713  0.50120  1.0000
  H   H8844     1.0  0.92620  0.93283  0.51495  1.0000
  H   H8845     1.0  0.87336  0.86993  0.52768  1.0000
  C   C5158     1.0  0.96185  0.76158  0.52534  1.0000
  C   C5159     1.0  0.86943  0.51075  0.66943  1.0000
  N   N368      1.0  0.94833  0.93054  0.50036  1.0000
  C   C5160     1.0  0.97877  0.52151  0.67355  1.0000
  H   H8846     1.0  0.96922  0.50524  0.72966  1.0000
  S   S1483     1.0  0.96745  0.83215  0.49617  1.0000
  H   H8847     1.0  0.94591  0.60157  0.51423  1.0000
  H   H8848     1.0  0.84921  0.59834  0.51799  1.0000
  H   H8849     1.0  0.95234  0.91295  0.48941  1.0000
  N   N369      1.0  0.91772  0.57528  0.72587  1.0000
  S   S1484     1.0  0.90231  0.63320  0.48656  1.0000
  C   C5161     1.0  0.87683  0.82500  0.49628  1.0000
  H   H8850     1.0  0.98071  0.85696  0.50713  1.0000
  C   C5162     1.0  0.97745  0.50270  0.66312  1.0000
  H   H8851     1.0  0.92445  0.88580  0.49665  1.0000
  H   H8852     1.0  0.88338  0.89619  0.53299  1.0000
  H   H8853     1.0  0.94350  0.62125  0.50794  1.0000
  C   C5163     1.0  0.91271  0.53012  0.72077  1.0000
  H   H8854     1.0  0.87972  0.96620  0.53470  1.0000
  Fe  Fe746     1.0  0.98028  0.71234  0.53186  1.0000
  C   C5164     1.0  0.97167  0.68967  0.52761  1.0000
  Fe  Fe747     1.0  0.97882  0.55064  0.61545  1.0000
  C   C5165     1.0  0.91620  0.55571  0.72600  1.0000
  C   C5166     1.0  0.94088  0.62802  0.48857  1.0000
  H   H8855     1.0  0.89808  0.68054  0.50751  1.0000
  C   C5167     1.0  0.92856  0.94000  0.50860  1.0000
  C   C5168     1.0  0.92233  0.79804  0.48814  1.0000
  C   C5169     1.0  0.86608  0.66487  0.48999  1.0000
  S   S1485     1.0  0.81797  0.98613  0.53354  1.0000
  H   H8856     1.0  0.85930  0.76893  0.50028  1.0000
  H   H8857     1.0  0.88417  0.88200  0.50837  1.0000
  H   H8858     1.0  0.87201  0.80487  0.50207  1.0000
  H   H8859     1.0  0.85286  0.89700  0.54881  1.0000
  C   C5170     1.0  0.87046  0.50149  0.70410  1.0000
  H   H8860     1.0  0.76677  0.94255  0.51616  1.0000
  H   H8861     1.0  0.89982  0.50298  0.72395  1.0000
  S   S1486     1.0  0.87118  0.49961  0.66346  1.0000
  H   H8862     1.0  0.92626  0.60086  0.50019  1.0000
  H   H8863     1.0  0.93395  0.63963  0.49967  1.0000
  H   H8864     1.0  0.87345  0.73053  0.48793  1.0000
  H   H8865     1.0  0.97538  0.52672  0.57633  1.0000
  H   H8866     1.0  0.88254  0.91972  0.49287  1.0000
  C   C5171     1.0  0.97371  0.80112  0.49223  1.0000
  H   H8867     1.0  0.98096  0.51222  0.57915  1.0000
  H   H8868     1.0  0.88182  0.78937  0.49319  1.0000
  C   C5172     1.0  0.88355  0.88955  0.51114  1.0000
  H   H8869     1.0  0.92750  0.84357  0.49604  1.0000
  H   H8870     1.0  0.91452  0.60887  0.49567  1.0000
  C   C5173     1.0  0.93078  0.83827  0.48995  1.0000
  N   N370      1.0  0.87670  0.81815  0.48868  1.0000
  H   H8871     1.0  0.76975  0.95641  0.50077  1.0000
  H   H8872     1.0  0.89510  0.51312  0.70337  1.0000
  C   C5174     1.0  0.97340  0.67202  0.48778  1.0000
  C   C5175     1.0  0.97823  0.67503  0.54199  1.0000
  S   S1487     1.0  0.92400  0.49936  0.65410  1.0000
  H   H8873     1.0  0.75444  0.96358  0.48967  1.0000
  C   C5176     1.0  0.92637  0.49107  0.68564  1.0000
  H   H8874     1.0  0.89571  0.49355  0.71154  1.0000
  H   H8875     1.0  0.78183  0.95667  0.49038  1.0000
  H   H8876     1.0  0.91561  0.49136  0.72685  1.0000
  C   C5177     1.0  0.85891  0.93656  0.49072  1.0000
  C   C5178     1.0  0.91007  0.91252  0.48859  1.0000
  H   H8877     1.0  0.98530  0.50164  0.63378  1.0000
  H   H8878     1.0  0.98291  0.79735  0.55233  1.0000
  C   C5179     1.0  0.98138  0.76983  0.53290  1.0000
  H   H8879     1.0  0.94370  0.74817  0.48928  1.0000
  H   H8880     1.0  0.98449  0.79028  0.57120  1.0000
  H   H8881     1.0  0.97663  0.73634  0.49088  1.0000
  C   C5180     1.0  0.98531  0.54520  0.64224  1.0000
  H   H8882     1.0  0.94934  0.62746  0.48900  1.0000
  H   H8883     1.0  0.89604  0.68968  0.49487  1.0000
  H   H8884     1.0  0.91221  0.69643  0.49198  1.0000
  C   C5181     1.0  0.87955  0.79776  0.48811  1.0000
  C   C5182     1.0  0.90562  0.72639  0.48548  1.0000
  C   C5183     1.0  0.74991  0.97189  0.48632  1.0000
  H   H8885     1.0  0.87173  0.79830  0.48614  1.0000
  S   S1488     1.0  0.97825  0.69586  0.54289  1.0000
  H   H8886     1.0  0.92637  0.49094  0.71467  1.0000
  C   C5184     1.0  0.98508  0.85450  0.49925  1.0000
  H   H8887     1.0  0.90286  0.51015  0.73210  1.0000
  H   H8888     1.0  0.88943  0.52542  0.72860  1.0000
  H   H8889     1.0  0.96084  0.66458  0.48774  1.0000
  H   H8890     1.0  0.96797  0.68031  0.48760  1.0000
  H   H8891     1.0  0.98099  0.75853  0.55827  1.0000
  S   S1489     1.0  0.98038  0.71592  0.51401  1.0000
  C   C5185     1.0  0.98121  0.55285  0.73263  1.0000
  H   H8892     1.0  0.86473  0.65938  0.48557  1.0000
  H   H8893     1.0  0.97241  0.49003  0.63991  1.0000
  C   C5186     1.0  0.95021  0.93490  0.48811  1.0000
  H   H8894     1.0  0.88510  0.74241  0.48594  1.0000
  C   C5187     1.0  0.98343  0.78889  0.55148  1.0000
  H   H8895     1.0  0.97622  0.61467  0.51075  1.0000
  H   H8896     1.0  0.98194  0.68167  0.50115  1.0000
  S   S1490     1.0  0.98282  0.74771  0.53973  1.0000
  H   H8897     1.0  0.93535  0.93127  0.48620  1.0000
  H   H8898     1.0  0.97964  0.63848  0.49225  1.0000
  C   C5188     1.0  0.98537  0.78167  0.57055  1.0000
  H   H8899     1.0  0.98147  0.67235  0.54933  1.0000
  C   C5189     1.0  0.97876  0.64739  0.49171  1.0000
  Fe  Fe748     1.0  0.98349  0.73523  0.53036  1.0000
  C   C5190     1.0  0.98272  0.76267  0.56381  1.0000
  H   H8900     1.0  0.91470  0.54800  0.73198  1.0000
  C   C5191     1.0  0.91530  0.56434  0.73245  1.0000
  H   H8901     1.0  0.91632  0.49252  0.62484  1.0000
  S   S1491     1.0  0.98413  0.74049  0.51228  1.0000
  C   C5192     1.0  0.97954  0.61540  0.50205  1.0000
  N   N371      1.0  0.86268  0.49388  0.70817  1.0000
  H   H8902     1.0  0.95292  0.94277  0.48586  1.0000
  H   H8903     1.0  0.94594  0.49230  0.60840  1.0000
  H   H8904     1.0  0.98593  0.84488  0.53423  1.0000
  C   C5193     1.0  0.88846  0.55022  0.73265  1.0000
  C   C5194     1.0  0.97745  0.74461  0.48575  1.0000
  H   H8905     1.0  0.86697  0.93802  0.48597  1.0000
  C   C5195     1.0  0.98544  0.77928  0.52742  1.0000
  H   H8906     1.0  0.98475  0.60220  0.56485  1.0000
  H   H8907     1.0  0.92920  0.49060  0.72741  1.0000
  C   C5196     1.0  0.86271  0.67710  0.48444  1.0000
  S   S1492     1.0  0.98376  0.61103  0.53813  1.0000
  H   H8908     1.0  0.90210  0.49182  0.61745  1.0000
  C   C5197     1.0  0.86598  0.82115  0.48537  1.0000
  H   H8909     1.0  0.96213  0.64691  0.48479  1.0000
  H   H8910     1.0  0.84574  0.49382  0.71514  1.0000
  H   H8911     1.0  0.95633  0.52890  0.73371  1.0000
  H   H8912     1.0  0.93357  0.88264  0.48453  1.0000
  H   H8913     1.0  0.98650  0.77418  0.58753  1.0000
  H   H8914     1.0  0.98509  0.57510  0.54882  1.0000
  H   H8915     1.0  0.86659  0.49228  0.72931  1.0000
  S   S1493     1.0  0.89741  0.49075  0.67380  1.0000
  H   H8916     1.0  0.92081  0.49028  0.69355  1.0000
  Fe  Fe749     1.0  0.91107  0.48972  0.65907  1.0000
  C   C5198     1.0  0.86012  0.98839  0.51436  1.0000
  C   C5199     1.0  0.91619  0.58233  0.73392  1.0000
  C   C5200     1.0  0.98653  0.50320  0.69934  1.0000
  C   C5201     1.0  0.86221  0.48992  0.69845  1.0000
  S   S1494     1.0  0.90129  0.48918  0.64772  1.0000
  Fe  Fe750     1.0  0.88787  0.48888  0.66291  1.0000
  Fe  Fe751     1.0  0.80465  0.55220  0.94469  1.0000
  S   S1495     1.0  0.81411  0.56512  0.94114  1.0000
  S   S1496     1.0  0.78657  0.55622  0.95052  1.0000
  Fe  Fe752     1.0  0.82489  0.53400  0.94335  1.0000
  S   S1497     1.0  0.83619  0.54522  0.94021  1.0000
  S   S1498     1.0  0.82982  0.51566  0.94574  1.0000
  Fe  Fe753     1.0  0.82354  0.55313  0.95311  1.0000
  S   S1499     1.0  0.82447  0.55960  0.96711  1.0000
  Fe  Fe754     1.0  0.82580  0.55622  0.92854  1.0000
  S   S1500     1.0  0.83162  0.56504  0.91107  1.0000
  S   S1501     1.0  0.81339  0.54076  0.95737  1.0000
  S   S1502     1.0  0.81523  0.54441  0.93093  1.0000
  H   H8917     1.0  0.79132  0.54561  0.93220  1.0000
  S   S1503     1.0  0.75653  0.53947  0.93165  1.0000
  H   H8918     1.0  0.90946  0.53464  0.82259  1.0000
  H   H8919     1.0  0.75476  0.49266  0.95377  1.0000
  Fe  Fe755     1.0  0.90900  0.56893  0.77062  1.0000
  S   S1504     1.0  0.89115  0.57150  0.77157  1.0000
  S   S1505     1.0  0.91833  0.58224  0.76404  1.0000
  Fe  Fe756     1.0  0.91210  0.54438  0.77914  1.0000
  S   S1506     1.0  0.89465  0.54491  0.78114  1.0000
  S   S1507     1.0  0.92287  0.52780  0.78320  1.0000
  Fe  Fe757     1.0  0.89612  0.55631  0.76454  1.0000
  S   S1508     1.0  0.89214  0.54944  0.75238  1.0000
  Fe  Fe758     1.0  0.89156  0.55976  0.78799  1.0000
  S   S1509     1.0  0.88005  0.56021  0.80434  1.0000
  S   S1510     1.0  0.91386  0.55495  0.76223  1.0000
  S   S1511     1.0  0.90902  0.55819  0.78746  1.0000
  Fe  Fe759     1.0  0.97426  0.55784  0.87254  1.0000
  S   S1512     1.0  0.95914  0.56945  0.86772  1.0000
  H   H8920     1.0  0.83257  0.49188  0.92008  1.0000
  Fe  Fe760     1.0  0.88784  0.56492  0.87501  1.0000
  S   S1513     1.0  0.87950  0.56728  0.86137  1.0000
  S   S1514     1.0  0.88080  0.56836  0.89197  1.0000
  Fe  Fe761     1.0  0.90924  0.55271  0.86360  1.0000
  S   S1515     1.0  0.90297  0.55352  0.84905  1.0000
  S   S1516     1.0  0.92593  0.54320  0.86578  1.0000
  Fe  Fe762     1.0  0.89502  0.57092  0.85006  1.0000
  S   S1517     1.0  0.89625  0.58181  0.83316  1.0000
  Fe  Fe763     1.0  0.88795  0.54984  0.86097  1.0000
  S   S1518     1.0  0.87943  0.53978  0.85636  1.0000
  S   S1519     1.0  0.90265  0.57053  0.86371  1.0000
  S   S1520     1.0  0.89496  0.54700  0.87559  1.0000
  C   C5202     1.0  0.88055  0.52628  0.86384  1.0000
  C   C5203     1.0  0.87579  0.51935  0.86113  1.0000
  H   H8921     1.0  0.75277  0.54743  0.95142  1.0000
  C   C5204     1.0  0.94931  0.50300  0.74302  1.0000
  C   C5205     1.0  0.88633  0.51161  0.87864  1.0000
  C   C5206     1.0  0.88584  0.52244  0.87257  1.0000
  H   H8922     1.0  0.87161  0.52236  0.85443  1.0000
  H   H8923     1.0  0.96109  0.54850  0.74660  1.0000
  H   H8924     1.0  0.89041  0.50859  0.88542  1.0000
  H   H8925     1.0  0.88941  0.52782  0.87477  1.0000
  C   C5207     1.0  0.94993  0.56220  0.86702  1.0000
  C   C5208     1.0  0.94087  0.56783  0.86248  1.0000
  C   C5209     1.0  0.93351  0.56208  0.86190  1.0000
  C   C5210     1.0  0.93520  0.55067  0.86584  1.0000
  C   C5211     1.0  0.94432  0.54505  0.87022  1.0000
  C   C5212     1.0  0.95156  0.55081  0.87095  1.0000
  H   H8926     1.0  0.93954  0.57664  0.85942  1.0000
  H   H8927     1.0  0.92656  0.56648  0.85839  1.0000
  H   H8928     1.0  0.94566  0.53624  0.87337  1.0000
  H   H8929     1.0  0.95826  0.54639  0.87483  1.0000
  C   C5213     1.0  0.88390  0.56697  0.81218  1.0000
  C   C5214     1.0  0.89040  0.57466  0.80715  1.0000
  C   C5215     1.0  0.89368  0.57968  0.81360  1.0000
  C   C5216     1.0  0.89093  0.57663  0.82509  1.0000
  C   C5217     1.0  0.88441  0.56896  0.83008  1.0000
  C   C5218     1.0  0.88068  0.56437  0.82365  1.0000
  H   H8930     1.0  0.89274  0.57689  0.79829  1.0000
  H   H8931     1.0  0.89850  0.58578  0.80967  1.0000
  H   H8932     1.0  0.88213  0.56660  0.83890  1.0000
  H   H8933     1.0  0.87548  0.55861  0.82762  1.0000
  H   H8934     1.0  0.75385  0.51211  0.95122  1.0000
  C   C5219     1.0  0.91608  0.51813  0.75941  1.0000
  C   C5220     1.0  0.91655  0.52447  0.76628  1.0000
  C   C5221     1.0  0.92116  0.51954  0.77544  1.0000
  H   H8935     1.0  0.88734  0.51406  0.79044  1.0000
  H   H8936     1.0  0.76538  0.57481  0.91782  1.0000
  C   C5222     1.0  0.84736  0.50245  0.91768  1.0000
  H   H8937     1.0  0.91356  0.53323  0.76428  1.0000
  C   C5223     1.0  0.98472  0.49764  0.86203  1.0000
  H   H8938     1.0  0.78271  0.50093  0.95864  1.0000
  C   C5224     1.0  0.88828  0.55648  0.73991  1.0000
  H   H8939     1.0  0.77098  0.49816  0.98007  1.0000
  H   H8940     1.0  0.95807  0.51941  0.75348  1.0000
  C   C5225     1.0  0.94244  0.56612  0.78018  1.0000
  C   C5226     1.0  0.93358  0.56845  0.77528  1.0000
  C   C5227     1.0  0.92932  0.57927  0.77033  1.0000
  C   C5228     1.0  0.95701  0.51067  0.80124  1.0000
  H   H8941     1.0  0.79584  0.50299  0.95726  1.0000
  H   H8942     1.0  0.94559  0.55778  0.78394  1.0000
  H   H8943     1.0  0.93021  0.56184  0.77511  1.0000
  C   C5229     1.0  0.95284  0.54761  0.74701  1.0000
  C   C5230     1.0  0.95438  0.50290  0.79734  1.0000
  H   H8944     1.0  0.95168  0.55899  0.82033  1.0000
  H   H8945     1.0  0.97719  0.58242  0.80277  1.0000
  H   H8946     1.0  0.87278  0.53851  0.81938  1.0000
  H   H8947     1.0  0.96088  0.51922  0.77135  1.0000
  H   H8948     1.0  0.87755  0.53053  0.80886  1.0000
  H   H8949     1.0  0.76051  0.59766  0.94509  1.0000
  H   H8950     1.0  0.77879  0.51947  0.94479  1.0000
  H   H8951     1.0  0.96381  0.51436  0.79662  1.0000
  H   H8952     1.0  0.95941  0.53905  0.76513  1.0000
  C   C5231     1.0  0.84528  0.56612  0.90608  1.0000
  C   C5232     1.0  0.85277  0.56216  0.91285  1.0000
  C   C5233     1.0  0.86364  0.56298  0.90849  1.0000
  C   C5234     1.0  0.86713  0.56750  0.89730  1.0000
  C   C5235     1.0  0.85966  0.57139  0.89053  1.0000
  C   C5236     1.0  0.84875  0.57082  0.89494  1.0000
  H   H8953     1.0  0.85016  0.55861  0.92145  1.0000
  H   H8954     1.0  0.86936  0.56003  0.91379  1.0000
  H   H8955     1.0  0.86224  0.57505  0.88193  1.0000
  H   H8956     1.0  0.84298  0.57401  0.88969  1.0000
  C   C5237     1.0  0.92667  0.49579  0.85394  1.0000
  H   H8957     1.0  0.83587  0.53670  0.96939  1.0000
  C   C5238     1.0  0.82258  0.51076  0.93939  1.0000
  C   C5239     1.0  0.82049  0.51637  0.92906  1.0000
  C   C5240     1.0  0.81491  0.51220  0.92396  1.0000
  C   C5241     1.0  0.94022  0.53460  0.75476  1.0000
  S   S1521     1.0  0.98371  0.52448  0.79653  1.0000
  C   C5242     1.0  0.81902  0.50104  0.94466  1.0000
  H   H8958     1.0  0.82346  0.52373  0.92483  1.0000
  H   H8959     1.0  0.81346  0.51646  0.91589  1.0000
  C   C5243     1.0  0.78688  0.51414  0.94546  1.0000
  H   H8960     1.0  0.82054  0.49674  0.95269  1.0000
  C   C5244     1.0  0.77887  0.55005  0.94599  1.0000
  C   C5245     1.0  0.76810  0.55019  0.95156  1.0000
  C   C5246     1.0  0.76118  0.54689  0.94727  1.0000
  C   C5247     1.0  0.76515  0.54306  0.93755  1.0000
  C   C5248     1.0  0.77612  0.54226  0.93233  1.0000
  C   C5249     1.0  0.78299  0.54580  0.93652  1.0000
  H   H8961     1.0  0.76506  0.55310  0.95912  1.0000
  H   H8962     1.0  0.76711  0.51297  0.96493  1.0000
  H   H8963     1.0  0.77924  0.53921  0.92485  1.0000
  C   C5250     1.0  0.89240  0.51434  0.78204  1.0000
  H   H8964     1.0  0.85721  0.49672  0.90339  1.0000
  H   H8965     1.0  0.94196  0.50473  0.74955  1.0000
  H   H8966     1.0  0.75492  0.60041  0.92884  1.0000
  H   H8967     1.0  0.94417  0.49385  0.86702  1.0000
  S   S1522     1.0  0.80528  0.49673  0.92242  1.0000
  H   H8968     1.0  0.88565  0.51430  0.75192  1.0000
  C   C5251     1.0  0.77969  0.49579  0.98029  1.0000
  C   C5252     1.0  0.98161  0.57401  0.80599  1.0000
  H   H8969     1.0  0.90710  0.52663  0.86194  1.0000
  C   C5253     1.0  0.91505  0.52255  0.85751  1.0000
  C   C5254     1.0  0.95312  0.49664  0.76625  1.0000
  C   C5255     1.0  0.76654  0.58105  0.94135  1.0000
  Fe  Fe764     1.0  0.98117  0.53353  0.88084  1.0000
  N   N372      1.0  0.76181  0.58293  0.93145  1.0000
  H   H8970     1.0  0.89999  0.49455  0.80608  1.0000
  H   H8971     1.0  0.79445  0.55503  0.96942  1.0000
  H   H8972     1.0  0.97854  0.55209  0.75973  1.0000
  H   H8973     1.0  0.89470  0.52239  0.77861  1.0000
  C   C5256     1.0  0.98634  0.53414  0.74284  1.0000
  H   H8974     1.0  0.93850  0.52857  0.74125  1.0000
  H   H8975     1.0  0.76838  0.49923  0.94131  1.0000
  H   H8976     1.0  0.86939  0.54466  0.75684  1.0000
  C   C5257     1.0  0.98191  0.49054  0.80068  1.0000
  H   H8977     1.0  0.78216  0.58272  0.91695  1.0000
  H   H8978     1.0  0.90776  0.51188  0.80614  1.0000
  H   H8979     1.0  0.76990  0.59725  0.90741  1.0000
  C   C5258     1.0  0.86724  0.53888  0.76481  1.0000
  H   H8980     1.0  0.96574  0.50079  0.75241  1.0000
  H   H8981     1.0  0.78678  0.52560  0.98025  1.0000
  H   H8982     1.0  0.96289  0.50519  0.88187  1.0000
  H   H8983     1.0  0.86270  0.51722  0.76711  1.0000
  C   C5259     1.0  0.95101  0.51345  0.81121  1.0000
  C   C5260     1.0  0.93388  0.58775  0.77041  1.0000
  H   H8984     1.0  0.93213  0.53955  0.82516  1.0000
  H   H8985     1.0  0.77513  0.58181  0.93883  1.0000
  N   N373      1.0  0.85391  0.53815  0.88835  1.0000
  C   C5261     1.0  0.85216  0.54362  0.87688  1.0000
  C   C5262     1.0  0.85660  0.52588  0.88933  1.0000
  C   C5263     1.0  0.86335  0.54167  0.88983  1.0000
  C   C5264     1.0  0.84361  0.54182  0.89633  1.0000
  C   C5265     1.0  0.85108  0.55622  0.87350  1.0000
  C   C5266     1.0  0.84822  0.52109  0.88699  1.0000
  C   C5267     1.0  0.87018  0.53365  0.89792  1.0000
  C   C5268     1.0  0.84343  0.53699  0.90859  1.0000
  H   H8986     1.0  0.85890  0.54000  0.87068  1.0000
  H   H8987     1.0  0.84465  0.54222  0.87571  1.0000
  H   H8988     1.0  0.85795  0.52131  0.89759  1.0000
  H   H8989     1.0  0.86436  0.52346  0.88355  1.0000
  H   H8990     1.0  0.86934  0.54313  0.88188  1.0000
  H   H8991     1.0  0.86053  0.54962  0.89244  1.0000
  H   H8992     1.0  0.84169  0.55088  0.89535  1.0000
  H   H8993     1.0  0.83659  0.54000  0.89455  1.0000
  H   H8994     1.0  0.85822  0.55878  0.87405  1.0000
  H   H8995     1.0  0.85045  0.55906  0.86476  1.0000
  H   H8996     1.0  0.84363  0.56065  0.87833  1.0000
  H   H8997     1.0  0.84720  0.52421  0.87840  1.0000
  H   H8998     1.0  0.85132  0.51207  0.88796  1.0000
  H   H8999     1.0  0.84029  0.52249  0.89284  1.0000
  H   H9000     1.0  0.87533  0.52652  0.89445  1.0000
  H   H9001     1.0  0.86531  0.53057  0.90606  1.0000
  H   H9002     1.0  0.87574  0.53799  0.89922  1.0000
  H   H9003     1.0  0.84503  0.52791  0.91069  1.0000
  H   H9004     1.0  0.83522  0.53995  0.91340  1.0000
  H   H9005     1.0  0.84909  0.53999  0.91136  1.0000
  C   C5269     1.0  0.93651  0.53640  0.74399  1.0000
  H   H9006     1.0  0.88633  0.50280  0.77768  1.0000
  H   H9007     1.0  0.90330  0.57711  0.74792  1.0000
  C   C5270     1.0  0.91975  0.50673  0.76193  1.0000
  H   H9008     1.0  0.91291  0.52210  0.75209  1.0000
  H   H9009     1.0  0.74204  0.59144  0.92260  1.0000
  H   H9010     1.0  0.74001  0.51579  0.94999  1.0000
  H   H9011     1.0  0.96633  0.58855  0.83140  1.0000
  C   C5271     1.0  0.97314  0.49329  0.82435  1.0000
  H   H9012     1.0  0.87276  0.50317  0.86490  1.0000
  H   H9013     1.0  0.92821  0.50423  0.78519  1.0000
  C   C5272     1.0  0.86669  0.50802  0.79134  1.0000
  H   H9014     1.0  0.76792  0.56599  0.93011  1.0000
  H   H9015     1.0  0.95187  0.52585  0.78182  1.0000
  H   H9016     1.0  0.90413  0.50503  0.84363  1.0000
  H   H9017     1.0  0.79190  0.53565  0.96908  1.0000
  H   H9018     1.0  0.76667  0.57254  0.94631  1.0000
  C   C5273     1.0  0.87756  0.53030  0.76735  1.0000
  C   C5274     1.0  0.95189  0.51325  0.85316  1.0000
  H   H9019     1.0  0.96589  0.49818  0.82110  1.0000
  H   H9020     1.0  0.94721  0.50452  0.76454  1.0000
  H   H9021     1.0  0.94633  0.55867  0.75847  1.0000
  H   H9022     1.0  0.90278  0.52199  0.79520  1.0000
  C   C5275     1.0  0.92471  0.50809  0.77807  1.0000
  H   H9023     1.0  0.90269  0.53559  0.83664  1.0000
  H   H9024     1.0  0.88396  0.51376  0.82268  1.0000
  H   H9025     1.0  0.88721  0.54225  0.82201  1.0000
  H   H9026     1.0  0.78510  0.57065  0.92763  1.0000
  H   H9027     1.0  0.79385  0.50254  0.97620  1.0000
  H   H9028     1.0  0.93972  0.54271  0.73716  1.0000
  Fe  Fe765     1.0  0.73870  0.54354  0.93933  1.0000
  H   H9029     1.0  0.75159  0.51507  0.93077  1.0000
  C   C5276     1.0  0.78726  0.50741  0.95727  1.0000
  H   H9030     1.0  0.75829  0.59128  0.91026  1.0000
  C   C5277     1.0  0.83425  0.53898  0.97719  1.0000
  C   C5278     1.0  0.81332  0.49696  0.93963  1.0000
  C   C5279     1.0  0.89862  0.52775  0.81033  1.0000
  H   H9031     1.0  0.87267  0.50508  0.76910  1.0000
  H   H9032     1.0  0.87056  0.52383  0.78857  1.0000
  H   H9033     1.0  0.92830  0.54345  0.84323  1.0000
  C   C5280     1.0  0.85426  0.49286  0.91216  1.0000
  C   C5281     1.0  0.96612  0.48880  0.73807  1.0000
  N   N374      1.0  0.95121  0.53652  0.75396  1.0000
  S   S1523     1.0  0.98441  0.54963  0.78182  1.0000
  N   N375      1.0  0.91395  0.56581  0.89693  1.0000
  C   C5282     1.0  0.91732  0.57601  0.88924  1.0000
  C   C5283     1.0  0.92284  0.56000  0.90311  1.0000
  C   C5284     1.0  0.90361  0.56948  0.90490  1.0000
  C   C5285     1.0  0.91220  0.55892  0.89020  1.0000
  C   C5286     1.0  0.90861  0.58437  0.88347  1.0000
  C   C5287     1.0  0.93413  0.55639  0.89594  1.0000
  C   C5288     1.0  0.89868  0.56038  0.91360  1.0000
  C   C5289     1.0  0.91304  0.54649  0.89531  1.0000
  H   H9034     1.0  0.92009  0.58058  0.89365  1.0000
  H   H9035     1.0  0.92439  0.57378  0.88256  1.0000
  H   H9036     1.0  0.92096  0.55259  0.90928  1.0000
  H   H9037     1.0  0.92371  0.56537  0.90803  1.0000
  H   H9038     1.0  0.90481  0.57514  0.90929  1.0000
  H   H9039     1.0  0.89702  0.57423  0.90050  1.0000
  H   H9040     1.0  0.90417  0.56230  0.88797  1.0000
  H   H9041     1.0  0.91821  0.55941  0.88223  1.0000
  H   H9042     1.0  0.91256  0.59012  0.87643  1.0000
  H   H9043     1.0  0.90416  0.58038  0.88023  1.0000
  H   H9044     1.0  0.90273  0.58942  0.88911  1.0000
  H   H9045     1.0  0.93780  0.56351  0.89121  1.0000
  H   H9046     1.0  0.93970  0.55103  0.90129  1.0000
  H   H9047     1.0  0.93388  0.55160  0.89022  1.0000
  H   H9048     1.0  0.89144  0.56432  0.91913  1.0000
  H   H9049     1.0  0.90426  0.55499  0.91887  1.0000
  H   H9050     1.0  0.89567  0.55551  0.90977  1.0000
  H   H9051     1.0  0.90656  0.54384  0.89343  1.0000
  H   H9052     1.0  0.91207  0.54405  0.90430  1.0000
  H   H9053     1.0  0.92078  0.54159  0.89135  1.0000
  H   H9054     1.0  0.86366  0.54369  0.77132  1.0000
  H   H9055     1.0  0.89663  0.51862  0.84464  1.0000
  C   C5290     1.0  0.94481  0.55764  0.75089  1.0000
  C   C5291     1.0  0.90184  0.53801  0.82797  1.0000
  N   N376      1.0  0.97233  0.57296  0.82650  1.0000
  H   H9056     1.0  0.74540  0.58662  0.94120  1.0000
  H   H9057     1.0  0.86172  0.48956  0.91553  1.0000
  C   C5292     1.0  0.96369  0.56801  0.83521  1.0000
  C   C5293     1.0  0.96827  0.58526  0.82388  1.0000
  H   H9058     1.0  0.75862  0.51610  0.98191  1.0000
  C   C5294     1.0  0.73753  0.50292  0.93639  1.0000
  C   C5295     1.0  0.96657  0.55541  0.83915  1.0000
  C   C5296     1.0  0.95789  0.58953  0.81923  1.0000
  C   C5297     1.0  0.90484  0.58452  0.74153  1.0000
  H   H9059     1.0  0.87412  0.51110  0.74985  1.0000
  H   H9060     1.0  0.96720  0.56790  0.81448  1.0000
  C   C5298     1.0  0.97725  0.51172  0.87667  1.0000
  H   H9061     1.0  0.96132  0.57172  0.84254  1.0000
  H   H9062     1.0  0.95610  0.56996  0.83220  1.0000
  H   H9063     1.0  0.91797  0.49885  0.85736  1.0000
  H   H9064     1.0  0.93132  0.51111  0.84472  1.0000
  C   C5299     1.0  0.82878  0.54967  0.97826  1.0000
  H   H9065     1.0  0.90005  0.50810  0.78278  1.0000
  H   H9066     1.0  0.80703  0.57685  0.97840  1.0000
  C   C5300     1.0  0.78951  0.55593  0.97767  1.0000
  H   H9067     1.0  0.73885  0.49722  0.92136  1.0000
  H   H9068     1.0  0.93881  0.52160  0.86443  1.0000
  H   H9069     1.0  0.95993  0.55280  0.84599  1.0000
  H   H9070     1.0  0.97406  0.55258  0.84235  1.0000
  H   H9071     1.0  0.76563  0.58702  0.95568  1.0000
  H   H9072     1.0  0.95053  0.59010  0.82598  1.0000
  H   H9073     1.0  0.95720  0.58445  0.81401  1.0000
  H   H9074     1.0  0.95800  0.59782  0.81380  1.0000
  N   N377      1.0  0.93282  0.50890  0.86144  1.0000
  C   C5301     1.0  0.77953  0.58002  0.98035  1.0000
  C   C5302     1.0  0.93672  0.49956  0.87037  1.0000
  C   C5303     1.0  0.89166  0.53494  0.82706  1.0000
  H   H9075     1.0  0.90657  0.52990  0.80888  1.0000
  H   H9076     1.0  0.95664  0.51778  0.85545  1.0000
  C   C5304     1.0  0.97015  0.49351  0.83669  1.0000
  C   C5305     1.0  0.88168  0.50464  0.87580  1.0000
  H   H9077     1.0  0.75267  0.58770  0.95378  1.0000
  C   C5306     1.0  0.78617  0.53010  0.97178  1.0000
  H   H9078     1.0  0.76999  0.52623  0.95988  1.0000
  H   H9079     1.0  0.83858  0.50145  0.89917  1.0000
  H   H9080     1.0  0.92112  0.51900  0.87209  1.0000
  S   S1524     1.0  0.97315  0.51934  0.88682  1.0000
  H   H9081     1.0  0.90954  0.51676  0.82586  1.0000
  H   H9082     1.0  0.80265  0.57026  0.96270  1.0000
  H   H9083     1.0  0.78895  0.57488  0.96140  1.0000
  H   H9084     1.0  0.96916  0.49336  0.86829  1.0000
  Fe  Fe766     1.0  0.97975  0.53483  0.78046  1.0000
  H   H9085     1.0  0.89022  0.50866  0.84303  1.0000
  H   H9086     1.0  0.89826  0.58776  0.73695  1.0000
  C   C5307     1.0  0.75043  0.58106  0.93566  1.0000
  C   C5308     1.0  0.97430  0.49836  0.86868  1.0000
  C   C5309     1.0  0.88693  0.51154  0.77443  1.0000
  C   C5310     1.0  0.89397  0.48976  0.80774  1.0000
  H   H9087     1.0  0.88073  0.53371  0.77246  1.0000
  H   H9088     1.0  0.79921  0.58758  0.94897  1.0000
  H   H9089     1.0  0.86017  0.50934  0.79870  1.0000
  H   H9090     1.0  0.86698  0.52730  0.82040  1.0000
  C   C5311     1.0  0.97067  0.50517  0.87622  1.0000
  H   H9091     1.0  0.97467  0.58951  0.81826  1.0000
  C   C5312     1.0  0.79512  0.57655  0.96473  1.0000
  H   H9092     1.0  0.86092  0.53528  0.76398  1.0000
  N   N378      1.0  0.78286  0.51377  0.96629  1.0000
  N   N379      1.0  0.95673  0.49232  0.74705  1.0000
  C   C5313     1.0  0.78068  0.57438  0.92089  1.0000
  H   H9093     1.0  0.94599  0.54856  0.81276  1.0000
  C   C5314     1.0  0.87470  0.53014  0.81781  1.0000
  H   H9094     1.0  0.85267  0.50784  0.91745  1.0000
  C   C5315     1.0  0.74307  0.56902  0.96467  1.0000
  C   C5316     1.0  0.96136  0.49398  0.75572  1.0000
  H   H9095     1.0  0.75059  0.57252  0.94062  1.0000
  H   H9096     1.0  0.76932  0.59688  0.92516  1.0000
  H   H9097     1.0  0.93275  0.49731  0.81780  1.0000
  C   C5317     1.0  0.76167  0.59694  0.91262  1.0000
  H   H9098     1.0  0.91635  0.50817  0.87063  1.0000
  C   C5318     1.0  0.76713  0.50493  0.93345  1.0000
  H   H9099     1.0  0.89359  0.53528  0.80609  1.0000
  H   H9100     1.0  0.78096  0.59739  0.97730  1.0000
  H   H9101     1.0  0.98306  0.53040  0.90786  1.0000
  H   H9102     1.0  0.91332  0.51839  0.85202  1.0000
  H   H9103     1.0  0.97280  0.50047  0.83777  1.0000
  C   C5319     1.0  0.76851  0.57433  0.92503  1.0000
  Fe  Fe767     1.0  0.96706  0.55446  0.79035  1.0000
  C   C5320     1.0  0.97474  0.56819  0.81652  1.0000
  N   N380      1.0  0.92893  0.55623  0.81552  1.0000
  C   C5321     1.0  0.92564  0.55254  0.80710  1.0000
  C   C5322     1.0  0.92133  0.56711  0.81687  1.0000
  C   C5323     1.0  0.92730  0.54787  0.82619  1.0000
  C   C5324     1.0  0.94066  0.55695  0.81157  1.0000
  C   C5325     1.0  0.93171  0.54110  0.80478  1.0000
  C   C5326     1.0  0.92227  0.57662  0.80662  1.0000
  C   C5327     1.0  0.93059  0.54980  0.83586  1.0000
  N   N381      1.0  0.79153  0.57541  0.97703  1.0000
  H   H9104     1.0  0.91682  0.55258  0.80946  1.0000
  H   H9105     1.0  0.92684  0.55840  0.79902  1.0000
  H   H9106     1.0  0.92207  0.57004  0.82378  1.0000
  H   H9107     1.0  0.91279  0.56617  0.81925  1.0000
  H   H9108     1.0  0.91867  0.54725  0.82891  1.0000
  H   H9109     1.0  0.75090  0.56778  0.95924  1.0000
  C   C5328     1.0  0.74620  0.50922  0.95363  1.0000
  H   H9110     1.0  0.94250  0.56023  0.80257  1.0000
  C   C5329     1.0  0.93897  0.50294  0.87985  1.0000
  H   H9111     1.0  0.89283  0.51173  0.76639  1.0000
  H   H9112     1.0  0.74069  0.51119  0.91878  1.0000
  H   H9113     1.0  0.91865  0.57569  0.80026  1.0000
  H   H9114     1.0  0.91761  0.58447  0.80904  1.0000
  H   H9115     1.0  0.93071  0.57753  0.80294  1.0000
  C   C5330     1.0  0.95211  0.53613  0.76542  1.0000
  H   H9116     1.0  0.93948  0.54866  0.83448  1.0000
  H   H9117     1.0  0.82514  0.49906  0.90441  1.0000
  H   H9118     1.0  0.97651  0.56534  0.74209  1.0000
  H   H9119     1.0  0.93871  0.56762  0.82340  1.0000
  H   H9120     1.0  0.94597  0.59207  0.77571  1.0000
  H   H9121     1.0  0.87410  0.50331  0.79436  1.0000
  H   H9122     1.0  0.95908  0.50067  0.78971  1.0000
  H   H9123     1.0  0.75754  0.50545  0.92231  1.0000
  C   C5331     1.0  0.94466  0.56405  0.81677  1.0000
  H   H9124     1.0  0.93061  0.59614  0.76661  1.0000
  C   C5332     1.0  0.76385  0.52204  0.97740  1.0000
  H   H9125     1.0  0.78431  0.56919  0.91471  1.0000
  C   C5333     1.0  0.94257  0.58545  0.77556  1.0000
  N   N382      1.0  0.87606  0.51883  0.77295  1.0000
  C   C5334     1.0  0.98386  0.53784  0.75260  1.0000
  C   C5335     1.0  0.78922  0.52255  0.96361  1.0000
  H   H9126     1.0  0.94755  0.57092  0.81035  1.0000
  H   H9127     1.0  0.84096  0.50762  0.91325  1.0000
  H   H9128     1.0  0.93677  0.52416  0.85118  1.0000
  C   C5336     1.0  0.78496  0.50581  0.97683  1.0000
  C   C5337     1.0  0.90120  0.51531  0.82793  1.0000
  H   H9129     1.0  0.87385  0.52501  0.74962  1.0000
  C   C5338     1.0  0.98271  0.57044  0.83041  1.0000
  H   H9130     1.0  0.91925  0.52917  0.85256  1.0000
  C   C5339     1.0  0.87668  0.51632  0.75369  1.0000
  S   S1525     1.0  0.95481  0.52232  0.81674  1.0000
  S   S1526     1.0  0.97423  0.54738  0.88943  1.0000
  H   H9131     1.0  0.81028  0.51077  0.98017  1.0000
  H   H9132     1.0  0.78830  0.52823  0.95560  1.0000
  C   C5340     1.0  0.94571  0.49797  0.80339  1.0000
  H   H9133     1.0  0.94635  0.52068  0.77385  1.0000
  H   H9134     1.0  0.86002  0.52403  0.78260  1.0000
  Fe  Fe768     1.0  0.96645  0.53152  0.80390  1.0000
  H   H9135     1.0  0.79807  0.51879  0.96268  1.0000
  H   H9136     1.0  0.79316  0.51911  0.94222  1.0000
  C   C5341     1.0  0.86821  0.51926  0.78384  1.0000
  H   H9137     1.0  0.92635  0.55783  0.83800  1.0000
  C   C5342     1.0  0.93968  0.51736  0.85778  1.0000
  C   C5343     1.0  0.94694  0.57461  0.78040  1.0000
  C   C5344     1.0  0.88505  0.56794  0.73709  1.0000
  H   H9138     1.0  0.74348  0.50810  0.96270  1.0000
  H   H9139     1.0  0.96772  0.52705  0.75211  1.0000
  H   H9140     1.0  0.77803  0.53556  0.97164  1.0000
  S   S1527     1.0  0.92053  0.49927  0.75231  1.0000
  C   C5345     1.0  0.77097  0.51877  0.96660  1.0000
  C   C5346     1.0  0.89773  0.51186  0.84052  1.0000
  H   H9141     1.0  0.88474  0.57282  0.74273  1.0000
  S   S1528     1.0  0.96218  0.54038  0.78776  1.0000
  S   S1529     1.0  0.95769  0.57199  0.78703  1.0000
  C   C5347     1.0  0.75594  0.50633  0.93094  1.0000
  C   C5348     1.0  0.87646  0.50849  0.86704  1.0000
  S   S1530     1.0  0.97001  0.54606  0.80719  1.0000
  N   N383      1.0  0.74887  0.49870  0.93847  1.0000
  S   S1531     1.0  0.88249  0.49108  0.88306  1.0000
  S   S1532     1.0  0.75351  0.57247  0.97833  1.0000
  H   H9142     1.0  0.80254  0.55987  0.98163  1.0000
  C   C5349     1.0  0.76088  0.58891  0.94927  1.0000
  C   C5350     1.0  0.96012  0.52756  0.74966  1.0000
  H   H9143     1.0  0.92215  0.57867  0.73932  1.0000
  H   H9144     1.0  0.93628  0.55720  0.75215  1.0000
  H   H9145     1.0  0.94609  0.56521  0.74455  1.0000
  H   H9146     1.0  0.93378  0.53949  0.76018  1.0000
  H   H9147     1.0  0.94505  0.54178  0.76949  1.0000
  H   H9148     1.0  0.93975  0.52601  0.75910  1.0000
  C   C5351     1.0  0.74777  0.49814  0.95051  1.0000
  H   H9149     1.0  0.92931  0.53434  0.81165  1.0000
  C   C5352     1.0  0.98478  0.52184  0.91272  1.0000
  C   C5353     1.0  0.95284  0.52475  0.77341  1.0000
  H   H9150     1.0  0.88397  0.53031  0.75966  1.0000
  C   C5354     1.0  0.81145  0.50241  0.92918  1.0000
  H   H9151     1.0  0.82042  0.51844  0.97301  1.0000
  N   N384      1.0  0.89362  0.52496  0.82243  1.0000
  H   H9152     1.0  0.96739  0.55116  0.83255  1.0000
  C   C5355     1.0  0.76187  0.59454  0.92494  1.0000
  C   C5356     1.0  0.87162  0.51416  0.76615  1.0000
  C   C5357     1.0  0.92385  0.50165  0.77140  1.0000
  C   C5358     1.0  0.93353  0.50437  0.85172  1.0000
  C   C5359     1.0  0.93954  0.50101  0.81319  1.0000
  H   H9153     1.0  0.88627  0.53389  0.83540  1.0000
  C   C5360     1.0  0.79824  0.58054  0.98103  1.0000
  C   C5361     1.0  0.74200  0.57161  0.97469  1.0000
  C   C5362     1.0  0.90073  0.51854  0.80415  1.0000
  H   H9154     1.0  0.94061  0.54011  0.80282  1.0000
  H   H9155     1.0  0.98056  0.50355  0.90463  1.0000
  H   H9156     1.0  0.93180  0.50847  0.88382  1.0000
  H   H9157     1.0  0.89358  0.51502  0.80571  1.0000
  H   H9158     1.0  0.93760  0.51077  0.82483  1.0000
  H   H9159     1.0  0.97907  0.50037  0.91908  1.0000
  H   H9160     1.0  0.92956  0.54010  0.79749  1.0000
  H   H9161     1.0  0.94875  0.48998  0.77071  1.0000
  C   C5363     1.0  0.92131  0.51436  0.86598  1.0000
  H   H9162     1.0  0.97699  0.51917  0.91576  1.0000
  H   H9163     1.0  0.94103  0.49544  0.88623  1.0000
  H   H9164     1.0  0.87868  0.52109  0.83320  1.0000
  H   H9165     1.0  0.94602  0.50686  0.87705  1.0000
  H   H9166     1.0  0.74081  0.49441  0.95562  1.0000
  H   H9167     1.0  0.90069  0.54711  0.82568  1.0000
  C   C5364     1.0  0.98045  0.54913  0.75227  1.0000
  C   C5365     1.0  0.94227  0.50862  0.81716  1.0000
  H   H9168     1.0  0.86428  0.50295  0.78722  1.0000
  C   C5366     1.0  0.96322  0.52856  0.73713  1.0000
  H   H9169     1.0  0.95362  0.51467  0.84406  1.0000
  C   C5367     1.0  0.88287  0.52195  0.82438  1.0000
  H   H9170     1.0  0.78870  0.50839  0.93994  1.0000
  H   H9171     1.0  0.90214  0.50789  0.82478  1.0000
  H   H9172     1.0  0.98338  0.56930  0.79949  1.0000
  C   C5368     1.0  0.81638  0.51451  0.98133  1.0000
  H   H9173     1.0  0.78232  0.50984  0.98388  1.0000
  H   H9174     1.0  0.95501  0.50446  0.85652  1.0000
  H   H9175     1.0  0.80554  0.58852  0.95901  1.0000
  S   S1533     1.0  0.98016  0.54377  0.86412  1.0000
  C   C5369     1.0  0.97929  0.55663  0.74226  1.0000
  H   H9176     1.0  0.96123  0.49523  0.83968  1.0000
  H   H9177     1.0  0.95262  0.54859  0.73835  1.0000
  C   C5370     1.0  0.79785  0.58757  0.95780  1.0000
  H   H9178     1.0  0.90444  0.59082  0.74601  1.0000
  H   H9179     1.0  0.97919  0.55945  0.81815  1.0000
  H   H9180     1.0  0.95305  0.51012  0.74143  1.0000
  H   H9181     1.0  0.84352  0.49975  0.92640  1.0000
  H   H9182     1.0  0.92724  0.49359  0.84609  1.0000
  H   H9183     1.0  0.92073  0.56051  0.73834  1.0000
  H   H9184     1.0  0.95755  0.49749  0.77198  1.0000
  H   H9185     1.0  0.75818  0.53008  0.97534  1.0000
  H   H9186     1.0  0.92757  0.53938  0.74552  1.0000
  H   H9187     1.0  0.92677  0.49282  0.77336  1.0000
  C   C5371     1.0  0.74382  0.58273  0.92703  1.0000
  H   H9188     1.0  0.79749  0.58942  0.97726  1.0000
  H   H9189     1.0  0.97721  0.56687  0.84848  1.0000
  H   H9190     1.0  0.89081  0.54136  0.73489  1.0000
  H   H9191     1.0  0.76816  0.51304  0.93378  1.0000
  H   H9192     1.0  0.93793  0.50037  0.73490  1.0000
  H   H9193     1.0  0.78087  0.55894  0.97725  1.0000
  C   C5372     1.0  0.98164  0.57250  0.84184  1.0000
  H   H9194     1.0  0.74767  0.57719  0.92123  1.0000
  H   H9195     1.0  0.75661  0.60530  0.91032  1.0000
  H   H9196     1.0  0.79133  0.59477  0.95944  1.0000
  H   H9197     1.0  0.78403  0.48969  0.97511  1.0000
  C   C5373     1.0  0.79367  0.56331  0.98232  1.0000
  H   H9198     1.0  0.97889  0.49680  0.73791  1.0000
  H   H9199     1.0  0.94203  0.50028  0.84855  1.0000
  H   H9200     1.0  0.93067  0.49430  0.87421  1.0000
  H   H9201     1.0  0.97775  0.58112  0.84245  1.0000
  H   H9202     1.0  0.96957  0.52125  0.73524  1.0000
  H   H9203     1.0  0.79035  0.54758  0.98304  1.0000
  H   H9204     1.0  0.77361  0.59490  0.96866  1.0000
  H   H9205     1.0  0.90692  0.56536  0.73748  1.0000
  C   C5374     1.0  0.77543  0.59256  0.97696  1.0000
  H   H9206     1.0  0.77491  0.57643  0.97680  1.0000
  S   S1534     1.0  0.98437  0.52813  0.76513  1.0000
  H   H9207     1.0  0.81022  0.48970  0.94394  1.0000
  H   H9208     1.0  0.97955  0.49805  0.82023  1.0000
  H   H9209     1.0  0.77376  0.50201  0.92677  1.0000
  H   H9210     1.0  0.76822  0.52305  0.98303  1.0000
  H   H9211     1.0  0.97911  0.49202  0.79298  1.0000
  H   H9212     1.0  0.98116  0.49872  0.80222  1.0000
  C   C5375     1.0  0.83387  0.49498  0.90269  1.0000
  C   C5376     1.0  0.98479  0.49865  0.91133  1.0000
  H   H9213     1.0  0.80461  0.52907  0.98401  1.0000
  H   H9214     1.0  0.76783  0.59511  0.98292  1.0000
  S   S1535     1.0  0.89041  0.49109  0.82919  1.0000
  S   S1536     1.0  0.89389  0.49050  0.76013  1.0000
  H   H9215     1.0  0.89690  0.48860  0.79083  1.0000
  H   H9216     1.0  0.83506  0.49011  0.89649  1.0000
