data_image0
_chemical_formula_structural       FeS2FeSFeSFeHS2FeS2FeS2FeSFeS3FeS2FeS2FeSFeS3FeS2FeS2FeSFeS2FeS2FeS2FeSFeS3FeS2FeS2FeSFeS3FeS2FeS2FeSFeS3FeS2FeS2FeSFeS3C3HC6H6C2HC2H2C6H4CSHC7H4C3H2C6H4C3H2CHCHC6H7C6H6CHC7H4CH3CHCH5NC8H27C2H3CH6SH9CH5C3H2CH4CH4CH9C4H7CH2C2HCH4CH4C2NHCSHC2H6NHCHC2H6C2HCHC2H8CHCH3CH2C2H2CH3C2H2CHCH3C3H4CH2CH2NH3CH2C2H2NHNCH9CHCH5CH3CHC2HC4HC2H4NC7NH5CH6CH2C3HNCHC3H5NCH2C2H4CHCHCH7NCH11CHCH2C3HCH2NH2CNC4HCH10CH7CHNH2C3HCHC3H2CH2C2H2CHCH3CH6CH2CH5CHCH2C4H2CH2CH5C2H2CHC2H2NHCH2CH4C2HC2HC5H2C3H2CH2CHC2HC2HNH6C2H6C3HCH9NH2CHSCHCHC2H2CH4CHC3HCHCH3C2H11CH3C2HCHC3H8CH6CHC2HC2H2CNHCH3CHSHC2H4C2H4CH5CH2CH3CHFeS2FeS2FeSFeS4FeS2FeSFeS2FeSH2FeS2CHFeS3HCH2FeSFeSCFeSFeS3FeS2FeS2FeSFeS3FeS2FeS2FeSFeS3FeS2FeS2FeSFeS3C3HCH13C2H5CH2C6HC7HCH3C7H7C2H6C2NHC6H4CHC6H10C6HCH6C7H4CHCH3CH3C4HCH4CH3C6H4C6H4C3H2CH3CHCHCH2C2H3C2H6CHCH4NC5HCH21NCHCH4NHNHNH5CHCHCH6CHC3H2C2HC2H3SCH3C4HC4H7CH3CH2CNH2C4H2CH2FeC3H8CHCH3CH4CHSH2NH3CHC3H2FeH2CH3C2H3CH6CSHCNC2HC2H4SC2H2SH5SNHCH2CH4CH2CH4SCH4C3H3C3NCH3NHC2HCHCNC3HSH4SCH5CHCHC2H2SC3H6CHSC2HCH2CHNH6CH6CHNSHCH9CH2FeHC3NH3SCH2FeHCH3CHCH5CH2CH3C2H2C3H4C3H5C2H3CH2C3H2CFeNC2NCHSCH3CH2CH2FeH2CH6CHC2HC2HCH2CHCH2CHNHCH7C2H2C2H4CH6C3HCHC2H4CH4SCH3CHCH3SC2H2CHC2H3CH3CH6CH5CHCH2FeSCFeS2FeSFeS3HSCFeSFeS3FeS2FeHFeNFeS2FeS2Fe2HS2HCH2N2HCNCHC3HC3FeS2FeS2FeSFeS3FeS2FeS2FeSFeS3CFeS2FeSHFeSFeS3CH3CH2C3H2FeC2H3C6H4C6H7C3H5CHC3H5C5H3CHCH3CNCHC6H6NHCHC7H4SH3C6H10CH6C2H2CH3SNC2H3C6H4C6H6C4H6C2H3C2HNCFeH2C4H2CH4CH5CHCH5C3HCHCHC3H6C3H2CH5SHS2H3CH2CH3CSFeHSCFeCH12NHCH4CFeCHCH5CHCH3CH4CH3NC2H2C2H3C2HC2H5CHCH2CH2CH3CHC2H9CH7CH2SC2HFeH3CHCH2CH5NH2NH8C5HCHNHC2HC2H8CH2CH2CH2CNH2CSH2C2H4CH4CHC2H3CHCH3C3HCH2CHC2H5CSHCHCH2CH2SH4CH2C2H2SH2CH3NHNCH3CSCH2C6HCHCH4SC2H3CH3FeCHC2H5CH2CH4SH3C2HC2SH5NC2HC2H2C2HCHC2H2CHCHC3HCHCH4C3SH5SCH3CH2SH4C2H3C3HCHNH2CH6CH3SH5CH2CHNH2CH3CH2NHFeS2FeS2H2FeS3FeS2FeSHFeSFeHS2FeS2FeSHFeSFeS3FeS2FeS2FeHFeS4NCH2CHCSH2NCHCHSCHS2H5CH2CH4FeCHFeHC3SHCH2CFeCH5C4H5C2H6CH2NHC6H4C2SCH2CH2C2H3FeH2NC7HCH2FeHSH5CFeHCHC6H4C6H4C3HC2H4C2HCH2CSH2C6H4C2H2C2H6C2HCH2CHCSH4CH4NC8H20CSH2CHCH2CHFeH5CHCSHSC4H2SC3H3CFeCFeHC2H3CH5CH2CH2CH2CH3CSHCHCHC2HCSH2CHC2H2SHCH2CFeH5CSH2CH2CSCSHCSHCFe2HSH2CFeH3Fe2H2CHCHC2HCH5CSNC3HC2H7CH8C3H2C3H3FeH2SHNH3CHSH2C2HCH2C2H2CSH2CH2C2H6SH2CH3CNCH6CH4C4HCFeHCHSH7SCSCH4NC8H3CH4CHCS2NSH5CH2CSH2CH3CHCH2CH8C3HC3H14SH6CH3CNH6C2HFeS2FeHSFeSHCSHFeSHFeSHFeHFeS3FeS2FeS2HFeHS2CSCHSHFeSFeSHC4H2CHCHCHNC2HC6H9C7H4C4HCFeHC2H3CH6SH3CH3CH3CSH2C2H3C3HCH2SH10C2H2CSH3C3HC3HC2HNSH5NH3CH5SHCH3C2HFeHC3HC2HCH3NH3CH2CHCH3CH4SHCHC2H2CH3FeHCHCHCHFeHCS2H3NH4C2H5CNH2CH3C2H6CH8C2HCHFeS2FeS2FeH2CS2HFeSH4CHC2SCH3SHCHC2HCFeS2FeHSFeSHS2CS2H3SH2NH2CHC4H5CHCH3C7H4CH3C2H2CH2CHC2H4CH2CH3C2H2SH5CHC2H2CSH2SH2CHCH2SH3CHSHC2FeH3SHNH3C2HCH4CSHCHCH6CHCH2C3H2C2HCH2CHFeHCFeHC4SH2CHCSH3FeH4CFeH3FeHCSHCHSHC3H3CH2C2H2FeSCHFeCH2CSH2CH4CH2NH2CHFeC3NHC2HSCH2SHCNC6H3CNHC2H3CH8C2H2NH2CHCH2C2HCHCH2CH4CH2SCHCHCH5CHFeS2FeS2FeSFeHS4CH4CHCH2CFeSHCHFeNHFeSCSCSH4SC2H2CHSCNFeHC2HSHSHCNCNCHFeC2HCH4C6H5C2SCFeH2C2H4C2SHCHS2H5CH2C2HCH6C6H4SHC2HSH5CHCHCH3SH2CHSCH2C2H6SHC3H8FeCH4SH2SHCSCHC2H4CHCH3CFeHCH4Fe2C2H5C2H4SHNH6CHNH4SHCHCHCSC6H2C2HCHFeCFeC2H2CSC6FeHCHNCH2SFeCH2CH6CH7CH7CHCH2CH4CH5C2HNH3C2H4CH2CH3C2HSH2SHFeSFeSH2FeS2FeSHFeSFeCS2HCHFeS2FeS2FeSFeS3H4FeS2FeSHFeHFeS3HCHCH4CH2CHCHNH2C2NHCH2NH2CHCH9CH2CHC7H2NHC6H6CH3CH3CHCH2C4H5C3H3C2HCH3CH4C3H4C6H4C2HCSHCH4C3H3CHCHNHC2H3CH3SH2CHC2H5CH2NCH4CH2SHCHCH3C2H4CH2CHCHC2HC2H2C3HC2HCH9CH2SCH4C3H3CHC2H2C2NH3SHCH2CHC2H5CHCH10CH2CH3CHC3HCH3CH3CHCH2NH4SFeS2FeSFeSFeS2FeS2CHFeS3FeSFeS2FeSFeS3CSHFeS2CHFeSFeHS2CH2SH2FeS2H2FeSHSFeS2HSFeHSFeHSCHCS2HSHSCFe2SH4CFeS3HSFeSFeS3C2HCH3C6H4CHCHCHCHC6H4C6H5CH4SHFe2CNHSHC6H6C2FeC3H2C2H3C6H4C7SCSC3H3C3HC2H3CH2C4H3C6H4C2H2NH4SH5C2SFeH4CFeH2CH2SH3NH5SH3CH2CH2NH5CHSCHC2H6SHCH2FeSH2CH4SC2H6CHCNC7H15S3HC2H2C2H3CH5CSFeCFeCH2CSC3H2SC2H4C2H5SHC2SCH2FeC2H2C3FeCHCSH3FeHC2FeNH3C2H3CHSCH10C2H3CH10CSHCHFeHC2H2CHC4H2CH2SHCH4CH2CH2C2H5CHC4NH2C2SH2FeCFeC2H8Fe2SHCH4CSHCHCHC2H2SH3CFeCH2S3CSH2NFeH3CS2FeH6CHNHCH2SH6CHCHCNH2CFeHC2HCH4CHCNHCHC3NCNHC2HSHCHNC8H21C2H2C3H2CFeCH5CH4CH3C2NC8H11C3FeC2H2CH2CH2CH4CH9Fe2CH2CH3C2SH2C2H3C4H8NHCSH2C2HCHCH7NC2H3CH2CH3C2H5CSCHC2H5SH3CFeSHFeS2FeSFeHS2H2FeS2FeS2FeSFeS3NC3HCHCH3FeS2FeS2FeSFeS3HSHCSNFeS2FeS2FeS2FeSFeS3Fe2S2FeS2FeS2FeS2FeSFeS3FeS2FeS2FeS2FeSFeS3H2CH4C2H9C2H2C4HCH4C6H5C6H4C6H4C6H4C6H4CH2C4H2C6H3C6H5CHC2H2CH2C6H4CH2CH3C6H4C2HC3SHFeH6C3H2C6H5CH3CH2C6H4C6H8CHCH2NH3SCNC8H20NC8H20NC8H21CH2C2HCH5CH2CSCHC2H4C2HNC8H22CHCH2C2H5CHCH2SH3NHCHCHNSCHC3HCH3NHCH9CH4NC8H21C3H2CSCH6CH4SH5Fe2H4CHCH4NH4NC3H2CH2C2SH5CHCH9CH3C2HSC2H4C4H3CNH4NH2SCHCH3NCNCH2C3HCH2SHFeHC2H5C2H4CH2C2H2CH2CH4CH2C2H3CHC3HN2C2HNC8H22CH2CH3C2H2FeCHCH2SH3CH2CH2CHCH3C2S4H4C2HC3H2FeH2SH2CFeHC2H6C2HCHFeHCH2C3H3CHSH4NCNCHCHCFeHC5H4SHCSCH2CFe2CHC3HC2HCH2C2HCH4CHCH2SCSH2C2H4S2HC2S2H2CH4C7HCH2CH5CHCHSHCH4C2NHCFeCHCFeHC2H4C2HFeC2H3SCH2CHCHNH2C2H3SNCHCSHCSH2FeH3FeH2CHCH2NC4H2CHFeSCH3CH2CHCSHCH4SHCH3CSHCH2SCH5SCHC2H2SFeHSHSCH3FeCH3CHSC2H2CH2CHCHCHCH7C2HC4H4CH5CH2CH3SHCNH5C2H3C2H3CHNHCHC2H4C2HSH3FeHSHNHS2FeS2FeS2FeSFeS3HFeS2FeS2FeS2FeS2FeSFeS4FeS2FeS2FeSFeS3CFeH4CH3FeS2FeS2FeSFeS3H3SHCHCH6FeS2FeS2FeSFeHS2FeS2FeS2FeHFeS3H2CHC4H6CHC9H4C6H15CNC2HSH2NFeCHC3H6C2SC4H6CSHC6H5C2H2CHSH2C6H4C6H4C2H2C2H4C6H4CH2C6H4C5H2C6H6C3H5C6H10CH3C3H9C2H4CH3CH4C3H5CH6SHCFeSHCHNC8H20CH3CH4CH2C2H2CSH2CNC3H2CNSCFeH2C5HNC8H19C2H3CNH2C2H2CHC2HC2NH3FeHCHC2H2NHCHC2HSH3SNC8H16NC8H20CHC2H3CHCHCH3C2H10C2SCH5C2HNC5HCH11CHCH3CHCH4CH3CH2NS4H2SCH2SC3HCSHSCSFeH3CFeHSC3SCHC3HCHFeC2H3C5H2C2H3CH2CH3C3HC2H4CH3FeCH2CHCH2CNCH5CH2CHC4H4NH4C2H2CHC2HSHCH2CHNHCH3FeH2NH3SHSCH2C3HCHCHSHC2H5FeH2FeCH4SH4CHNH2C2H4CHC3HNCHC6HCHNH2C2HSH4FeCH3SCHCH2C2H2CHCNHC3H2NH2CNC2HCHCH6SHSH2FeC2H6C2H2C2H2CHSFeSHC2FeC2HCFeSH2C3H2CH2FeHCH2FeHC2HSCHCH4SH2CHSHC2H3CHFeSFeCH4S2CHCH3CHCH3C2NC2HCHCH7SH4C2H2C2H7C2HCHCHNH3CH2CHCH4CH2C3NHCH5C3H4CH4CHCHC3H10FeHSFeHC2S2FeS2FeS2FeSFeS3HSCSHFeH2FeS2FeS2FeCFeS3HSH2SFe2SHCSC2H2FeHFeS2FeS2FeS2FeSFeS3FeS2FeS2FeHFeS3CFeS2FeS2FeSFeS3FeS2FeS2FeSFeS3FeS2HNHCS2CH2SHFeSHCHCH3C2HCSHCHC6H4C6H4C6H4C2H2FeC6H2CFeH2C5HC6H4Fe2H2C7H4C6H4C2H5CH2SHCHNH3CHC6H5SH4C6H4C2HC6H4CH2C4H3SHCHSCH4C6H3NC5HC2H7C2HC2H7NH6C4H7CH2C3HC2H3C2HC3HCH5CH2C3H7CH2CSCH5CH2C2HNC8H21CSCH2SH2CH3C2HCH4C3H5CHSNH4CH3CH2C2HSCHNHCH7CHCH5CH3CH5C2H2C4H2C2NH3C2HCH2C2HC2SH4CNC8H21CH3C2H2CHSHCSH2SNCSH4CH2FeCH3C6H8C2H2CNCH2C2HCH2CH4CH4NCH8CH8C2HCHCH2CHCH4CHNC8H20CSHCH3CHSH6C3H4CH4CH3CH4CSC2H3CH2CSCHCH3C2HCHCH2C2H4FeHC2H3C2H3CSH2SCH2C3SFeC2SC2HFe2H3C2SNC2SCH3C3FeH3SCHC2HSH2CH2FeHFeCNHC4SCHFeCHC3H3C2H7CH2NCHCNH5CH4SFe2SNH3SC4HC2H3CH4C3H2SHC2HSCH5CH2SH5CHCNHCH2CHSCHCH2CHCH3C2HCHCHCH2CH4CH6SHCH12CNCH4C2HCHCH3CHCHNHCH8C3NCH15CH5CSH2CH6CHCH2C2H6CH2C3HCH2NHCH2CHCH4NH5SCH2C2HCH3CFeS2FeSHFeSFeHS2HCH2FeSHFeSHFeSFeS3CHCH4CHC2HFeSCFeS2FeSFeS3C2HFeS2FeSHFeSFeCS2C3H2CHCHSHSCH3C2HSH6C3H2C2H2C2H2C6H8CHCH16C2H4CH3SH2CH2CH2CH4C2H2C6H5CH4NH2CHCH2C2SC2SH3CHC3H3CH2CHCHCHCH4CSCHCH2C2HCHC2H4NHC4H3SH2CHCHCH2CH3CH6CHCHCHCH2CHCH7C2NH2SCHCHC3HCH4NHFeCSH2CH3FeCHCH2CSHC2H2SFeS2FeSHFeSFeS3HC2H3CHS2Fe2S2FeNFeSHCH2CH4NH2C3SC3H2CSH3CH5CHNH4SHC6H4C2H3CHSCH2CHSC2H6SCH4CHC2NH3CSH2CHSH3C3H2CSH2CHCSH3C10H3CH4CH3C2HC2H2FeCH4CHFeCH2CNCHSH5CSHCH2CH2C2H2C2H3FeHCH3CH5C5HC2H2SFeSC2FeSCNC8H21CHC2H3CNH3CHFeNH4CH2C2H5CH3CH4CSH4C2H6CHCHC3HNH5CHCH5CH2CHC2HCFeSHFeS2NHFeSCSCNCSH2Fe2HCHS2CHSH2SHFeSCFeSFeSFeS2HC3H5CHCH2CH2C2HC4H5NCH3SCFeHCHCHC2H4C6H6CH2SH2C2H3CFeC4H3CHNHSH3S2HC2HCHCH2CHCHCH3C2HCH4SHCSCH2CH4NHC2H2CHC2H6CFeH4SCHCHC3SH5CHC2SH3C2H7C2HC3H5FeCH3CH2C2SCHCHSHNC3NFeCFeH4CH2CHCH11SH6FeC4H2C2HNHC3H5CHCH3NH2CH8CHCH2CH2C3H2CH2NH2CH2C2H6SC3HCFeSHFeSFeSFeHS2FeS2FeS2FeSFeS2FeSFeSHFeSFeS3FeS2FeS2FeSFeS3C2HCH4C6H8CH2C6H7C2HC2HCHC3H5C2H2CH3NCH3CHC2HCH3CSCH2SH3NH9CH3C2HCHCH5C3HCHCHCH2CH6C2H2CH2CH2C2H2CH4C2N2C2H3NH5CNC4HCHCH15NCH4CHC2HC2SCHCHC2H2C3HC4H2CHNCH2CH3SH2SHCH7CH3CSH4CHC3HCH5CH2C2H2SH4CHCH3C3H2CSCHCH2CH3CHCNH3C2H3CH6C2H3CH2CHCH2CH2C2HC2H2CHCHCH2C3H3SH9SH2CH5CFeSCFeS2FeSFeS3FeS2FeS2FeSFeS3FeS2FeSFeSFeS3FeS2FeS2FeSFeS3FeS2FeS2FeHFeS3FeS2FeS2FeSFeS3FeSCH3FeSHS2FeS2FeSFeS3H2CH3C6H5CH5C7H6FeCHCHCNHCFeH3CH3C6H4C2H2C7H4C4H5C4HC2H4C6H5CNHC6H8C2SH2CNCH4C3H2FeH3CH2CH8CHC5H4CHC2H4C4H2CH5CH2CH3NH9C2H5NC3H2C2H4NC8H8CH4CH7C3HNSNH2C2HCH5C2H3CHC2HCH3CH7CH2NH11C2HCNC7H15C3H2NCH4C2H2CHCSHC2HCH5C2H3CH2C4H6NH3CH2CHCH3CHCH5C5H3CHSH2CH3CHSH2CH4CH2NHCH2SH3C3HCHC2HCNH3NCHCH3NH2SH2SCH2CHCHC3HCH3CH3CHCH5C2HC2HCHCH4C5HCHCHCH7SHC3H2C2H10CH2CH2C2H2CH2NH2C2H2NHCHC5H2CH2CSCHC2H2CHC2H6CHC2H2CHC2HCH2C2H2CH5C2H2C2NH2CHCH3CH7C4H4CH6C2H2CH2CH4CH5CSFeS2FeCFeS3CSC2FeS2H4CFeS2FeSCFeSHS2FeS2FeS2FeCFeS3FeS2FeS2FeHFeS3CH2CFeS2FeS2FeHFeCS2FeS2FeCSFeSHCS2HNHCH2SCHCFeCH4CFeHCH6CSH4CH2C3HC2H5CH2CSCHCHC6H5SC3H3C6H5CH7CH3NH2CHCHC2H5C9H7CHC6H4SHCHFeC9HC2H2C4H2SC6H4CHC4H3FeH3CHC2H2FeC2H16CH6C2H2NC8H20NC3NSC2H7CH2C2H6CHCHFeCHSCH3SH2C2H6FeCSH3SCFeNSC3HC3HCH3CH3CH2CH6C2HCH6CH3CHCH2C2NH2NC8H18CHC3H13FeH2CHCH4SH2CNH2NH3S2CH8CHCSCH3C5H4SCH2SC2HNFeHC2H3CSH4C2H6CH4CH2CH2SH5CH2CHSCH4C2HCHCH2SHFeSHFeS2FeS3H6CH6C2HCH2CFeS2HFeHFeH3FeS2FeS2FeHFeS3HFeS2FeS2FeSFeCS2C3S2H3CSH4FeS2FeS2FeSFeS3CH3C3H5C4S2CHCH7CHC2HC6H4CH4CH2CH7CH2CH2C3H5C6H13C7H4CH4C7H6CHC2H2C2HCH2CH3NH4CH2CH2NCFeNCNH2C3HCHC6H4C2SCHSH4C2H3CH2CHFeNC2H5CH3C2HSH2CH3CHFeHC3H2CHCH2C2H2CH2CHCH9SHCHCH2SHSH2C3H2C2HCH2CHSH3C2H3CH4C2HNH5CHC2H2CFeHC6H2CH2CSCH5CHCH6C2H3SH2CH2C2HSC2H6CHCH4CH2CHCHCHNCH4C2SH2CSH2NHC2FeCHNHC2SH2CH13CH9CHC2H9CH2CH9NHCHCSC4NH2CH4CFeCHCHCHN2C2H3C2H12C2HSCH2CFeHC4SCFeCH2C2HC2H4SC2HSC2HC2FeC2FeCH2CH3CH2FeCSHCHS2CSH2CSCH2S2CHC3H2FeCNH2CSH2C3H2SH2SFeH5C2H2CH5CHFeHCSH2CH2C2HCH2CH3SCH3CH5NC2HCH5C2H2CH5C2H5C2H4CHCHCN2HCH5CHCHC2FeS2FeS2FeSFeS3FeSHFeS2FeHFeS3FeS2FeSCFeSFeS3HSCFeS2FeSHSHC4SH2FeSHSH2C4H5CHSFeSFeHFeSHSCH2CHCH2C2H3CH3CH2SHCHCNC2HCH2CHNC3H6C2HC3HSH2C2HC6H5CH2C2HCHC6H4C2HC6H11FeH2C2HC2HCH2C2H3SH3CNH3CHSCH4SH2CHCFeH2CHC2H2CSH3FeH3SH3C2NH5CH5CHCH7CH2NH2CH2CHC2NH3CHC2HCH2SCHC2HC2HC2FeC2HSCH3NCH2C2H10CHNCHNH4SNSC3SC3HSH5CNFeSCSH7CHCH3CH2SNHCHFeHCH2C2FeH3SHSFeCH2C2H7FeHCHFeHCSHCHSHS2HC2H6SH2CNHCSH6CFeH2CH2CH2FeHFeHCHCH5C2H3SH6CFeHCH3C2H2C3H3CH4CH2C2H3NSCH7CSC2H2C2H3C2H4CH2NCHC2HCH3CH2CHNH5CH2C2H2CH3SH4C2H2C5HC2HC3SHC
_chemical_formula_sum              "Fe576 S1152 H6912 C4032 N288"
_cell_length_a       108.036
_cell_length_b       107.29
_cell_length_c       106.877
_cell_angle_alpha    73.6846
_cell_angle_beta     73.6869
_cell_angle_gamma    73.7019

_space_group_name_H-M_alt    "P 1"
_space_group_IT_number       1

loop_
  _space_group_symop_operation_xyz
  'x, y, z'

loop_
  _atom_site_type_symbol
  _atom_site_label
  _atom_site_symmetry_multiplicity
  _atom_site_fract_x
  _atom_site_fract_y
  _atom_site_fract_z
  _atom_site_occupancy
  Fe  Fe1       1.0  0.11981  0.41998  0.02373  1.0000
  S   S1        1.0  0.12918  0.43331  0.02915  1.0000
  S   S2        1.0  0.10582  0.40906  0.04031  1.0000
  Fe  Fe2       1.0  0.13581  0.42415  0.99481  1.0000
  S   S3        1.0  0.14641  0.43798  0.99792  1.0000
  Fe  Fe3       1.0  0.14832  0.42357  0.01743  1.0000
  S   S4        1.0  0.16657  0.41603  0.02613  1.0000
  Fe  Fe4       1.0  0.12645  0.44650  0.00936  1.0000
  H   H1        1.0  0.99818  0.40875  0.34910  1.0000
  S   S5        1.0  0.13928  0.40891  0.01355  1.0000
  S   S6        1.0  0.11552  0.43402  0.00468  1.0000
  Fe  Fe5       1.0  0.03976  0.43529  0.08524  1.0000
  S   S7        1.0  0.04546  0.44434  0.09863  1.0000
  S   S8        1.0  0.04822  0.44031  0.06302  1.0000
  Fe  Fe6       1.0  0.02041  0.42187  0.10796  1.0000
  S   S9        1.0  0.02456  0.42953  0.12350  1.0000
  S   S10       1.0  0.00642  0.40801  0.11461  1.0000
  Fe  Fe7       1.0  0.02384  0.44865  0.10822  1.0000
  S   S11       1.0  0.01380  0.46781  0.11481  1.0000
  Fe  Fe8       1.0  0.04575  0.42462  0.11296  1.0000
  S   S12       1.0  0.06249  0.41508  0.12352  1.0000
  S   S13       1.0  0.01787  0.44152  0.09339  1.0000
  S   S14       1.0  0.04187  0.41494  0.09873  1.0000
  Fe  Fe9       1.0  0.05320  0.43358  0.19108  1.0000
  S   S15       1.0  0.03210  0.43473  0.19180  1.0000
  S   S16       1.0  0.06863  0.43436  0.17186  1.0000
  Fe  Fe10      1.0  0.04813  0.43208  0.22131  1.0000
  S   S17       1.0  0.02652  0.43292  0.22446  1.0000
  S   S18       1.0  0.05852  0.43039  0.23763  1.0000
  Fe  Fe11      1.0  0.03315  0.41879  0.21059  1.0000
  S   S19       1.0  0.02667  0.39953  0.21488  1.0000
  Fe  Fe12      1.0  0.02768  0.44876  0.20543  1.0000
  S   S20       1.0  0.01473  0.46925  0.20179  1.0000
  S   S21       1.0  0.05476  0.41664  0.20889  1.0000
  S   S22       1.0  0.04886  0.44883  0.20323  1.0000
  Fe  Fe13      1.0  0.11541  0.01993  0.43776  1.0000
  S   S23       1.0  0.10239  0.03278  0.42400  1.0000
  S   S24       1.0  0.10737  0.01081  0.45895  1.0000
  Fe  Fe14      1.0  0.14077  0.02438  0.41792  1.0000
  S   S25       1.0  0.13000  0.03780  0.40220  1.0000
  S   S26       1.0  0.16283  0.01682  0.41571  1.0000
  Fe  Fe15      1.0  0.11588  0.04676  0.41897  1.0000
  S   S27       1.0  0.10796  0.06866  0.41892  1.0000
  Fe  Fe16      1.0  0.11738  0.02262  0.40854  1.0000
  S   S28       1.0  0.12784  0.03462  0.43415  1.0000
  S   S29       1.0  0.12922  0.00847  0.42289  1.0000
  Fe  Fe17      1.0  0.01570  0.12822  0.39794  1.0000
  S   S30       1.0  0.01546  0.14267  0.40955  1.0000
  S   S31       1.0  0.99523  0.13249  0.39428  1.0000
  Fe  Fe18      1.0  0.04502  0.11681  0.39683  1.0000
  S   S32       1.0  0.04700  0.13095  0.40793  1.0000
  S   S33       1.0  0.06078  0.09952  0.39036  1.0000
  Fe  Fe19      1.0  0.02796  0.12604  0.42125  1.0000
  S   S34       1.0  0.02135  0.12304  0.44356  1.0000
  Fe  Fe20      1.0  0.03414  0.14650  0.39515  1.0000
  S   S35       1.0  0.03270  0.16853  0.38631  1.0000
  S   S36       1.0  0.02672  0.11110  0.41101  1.0000
  S   S37       1.0  0.03379  0.13287  0.38272  1.0000
  Fe  Fe21      1.0  0.04831  0.25593  0.38965  1.0000
  S   S38       1.0  0.03525  0.26156  0.40838  1.0000
  S   S39       1.0  0.05340  0.27267  0.37245  1.0000
  Fe  Fe22      1.0  0.05142  0.22587  0.40182  1.0000
  S   S40       1.0  0.03850  0.22954  0.42147  1.0000
  S   S41       1.0  0.06124  0.20416  0.40233  1.0000
  Fe  Fe23      1.0  0.02568  0.24533  0.40907  1.0000
  S   S42       1.0  0.00375  0.24830  0.41294  1.0000
  Fe  Fe24      1.0  0.04962  0.24522  0.41841  1.0000
  S   S43       1.0  0.05886  0.24754  0.43356  1.0000
  S   S44       1.0  0.03772  0.24068  0.38945  1.0000
  S   S45       1.0  0.06351  0.24065  0.39966  1.0000
  Fe  Fe25      1.0  0.04769  0.45181  0.32893  1.0000
  S   S46       1.0  0.02987  0.46274  0.32054  1.0000
  S   S47       1.0  0.06430  0.45952  0.33090  1.0000
  Fe  Fe26      1.0  0.04198  0.42480  0.33328  1.0000
  S   S48       1.0  0.02387  0.43316  0.32483  1.0000
  S   S49       1.0  0.04911  0.40259  0.34032  1.0000
  Fe  Fe27      1.0  0.03518  0.44681  0.30885  1.0000
  S   S50       1.0  0.02850  0.45356  0.28924  1.0000
  Fe  Fe28      1.0  0.01931  0.44859  0.33679  1.0000
  S   S51       1.0  0.99779  0.45512  0.34587  1.0000
  S   S52       1.0  0.05407  0.43688  0.31590  1.0000
  S   S53       1.0  0.03654  0.43920  0.34660  1.0000
  Fe  Fe29      1.0  0.03131  0.34030  0.41790  1.0000
  S   S54       1.0  0.03900  0.35042  0.42873  1.0000
  S   S55       1.0  0.00948  0.34293  0.42274  1.0000
  Fe  Fe30      1.0  0.05843  0.32869  0.40308  1.0000
  S   S56       1.0  0.06854  0.33785  0.41284  1.0000
  S   S57       1.0  0.07101  0.31701  0.38778  1.0000
  Fe  Fe31      1.0  0.05403  0.33128  0.43179  1.0000
  S   S58       1.0  0.05666  0.31870  0.45218  1.0000
  Fe  Fe32      1.0  0.05241  0.35607  0.40875  1.0000
  S   S59       1.0  0.05365  0.37762  0.40062  1.0000
  S   S60       1.0  0.04529  0.32071  0.42217  1.0000
  S   S61       1.0  0.04343  0.34729  0.39773  1.0000
  C   C1        1.0  0.00428  0.33567  0.41303  1.0000
  C   C2        1.0  0.01337  0.32845  0.40399  1.0000
  C   C3        1.0  0.01760  0.37610  0.38960  1.0000
  H   H2        1.0  0.02387  0.32692  0.40320  1.0000
  C   C4        1.0  0.04966  0.39567  0.35729  1.0000
  C   C5        1.0  0.05534  0.38211  0.36118  1.0000
  C   C6        1.0  0.05625  0.37639  0.37454  1.0000
  C   C7        1.0  0.05165  0.38425  0.38406  1.0000
  C   C8        1.0  0.04581  0.39776  0.38022  1.0000
  C   C9        1.0  0.04463  0.40341  0.36693  1.0000
  H   H3        1.0  0.05918  0.37602  0.35382  1.0000
  H   H4        1.0  0.06088  0.36598  0.37738  1.0000
  H   H5        1.0  0.04214  0.40386  0.38756  1.0000
  H   H6        1.0  0.03997  0.41377  0.36415  1.0000
  H   H7        1.0  0.15849  0.03894  0.46778  1.0000
  H   H8        1.0  0.10414  0.28302  0.41795  1.0000
  C   C10       1.0  0.04460  0.47577  0.24899  1.0000
  C   C11       1.0  0.00481  0.16632  0.37040  1.0000
  H   H9        1.0  0.99568  0.29146  0.39916  1.0000
  C   C12       1.0  0.05749  0.32652  0.46427  1.0000
  C   C13       1.0  0.06320  0.33755  0.46066  1.0000
  H   H10       1.0  0.99334  0.42306  0.18858  1.0000
  H   H11       1.0  0.06655  0.34192  0.45022  1.0000
  C   C14       1.0  0.05762  0.28532  0.37692  1.0000
  C   C15       1.0  0.04990  0.29095  0.38778  1.0000
  C   C16       1.0  0.05348  0.30122  0.39087  1.0000
  C   C17       1.0  0.06502  0.30553  0.38337  1.0000
  C   C18       1.0  0.07263  0.29993  0.37254  1.0000
  C   C19       1.0  0.06883  0.29004  0.36920  1.0000
  H   H12       1.0  0.04108  0.28757  0.39366  1.0000
  H   H13       1.0  0.04749  0.30559  0.39918  1.0000
  H   H14       1.0  0.08154  0.30322  0.36670  1.0000
  H   H15       1.0  0.07477  0.28584  0.36075  1.0000
  C   C20       1.0  0.04673  0.25337  0.44651  1.0000
  S   S62       1.0  0.07052  0.11419  0.46794  1.0000
  H   H16       1.0  0.03038  0.25199  0.43951  1.0000
  C   C21       1.0  0.04298  0.16346  0.43430  1.0000
  C   C22       1.0  0.04094  0.17820  0.39067  1.0000
  C   C23       1.0  0.03623  0.19206  0.38839  1.0000
  C   C24       1.0  0.04241  0.20013  0.39187  1.0000
  C   C25       1.0  0.05355  0.19440  0.39738  1.0000
  C   C26       1.0  0.05845  0.18057  0.39939  1.0000
  C   C27       1.0  0.05209  0.17246  0.39617  1.0000
  H   H17       1.0  0.02764  0.19658  0.38411  1.0000
  H   H18       1.0  0.03855  0.21077  0.39025  1.0000
  H   H19       1.0  0.06714  0.17609  0.40354  1.0000
  H   H20       1.0  0.05590  0.16181  0.39777  1.0000
  C   C28       1.0  0.03513  0.11857  0.45073  1.0000
  C   C29       1.0  0.03337  0.11880  0.46412  1.0000
  C   C30       1.0  0.04792  0.11594  0.44287  1.0000
  H   H21       1.0  0.02364  0.12027  0.47048  1.0000
  H   H22       1.0  0.04940  0.11516  0.43270  1.0000
  C   C31       1.0  0.09350  0.07680  0.41282  1.0000
  C   C32       1.0  0.08870  0.09052  0.41204  1.0000
  C   C33       1.0  0.07793  0.09747  0.40606  1.0000
  C   C34       1.0  0.07205  0.09074  0.40065  1.0000
  C   C35       1.0  0.07651  0.07694  0.40193  1.0000
  C   C36       1.0  0.08716  0.06996  0.40806  1.0000
  H   H23       1.0  0.09357  0.09589  0.41568  1.0000
  H   H24       1.0  0.07465  0.10814  0.40499  1.0000
  H   H25       1.0  0.07198  0.07169  0.39777  1.0000
  H   H26       1.0  0.09074  0.05939  0.40863  1.0000
  C   C37       1.0  0.02463  0.37856  0.16628  1.0000
  C   C38       1.0  0.01016  0.22328  0.40836  1.0000
  C   C39       1.0  0.16796  0.04151  0.41278  1.0000
  H   H27       1.0  0.99660  0.18579  0.35194  1.0000
  H   H28       1.0  0.15753  0.04560  0.41312  1.0000
  C   C40       1.0  0.12073  0.00716  0.46651  1.0000
  H   H29       1.0  0.03010  0.34574  0.46955  1.0000
  C   C41       1.0  0.08446  0.46061  0.14613  1.0000
  H   H30       1.0  0.00443  0.10595  0.38813  1.0000
  C   C42       1.0  0.04977  0.43630  0.25220  1.0000
  C   C43       1.0  0.03701  0.44432  0.25309  1.0000
  C   C44       1.0  0.03059  0.44939  0.26462  1.0000
  C   C45       1.0  0.03681  0.44645  0.27531  1.0000
  C   C46       1.0  0.04943  0.43822  0.27456  1.0000
  C   C47       1.0  0.05592  0.43324  0.26299  1.0000
  H   H31       1.0  0.03220  0.44679  0.24482  1.0000
  H   H32       1.0  0.02077  0.45567  0.26528  1.0000
  H   H33       1.0  0.05430  0.43587  0.28277  1.0000
  H   H34       1.0  0.06580  0.42703  0.26235  1.0000
  H   H35       1.0  0.99179  0.09090  0.38559  1.0000
  H   H36       1.0  0.01368  0.45894  0.22983  1.0000
  H   H37       1.0  0.00409  0.13228  0.46695  1.0000
  C   C48       1.0  0.06365  0.42112  0.13677  1.0000
  C   C49       1.0  0.07493  0.41562  0.14210  1.0000
  C   C50       1.0  0.07617  0.41959  0.15301  1.0000
  C   C51       1.0  0.06599  0.42884  0.15898  1.0000
  C   C52       1.0  0.05460  0.43441  0.15372  1.0000
  C   C53       1.0  0.05351  0.43069  0.14247  1.0000
  H   H38       1.0  0.08280  0.40826  0.13774  1.0000
  H   H39       1.0  0.08507  0.41542  0.15688  1.0000
  H   H40       1.0  0.04674  0.44170  0.15819  1.0000
  H   H41       1.0  0.04480  0.43506  0.13835  1.0000
  H   H42       1.0  0.09866  0.25666  0.42843  1.0000
  H   H43       1.0  0.03218  0.20314  0.42846  1.0000
  C   C54       1.0  0.00486  0.42408  0.26894  1.0000
  H   H44       1.0  0.09170  0.18703  0.46355  1.0000
  C   C55       1.0  0.00883  0.32348  0.39567  1.0000
  C   C56       1.0  0.08977  0.41780  0.04636  1.0000
  C   C57       1.0  0.08329  0.41340  0.05960  1.0000
  C   C58       1.0  0.07065  0.42039  0.06489  1.0000
  C   C59       1.0  0.06427  0.43163  0.05683  1.0000
  C   C60       1.0  0.07065  0.43591  0.04351  1.0000
  C   C61       1.0  0.08343  0.42910  0.03832  1.0000
  H   H45       1.0  0.08816  0.40465  0.06585  1.0000
  H   H46       1.0  0.06583  0.41700  0.07515  1.0000
  H   H47       1.0  0.06574  0.44458  0.03721  1.0000
  H   H48       1.0  0.08834  0.43252  0.02808  1.0000
  C   C62       1.0  0.01317  0.47705  0.21469  1.0000
  H   H49       1.0  0.04275  0.21506  0.44784  1.0000
  H   H50       1.0  0.99846  0.39251  0.37320  1.0000
  H   H51       1.0  0.01979  0.15426  0.43562  1.0000
  C   C63       1.0  0.09838  0.29323  0.39925  1.0000
  H   H52       1.0  0.00177  0.42944  0.07004  1.0000
  C   C64       1.0  0.99510  0.43407  0.30854  1.0000
  H   H53       1.0  0.07327  0.06918  0.47355  1.0000
  H   H54       1.0  0.08292  0.05217  0.46513  1.0000
  H   H55       1.0  0.08767  0.25308  0.44430  1.0000
  H   H56       1.0  0.99785  0.28544  0.35368  1.0000
  H   H57       1.0  0.07885  0.21579  0.41270  1.0000
  N   N1        1.0  0.07936  0.42107  0.35817  1.0000
  C   C65       1.0  0.08859  0.40786  0.36199  1.0000
  C   C66       1.0  0.08744  0.43161  0.35247  1.0000
  C   C67       1.0  0.07251  0.42088  0.34777  1.0000
  C   C68       1.0  0.06901  0.42384  0.37046  1.0000
  C   C69       1.0  0.08244  0.39550  0.36662  1.0000
  C   C70       1.0  0.09224  0.43578  0.36266  1.0000
  C   C71       1.0  0.08164  0.41681  0.33495  1.0000
  C   C72       1.0  0.05914  0.43748  0.36874  1.0000
  H   H58       1.0  0.09723  0.40604  0.35361  1.0000
  H   H59       1.0  0.09290  0.40786  0.37029  1.0000
  H   H60       1.0  0.08199  0.44081  0.34671  1.0000
  H   H61       1.0  0.09640  0.42827  0.34496  1.0000
  H   H62       1.0  0.06546  0.41421  0.35196  1.0000
  H   H63       1.0  0.06627  0.43085  0.34454  1.0000
  H   H64       1.0  0.06287  0.41624  0.37418  1.0000
  H   H65       1.0  0.07359  0.42271  0.37895  1.0000
  H   H66       1.0  0.07492  0.39566  0.37612  1.0000
  H   H67       1.0  0.07813  0.39420  0.35893  1.0000
  H   H68       1.0  0.09030  0.38645  0.36863  1.0000
  H   H69       1.0  0.09890  0.44273  0.35718  1.0000
  H   H70       1.0  0.08389  0.44124  0.36925  1.0000
  H   H71       1.0  0.09792  0.42717  0.36880  1.0000
  H   H72       1.0  0.07543  0.41680  0.32826  1.0000
  H   H73       1.0  0.08777  0.40659  0.33697  1.0000
  H   H74       1.0  0.08799  0.42401  0.32939  1.0000
  H   H75       1.0  0.04933  0.43617  0.36867  1.0000
  H   H76       1.0  0.06221  0.44479  0.35954  1.0000
  H   H77       1.0  0.05785  0.44209  0.37725  1.0000
  H   H78       1.0  0.02780  0.37610  0.38372  1.0000
  H   H79       1.0  0.01487  0.37704  0.17273  1.0000
  H   H80       1.0  0.00376  0.38886  0.40285  1.0000
  H   H81       1.0  0.08838  0.21533  0.42411  1.0000
  H   H82       1.0  0.02256  0.38399  0.15642  1.0000
  H   H83       1.0  0.01067  0.42184  0.20005  1.0000
  H   H84       1.0  0.09198  0.05337  0.44793  1.0000
  C   C73       1.0  0.02466  0.29800  0.45978  1.0000
  C   C74       1.0  0.18654  0.40843  0.99688  1.0000
  H   H85       1.0  0.00493  0.16551  0.42134  1.0000
  H   H86       1.0  0.99660  0.39626  0.15901  1.0000
  H   H87       1.0  0.04475  0.48101  0.15261  1.0000
  C   C75       1.0  0.02387  0.25763  0.45854  1.0000
  H   H88       1.0  0.07735  0.20334  0.47239  1.0000
  H   H89       1.0  0.06440  0.08461  0.45674  1.0000
  H   H90       1.0  0.05386  0.29181  0.42059  1.0000
  H   H91       1.0  0.04525  0.37749  0.14614  1.0000
  H   H92       1.0  0.08704  0.29718  0.43997  1.0000
  H   H93       1.0  0.01991  0.31444  0.43625  1.0000
  S   S63       1.0  0.11848  0.46835  0.00754  1.0000
  H   H94       1.0  0.01044  0.40695  0.16682  1.0000
  H   H95       1.0  0.07800  0.27689  0.47291  1.0000
  H   H96       1.0  0.00313  0.28881  0.46137  1.0000
  H   H97       1.0  0.09543  0.30356  0.40072  1.0000
  H   H98       1.0  0.99308  0.15257  0.36974  1.0000
  H   H99       1.0  0.10895  0.29163  0.39398  1.0000
  H   H100      1.0  0.01799  0.27792  0.35516  1.0000
  H   H101      1.0  0.00073  0.26361  0.36641  1.0000
  H   H102      1.0  0.04549  0.18929  0.43114  1.0000
  C   C76       1.0  0.01882  0.32755  0.45569  1.0000
  H   H103      1.0  0.03411  0.47584  0.25408  1.0000
  H   H104      1.0  0.01363  0.25756  0.45958  1.0000
  H   H105      1.0  0.06987  0.35095  0.46775  1.0000
  H   H106      1.0  0.00507  0.48343  0.31881  1.0000
  H   H107      1.0  0.03985  0.21259  0.46559  1.0000
  C   C77       1.0  0.99712  0.14035  0.47158  1.0000
  C   C78       1.0  0.08953  0.45017  0.13740  1.0000
  C   C79       1.0  0.06586  0.47622  0.16621  1.0000
  H   H108      1.0  0.01685  0.40062  0.36240  1.0000
  H   H109      1.0  0.00285  0.31501  0.43948  1.0000
  C   C80       1.0  0.05056  0.25648  0.45650  1.0000
  H   H110      1.0  0.06425  0.20243  0.43097  1.0000
  H   H111      1.0  0.04783  0.16733  0.43987  1.0000
  H   H112      1.0  0.08143  0.45513  0.15659  1.0000
  H   H113      1.0  0.01012  0.29172  0.40393  1.0000
  C   C81       1.0  0.01216  0.47565  0.23795  1.0000
  H   H114      1.0  0.05688  0.14444  0.43776  1.0000
  H   H115      1.0  0.02918  0.36316  0.46575  1.0000
  H   H116      1.0  0.00695  0.36341  0.24721  1.0000
  H   H117      1.0  0.03108  0.36863  0.16539  1.0000
  C   C82       1.0  0.10037  0.42953  0.07611  1.0000
  H   H118      1.0  0.02949  0.27387  0.36526  1.0000
  H   H119      1.0  0.09727  0.44209  0.14157  1.0000
  H   H120      1.0  0.09407  0.45442  0.12696  1.0000
  H   H121      1.0  0.08162  0.44542  0.13749  1.0000
  H   H122      1.0  0.03573  0.35298  0.47979  1.0000
  H   H123      1.0  0.06037  0.46825  0.16872  1.0000
  H   H124      1.0  0.98725  0.48206  0.25247  1.0000
  H   H125      1.0  0.01883  0.36800  0.39865  1.0000
  H   H126      1.0  0.11820  0.07871  0.44823  1.0000
  C   C83       1.0  0.05121  0.48392  0.33762  1.0000
  C   C84       1.0  0.00067  0.23521  0.40839  1.0000
  C   C85       1.0  0.08604  0.30297  0.42980  1.0000
  C   C86       1.0  0.13319  0.00071  0.46038  1.0000
  H   H127      1.0  0.08164  0.46604  0.34225  1.0000
  H   H128      1.0  0.06868  0.11332  0.44175  1.0000
  H   H129      1.0  0.01457  0.33763  0.45783  1.0000
  H   H130      1.0  0.09284  0.29226  0.39239  1.0000
  H   H131      1.0  0.07376  0.28830  0.40485  1.0000
  H   H132      1.0  0.06288  0.46092  0.13601  1.0000
  H   H133      1.0  0.10616  0.05711  0.46691  1.0000
  C   C87       1.0  0.05976  0.28144  0.42194  1.0000
  H   H134      1.0  0.99924  0.32605  0.45610  1.0000
  H   H135      1.0  0.14031  0.03970  0.45932  1.0000
  C   C88       1.0  0.00786  0.17647  0.45407  1.0000
  C   C89       1.0  0.01317  0.46950  0.22766  1.0000
  H   H136      1.0  0.07142  0.29470  0.46871  1.0000
  C   C90       1.0  0.99046  0.48014  0.31112  1.0000
  H   H137      1.0  0.09096  0.17205  0.46006  1.0000
  H   H138      1.0  0.07349  0.07051  0.44928  1.0000
  H   H139      1.0  0.13901  0.47682  0.98247  1.0000
  H   H140      1.0  0.02190  0.15805  0.45490  1.0000
  C   C91       1.0  0.06957  0.20867  0.43342  1.0000
  H   H141      1.0  0.02054  0.48362  0.17418  1.0000
  H   H142      1.0  0.10729  0.06358  0.44981  1.0000
  H   H143      1.0  0.01583  0.31808  0.38852  1.0000
  H   H144      1.0  0.12595  0.06612  0.35517  1.0000
  C   C92       1.0  0.08398  0.27408  0.43454  1.0000
  C   C93       1.0  0.04821  0.47669  0.14361  1.0000
  N   N2        1.0  0.08315  0.28383  0.42138  1.0000
  H   H145      1.0  0.03087  0.19202  0.44451  1.0000
  C   C94       1.0  0.07430  0.28090  0.41440  1.0000
  S   S64       1.0  0.98926  0.31958  0.38642  1.0000
  H   H146      1.0  0.15660  0.99144  0.43669  1.0000
  C   C95       1.0  0.98670  0.10062  0.38756  1.0000
  C   C96       1.0  0.01122  0.38881  0.20644  1.0000
  H   H147      1.0  0.03806  0.39230  0.08402  1.0000
  H   H148      1.0  0.99128  0.30429  0.46058  1.0000
  H   H149      1.0  0.09426  0.06625  0.38148  1.0000
  H   H150      1.0  0.03669  0.29987  0.47229  1.0000
  H   H151      1.0  0.17487  0.39412  0.99824  1.0000
  H   H152      1.0  0.01975  0.22245  0.41014  1.0000
  N   N3        1.0  0.00909  0.37323  0.38215  1.0000
  H   H153      1.0  0.09096  0.19070  0.44048  1.0000
  C   C97       1.0  0.01540  0.35996  0.37839  1.0000
  H   H154      1.0  0.06593  0.45832  0.23569  1.0000
  C   C98       1.0  0.99734  0.29225  0.37171  1.0000
  C   C99       1.0  0.11483  0.98955  0.40189  1.0000
  H   H155      1.0  0.02420  0.41469  0.08170  1.0000
  H   H156      1.0  0.14785  0.02504  0.45297  1.0000
  H   H157      1.0  0.01114  0.40943  0.07957  1.0000
  H   H158      1.0  0.01684  0.35208  0.38751  1.0000
  H   H159      1.0  0.08002  0.46697  0.20648  1.0000
  H   H160      1.0  0.08448  0.08984  0.36545  1.0000
  C   C100      1.0  0.00997  0.17202  0.42364  1.0000
  C   C101      1.0  0.05892  0.20131  0.45665  1.0000
  H   H161      1.0  0.98940  0.40627  0.22312  1.0000
  C   C102      1.0  0.06235  0.47334  0.33766  1.0000
  H   H162      1.0  0.02802  0.38463  0.36298  1.0000
  C   C103      1.0  0.18302  0.03040  0.47483  1.0000
  C   C104      1.0  0.01470  0.40047  0.20636  1.0000
  H   H163      1.0  0.05864  0.27694  0.43272  1.0000
  H   H164      1.0  0.11345  0.07827  0.34863  1.0000
  H   H165      1.0  0.02481  0.28222  0.38485  1.0000
  H   H166      1.0  0.12474  0.09505  0.35509  1.0000
  H   H167      1.0  0.01492  0.29832  0.38013  1.0000
  H   H168      1.0  0.00450  0.25028  0.38000  1.0000
  H   H169      1.0  0.03261  0.34833  0.36735  1.0000
  H   H170      1.0  0.09032  0.01358  0.42031  1.0000
  C   C105      1.0  0.02549  0.29444  0.35500  1.0000
  H   H171      1.0  0.99414  0.39482  0.31619  1.0000
  C   C106      1.0  0.12888  0.08567  0.35159  1.0000
  H   H172      1.0  0.07853  0.45041  0.21347  1.0000
  H   H173      1.0  0.07437  0.22318  0.44556  1.0000
  H   H174      1.0  0.02296  0.32904  0.44483  1.0000
  C   C107      1.0  0.01247  0.38930  0.39437  1.0000
  H   H175      1.0  0.02556  0.42991  0.04611  1.0000
  H   H176      1.0  0.01010  0.39798  0.38624  1.0000
  C   C108      1.0  0.14388  0.99741  0.46657  1.0000
  C   C109      1.0  0.17745  0.43813  0.01397  1.0000
  H   H177      1.0  0.08837  0.30156  0.47036  1.0000
  H   H178      1.0  0.00355  0.10231  0.42934  1.0000
  C   C110      1.0  0.00710  0.26894  0.38197  1.0000
  H   H179      1.0  0.01737  0.30267  0.35184  1.0000
  H   H180      1.0  0.03053  0.29757  0.36096  1.0000
  H   H181      1.0  0.03299  0.29254  0.34581  1.0000
  C   C111      1.0  0.01452  0.28764  0.38412  1.0000
  C   C112      1.0  0.99076  0.33764  0.41404  1.0000
  H   H182      1.0  0.01182  0.42027  0.15253  1.0000
  H   H183      1.0  0.99555  0.10816  0.41611  1.0000
  C   C113      1.0  0.07694  0.47899  0.12786  1.0000
  H   H184      1.0  0.02921  0.39568  0.29611  1.0000
  C   C114      1.0  0.02809  0.35438  0.47415  1.0000
  H   H185      1.0  0.00147  0.40777  0.06521  1.0000
  H   H186      1.0  0.00755  0.29082  0.43962  1.0000
  H   H187      1.0  0.02694  0.32284  0.46105  1.0000
  C   C115      1.0  0.02721  0.29701  0.47361  1.0000
  C   C116      1.0  0.11908  0.01083  0.47852  1.0000
  C   C117      1.0  0.99523  0.32556  0.39666  1.0000
  H   H188      1.0  0.00943  0.16146  0.37916  1.0000
  H   H189      1.0  0.10479  0.99376  0.42592  1.0000
  H   H190      1.0  0.04274  0.11799  0.47960  1.0000
  H   H191      1.0  0.02195  0.39118  0.09377  1.0000
  C   C118      1.0  0.07288  0.08103  0.44896  1.0000
  H   H192      1.0  0.11330  0.06437  0.39013  1.0000
  H   H193      1.0  0.00891  0.35699  0.37384  1.0000
  C   C119      1.0  0.00781  0.31962  0.46038  1.0000
  H   H194      1.0  0.01289  0.17909  0.41409  1.0000
  H   H195      1.0  0.17816  0.01192  0.47585  1.0000
  N   N4        1.0  0.11093  0.07512  0.37017  1.0000
  H   H196      1.0  0.02366  0.40924  0.04361  1.0000
  H   H197      1.0  0.04186  0.14512  0.45014  1.0000
  H   H198      1.0  0.05971  0.40995  0.04342  1.0000
  C   C120      1.0  0.99380  0.41251  0.23853  1.0000
  H   H199      1.0  0.99834  0.38053  0.20040  1.0000
  H   H200      1.0  0.06305  0.21881  0.43255  1.0000
  C   C121      1.0  0.08198  0.20999  0.42209  1.0000
  C   C122      1.0  0.04567  0.48019  0.23373  1.0000
  H   H201      1.0  0.01669  0.29974  0.42500  1.0000
  H   H202      1.0  0.01623  0.37926  0.21144  1.0000
  N   N5        1.0  0.99308  0.17748  0.37331  1.0000
  H   H203      1.0  0.06089  0.25577  0.45588  1.0000
  N   N6        1.0  0.10090  0.44320  0.06722  1.0000
  C   C123      1.0  0.09656  0.45679  0.04389  1.0000
  H   H204      1.0  0.05988  0.19763  0.46713  1.0000
  H   H205      1.0  0.10452  0.43607  0.04921  1.0000
  H   H206      1.0  0.10822  0.09573  0.37145  1.0000
  H   H207      1.0  0.12747  0.45937  0.05820  1.0000
  H   H208      1.0  0.99441  0.07708  0.46219  1.0000
  H   H209      1.0  0.11315  0.46550  0.05140  1.0000
  H   H210      1.0  0.10641  0.45742  0.03721  1.0000
  H   H211      1.0  0.09243  0.46571  0.04815  1.0000
  H   H212      1.0  0.08969  0.45725  0.03766  1.0000
  C   C124      1.0  0.07076  0.28544  0.47650  1.0000
  H   H213      1.0  0.01415  0.20278  0.40726  1.0000
  C   C125      1.0  0.04428  0.11735  0.46938  1.0000
  H   H214      1.0  0.99025  0.41528  0.14094  1.0000
  H   H215      1.0  0.07695  0.00202  0.45096  1.0000
  H   H216      1.0  0.04247  0.14328  0.43358  1.0000
  H   H217      1.0  0.09653  0.08735  0.38285  1.0000
  H   H218      1.0  0.04755  0.42501  0.04167  1.0000
  C   C126      1.0  0.11672  0.45964  0.06049  1.0000
  H   H219      1.0  0.09387  0.00902  0.38201  1.0000
  H   H220      1.0  0.07755  0.47264  0.12097  1.0000
  H   H221      1.0  0.07654  0.18089  0.46940  1.0000
  C   C127      1.0  0.99605  0.37195  0.39187  1.0000
  H   H222      1.0  0.02161  0.48042  0.29874  1.0000
  C   C128      1.0  0.00699  0.21211  0.40681  1.0000
  C   C129      1.0  0.11945  0.07601  0.35625  1.0000
  H   H223      1.0  0.09743  0.09665  0.35250  1.0000
  C   C130      1.0  0.09685  0.28271  0.41252  1.0000
  C   C131      1.0  0.16236  0.47215  0.99006  1.0000
  C   C132      1.0  0.08516  0.18221  0.46103  1.0000
  C   C133      1.0  0.99461  0.40188  0.19390  1.0000
  H   H224      1.0  0.00521  0.40047  0.05128  1.0000
  C   C134      1.0  0.04752  0.21379  0.45617  1.0000
  C   C135      1.0  0.08828  0.25925  0.43396  1.0000
  H   H225      1.0  0.09407  0.45255  0.08412  1.0000
  H   H226      1.0  0.09591  0.30344  0.42318  1.0000
  H   H227      1.0  0.01863  0.39119  0.35054  1.0000
  H   H228      1.0  0.99163  0.41228  0.29709  1.0000
  N   N7        1.0  0.03829  0.39609  0.16376  1.0000
  C   C136      1.0  0.04100  0.40355  0.17244  1.0000
  C   C137      1.0  0.03060  0.40626  0.15415  1.0000
  C   C138      1.0  0.05144  0.38949  0.15622  1.0000
  C   C139      1.0  0.03069  0.38590  0.17279  1.0000
  C   C140      1.0  0.05035  0.39547  0.18190  1.0000
  C   C141      1.0  0.01690  0.41381  0.16054  1.0000
  C   C142      1.0  0.05146  0.38478  0.14384  1.0000
  N   N8        1.0  0.00976  0.28254  0.37486  1.0000
  H   H229      1.0  0.04534  0.41212  0.16618  1.0000
  H   H230      1.0  0.03171  0.40789  0.17895  1.0000
  H   H231      1.0  0.02890  0.40190  0.14670  1.0000
  H   H232      1.0  0.03645  0.41378  0.14799  1.0000
  H   H233      1.0  0.05834  0.39639  0.15258  1.0000
  C   C143      1.0  0.07500  0.21321  0.46572  1.0000
  H   H234      1.0  0.03700  0.37802  0.17901  1.0000
  H   H235      1.0  0.02259  0.39043  0.18025  1.0000
  H   H236      1.0  0.05118  0.40211  0.18781  1.0000
  H   H237      1.0  0.04644  0.38710  0.18922  1.0000
  H   H238      1.0  0.06051  0.39185  0.17637  1.0000
  H   H239      1.0  0.07048  0.99551  0.42789  1.0000
  C   C144      1.0  0.17968  0.03511  0.44592  1.0000
  H   H240      1.0  0.01767  0.42048  0.16643  1.0000
  H   H241      1.0  0.04861  0.39323  0.13566  1.0000
  C   C145      1.0  0.08081  0.99644  0.42649  1.0000
  C   C146      1.0  0.12423  0.47458  0.01779  1.0000
  C   C147      1.0  0.03895  0.46830  0.11441  1.0000
  H   H242      1.0  0.10685  0.09441  0.44371  1.0000
  N   N9        1.0  0.09155  0.07540  0.46206  1.0000
  C   C148      1.0  0.10041  0.08293  0.46423  1.0000
  H   H243      1.0  0.07445  0.47232  0.17105  1.0000
  C   C149      1.0  0.08584  0.08357  0.45013  1.0000
  C   C150      1.0  0.09991  0.06214  0.45945  1.0000
  C   C151      1.0  0.11116  0.08728  0.45196  1.0000
  H   H244      1.0  0.01947  0.30336  0.47976  1.0000
  H   H245      1.0  0.99083  0.38154  0.39486  1.0000
  H   H246      1.0  0.13100  0.08456  0.37599  1.0000
  H   H247      1.0  0.09443  0.09213  0.46774  1.0000
  H   H248      1.0  0.10573  0.07691  0.47224  1.0000
  N   N10       1.0  0.05954  0.47860  0.22513  1.0000
  C   C152      1.0  0.98719  0.12159  0.39171  1.0000
  H   H249      1.0  0.08366  0.09436  0.45006  1.0000
  H   H250      1.0  0.09318  0.08232  0.44065  1.0000
  C   C153      1.0  0.07827  0.45980  0.21614  1.0000
  C   C154      1.0  0.08760  0.30181  0.48088  1.0000
  H   H251      1.0  0.07044  0.46016  0.08354  1.0000
  H   H252      1.0  0.11701  0.09254  0.45496  1.0000
  H   H253      1.0  0.99669  0.47808  0.09799  1.0000
  H   H254      1.0  0.11872  0.98418  0.44289  1.0000
  C   C155      1.0  0.04109  0.25986  0.46766  1.0000
  H   H255      1.0  0.99777  0.38848  0.10791  1.0000
  C   C156      1.0  0.02770  0.39356  0.08334  1.0000
  H   H256      1.0  0.00250  0.46853  0.14437  1.0000
  C   C157      1.0  0.08991  0.48398  0.12358  1.0000
  H   H257      1.0  0.99192  0.46899  0.27130  1.0000
  H   H258      1.0  0.00464  0.44289  0.05628  1.0000
  H   H259      1.0  0.05544  0.27549  0.41798  1.0000
  H   H260      1.0  0.02822  0.28655  0.47946  1.0000
  H   H261      1.0  0.09860  0.04175  0.46151  1.0000
  H   H262      1.0  0.98672  0.11287  0.44473  1.0000
  H   H263      1.0  0.07447  0.27553  0.44202  1.0000
  N   N11       1.0  0.01150  0.30613  0.45692  1.0000
  C   C158      1.0  0.01231  0.30869  0.44207  1.0000
  H   H264      1.0  0.06776  0.29800  0.43125  1.0000
  H   H265      1.0  0.05948  0.46828  0.11162  1.0000
  H   H266      1.0  0.03289  0.30189  0.45208  1.0000
  H   H267      1.0  0.17264  0.05129  0.45763  1.0000
  H   H268      1.0  0.13087  0.08883  0.34052  1.0000
  H   H269      1.0  0.98988  0.41370  0.24897  1.0000
  H   H270      1.0  0.16899  0.01619  0.44385  1.0000
  H   H271      1.0  0.00413  0.40663  0.23741  1.0000
  H   H272      1.0  0.07485  0.08412  0.47601  1.0000
  H   H273      1.0  0.07555  0.01650  0.41477  1.0000
  H   H274      1.0  0.07269  0.45328  0.06948  1.0000
  C   C159      1.0  0.07040  0.48164  0.15102  1.0000
  H   H275      1.0  0.16770  0.05548  0.44183  1.0000
  C   C160      1.0  0.01561  0.29633  0.43601  1.0000
  H   H276      1.0  0.99424  0.42260  0.23214  1.0000
  H   H277      1.0  0.16575  0.41099  0.99743  1.0000
  C   C161      1.0  0.14220  0.00090  0.47871  1.0000
  C   C162      1.0  0.02199  0.40802  0.07668  1.0000
  C   C163      1.0  0.99656  0.09984  0.42496  1.0000
  H   H278      1.0  0.01763  0.19035  0.42856  1.0000
  C   C164      1.0  0.05887  0.11469  0.44807  1.0000
  H   H279      1.0  0.00258  0.17759  0.43075  1.0000
  H   H280      1.0  0.07529  0.30495  0.41480  1.0000
  N   N12       1.0  0.17397  0.02494  0.45737  1.0000
  H   H281      1.0  0.04411  0.26187  0.47559  1.0000
  H   H282      1.0  0.01294  0.17031  0.36275  1.0000
  C   C165      1.0  0.10235  0.08843  0.37239  1.0000
  N   N13       1.0  0.00995  0.41898  0.29241  1.0000
  C   C166      1.0  0.01526  0.41969  0.27761  1.0000
  C   C167      1.0  0.02160  0.41646  0.29865  1.0000
  C   C168      1.0  0.99076  0.28939  0.36208  1.0000
  C   C169      1.0  0.08030  0.01150  0.42340  1.0000
  H   H283      1.0  0.00576  0.17737  0.46460  1.0000
  C   C170      1.0  0.03291  0.40454  0.29547  1.0000
  H   H284      1.0  0.00705  0.35716  0.47673  1.0000
  H   H285      1.0  0.00071  0.17130  0.45316  1.0000
  H   H286      1.0  0.02219  0.42653  0.27339  1.0000
  H   H287      1.0  0.02120  0.40983  0.27571  1.0000
  H   H288      1.0  0.02567  0.43230  0.06189  1.0000
  H   H289      1.0  0.02605  0.42536  0.29539  1.0000
  H   H290      1.0  0.98959  0.36494  0.25366  1.0000
  H   H291      1.0  0.99691  0.41843  0.27313  1.0000
  H   H292      1.0  0.16923  0.00586  0.46002  1.0000
  H   H293      1.0  0.07842  0.27134  0.41105  1.0000
  C   C171      1.0  0.02070  0.28152  0.36255  1.0000
  H   H294      1.0  0.04496  0.41376  0.06540  1.0000
  H   H295      1.0  0.00599  0.18687  0.44835  1.0000
  H   H296      1.0  0.03918  0.40725  0.28534  1.0000
  H   H297      1.0  0.03940  0.40178  0.30270  1.0000
  H   H298      1.0  0.00249  0.43180  0.31465  1.0000
  H   H299      1.0  0.05761  0.45943  0.22352  1.0000
  H   H300      1.0  0.11548  0.04961  0.36276  1.0000
  C   C172      1.0  0.11142  0.41784  0.07171  1.0000
  H   H301      1.0  0.13168  0.07274  0.39143  1.0000
  N   N14       1.0  0.02855  0.17026  0.43558  1.0000
  H   H302      1.0  0.04574  0.41056  0.03720  1.0000
  H   H303      1.0  0.04018  0.45781  0.11900  1.0000
  C   C173      1.0  0.03335  0.25437  0.44727  1.0000
  C   C174      1.0  0.99748  0.42907  0.34880  1.0000
  C   C175      1.0  0.99384  0.10908  0.38904  1.0000
  H   H304      1.0  0.17232  0.06031  0.41173  1.0000
  C   C176      1.0  0.05703  0.11547  0.46133  1.0000
  H   H305      1.0  0.10926  0.29921  0.47729  1.0000
  C   C177      1.0  0.00753  0.25942  0.37330  1.0000
  C   C178      1.0  0.00365  0.08731  0.41930  1.0000
  C   C179      1.0  0.02218  0.16867  0.45026  1.0000
  H   H306      1.0  0.98758  0.42801  0.31351  1.0000
  H   H307      1.0  0.01743  0.18797  0.36573  1.0000
  C   C180      1.0  0.99593  0.38387  0.24297  1.0000
  H   H308      1.0  0.01196  0.14056  0.48167  1.0000
  H   H309      1.0  0.04610  0.39835  0.06164  1.0000
  C   C181      1.0  0.00647  0.38409  0.37007  1.0000
  C   C182      1.0  0.09662  0.98776  0.38868  1.0000
  H   H310      1.0  0.13959  0.45716  0.02197  1.0000
  H   H311      1.0  0.01860  0.41497  0.30969  1.0000
  C   C183      1.0  0.09278  0.05199  0.45841  1.0000
  H   H312      1.0  0.08177  0.25629  0.42952  1.0000
  C   C184      1.0  0.02878  0.35887  0.36826  1.0000
  H   H313      1.0  0.07728  0.18312  0.44427  1.0000
  H   H314      1.0  0.01773  0.25612  0.36763  1.0000
  H   H315      1.0  0.08878  0.21066  0.44713  1.0000
  C   C185      1.0  0.00059  0.29870  0.46395  1.0000
  H   H316      1.0  0.00019  0.08757  0.41038  1.0000
  H   H317      1.0  0.00273  0.07787  0.42663  1.0000
  H   H318      1.0  0.01445  0.08690  0.41630  1.0000
  H   H319      1.0  0.09088  0.42684  0.07696  1.0000
  H   H320      1.0  0.03252  0.18526  0.41765  1.0000
  H   H321      1.0  0.99883  0.30261  0.36793  1.0000
  C   C186      1.0  0.03456  0.19252  0.43364  1.0000
  H   H322      1.0  0.13449  0.99794  0.45105  1.0000
  H   H323      1.0  0.00976  0.42220  0.25880  1.0000
  C   C187      1.0  0.11924  0.06917  0.38056  1.0000
  H   H324      1.0  0.05628  0.38065  0.16295  1.0000
  H   H325      1.0  0.05551  0.19339  0.45451  1.0000
  H   H326      1.0  0.04840  0.16551  0.42370  1.0000
  H   H327      1.0  0.08771  0.20016  0.42003  1.0000
  H   H328      1.0  0.98882  0.19450  0.38208  1.0000
  C   C188      1.0  0.00624  0.28660  0.39863  1.0000
  H   H329      1.0  0.02823  0.17094  0.45589  1.0000
  C   C189      1.0  0.04599  0.14823  0.43931  1.0000
  H   H330      1.0  0.02956  0.16050  0.41991  1.0000
  H   H331      1.0  0.02766  0.36480  0.35815  1.0000
  C   C190      1.0  0.17306  0.02787  0.41348  1.0000
  C   C191      1.0  0.02791  0.18463  0.42844  1.0000
  C   C192      1.0  0.09249  0.09527  0.36323  1.0000
  C   C193      1.0  0.00679  0.43186  0.05939  1.0000
  H   H332      1.0  0.99938  0.38541  0.25121  1.0000
  H   H333      1.0  0.00359  0.38635  0.23379  1.0000
  C   C194      1.0  0.02237  0.16361  0.42887  1.0000
  H   H334      1.0  0.08649  0.45793  0.22122  1.0000
  H   H335      1.0  0.02609  0.28762  0.45878  1.0000
  C   C195      1.0  0.17876  0.42539  0.02229  1.0000
  H   H336      1.0  0.00705  0.27614  0.40429  1.0000
  H   H337      1.0  0.09870  0.47576  0.12468  1.0000
  H   H338      1.0  0.08106  0.31332  0.43080  1.0000
  H   H339      1.0  0.10033  0.27289  0.40966  1.0000
  H   H340      1.0  0.06077  0.28365  0.47784  1.0000
  C   C196      1.0  0.07749  0.29761  0.42402  1.0000
  C   C197      1.0  0.06483  0.46394  0.22545  1.0000
  H   H341      1.0  0.09124  0.27581  0.43910  1.0000
  H   H342      1.0  0.06172  0.37975  0.13977  1.0000
  C   C198      1.0  0.06140  0.46639  0.14394  1.0000
  H   H343      1.0  0.04865  0.31248  0.48067  1.0000
  C   C199      1.0  0.09118  0.45324  0.07468  1.0000
  C   C200      1.0  0.07785  0.21275  0.45082  1.0000
  H   H344      1.0  0.05626  0.47210  0.20191  1.0000
  H   H345      1.0  0.00244  0.42835  0.05312  1.0000
  N   N15       1.0  0.07332  0.47190  0.14226  1.0000
  H   H346      1.0  0.02714  0.38625  0.07809  1.0000
  C   C201      1.0  0.98893  0.42219  0.09830  1.0000
  H   H347      1.0  0.11357  0.04646  0.38071  1.0000
  H   H348      1.0  0.99725  0.47178  0.30678  1.0000
  C   C202      1.0  0.18207  0.02002  0.46790  1.0000
  H   H349      1.0  0.05080  0.22303  0.45504  1.0000
  H   H350      1.0  0.00921  0.20178  0.37325  1.0000
  H   H351      1.0  0.11719  0.08551  0.39024  1.0000
  H   H352      1.0  0.99266  0.43474  0.28938  1.0000
  C   C203      1.0  0.09904  0.00015  0.38786  1.0000
  C   C204      1.0  0.05319  0.32094  0.47784  1.0000
  H   H353      1.0  0.02031  0.39099  0.39816  1.0000
  C   C205      1.0  0.14990  0.03402  0.45449  1.0000
  C   C206      1.0  0.07661  0.45207  0.07840  1.0000
  H   H354      1.0  0.00581  0.40024  0.29226  1.0000
  C   C207      1.0  0.13480  0.46701  0.02370  1.0000
  C   C208      1.0  0.15975  0.03016  0.46369  1.0000
  C   C209      1.0  0.04983  0.47424  0.11037  1.0000
  C   C210      1.0  0.10799  0.00118  0.39457  1.0000
  C   C211      1.0  0.06775  0.48390  0.23094  1.0000
  H   H355      1.0  0.03984  0.47447  0.23130  1.0000
  H   H356      1.0  0.08640  0.99293  0.41717  1.0000
  C   C212      1.0  0.17635  0.04983  0.41193  1.0000
  C   C213      1.0  0.00210  0.40820  0.29808  1.0000
  C   C214      1.0  0.11480  0.44520  0.06458  1.0000
  H   H357      1.0  0.08786  0.44050  0.05651  1.0000
  H   H358      1.0  0.00436  0.08615  0.44830  1.0000
  C   C215      1.0  0.10004  0.30619  0.48088  1.0000
  H   H359      1.0  0.99897  0.14963  0.46426  1.0000
  H   H360      1.0  0.00684  0.44040  0.28896  1.0000
  C   C216      1.0  0.07298  0.47410  0.34226  1.0000
  H   H361      1.0  0.00418  0.20057  0.35922  1.0000
  C   C217      1.0  0.00828  0.41279  0.19987  1.0000
  C   C218      1.0  0.05102  0.48201  0.20392  1.0000
  H   H362      1.0  0.10073  0.42933  0.08649  1.0000
  C   C219      1.0  0.00178  0.40088  0.31280  1.0000
  C   C220      1.0  0.10186  0.06597  0.37201  1.0000
  H   H363      1.0  0.08703  0.48021  0.21651  1.0000
  N   N16       1.0  0.02685  0.41188  0.06175  1.0000
  H   H364      1.0  0.11213  0.46494  0.06877  1.0000
  H   H365      1.0  0.01195  0.46978  0.24798  1.0000
  H   H366      1.0  0.17659  0.03522  0.43687  1.0000
  H   H367      1.0  0.18415  0.05454  0.44223  1.0000
  H   H368      1.0  0.06700  0.99167  0.45118  1.0000
  H   H369      1.0  0.18261  0.41853  0.99899  1.0000
  C   C221      1.0  0.08137  0.18979  0.44761  1.0000
  C   C222      1.0  0.17531  0.40466  0.99346  1.0000
  H   H370      1.0  0.09627  0.06926  0.36392  1.0000
  H   H371      1.0  0.12130  0.41851  0.07229  1.0000
  H   H372      1.0  0.04060  0.47159  0.14356  1.0000
  H   H373      1.0  0.13845  0.08075  0.35461  1.0000
  H   H374      1.0  0.14778  0.46657  0.03600  1.0000
  H   H375      1.0  0.99318  0.14939  0.44268  1.0000
  C   C223      1.0  0.06513  0.34261  0.47061  1.0000
  C   C224      1.0  0.17437  0.01310  0.45210  1.0000
  C   C225      1.0  0.02186  0.42664  0.05705  1.0000
  H   H376      1.0  0.11893  0.44065  0.07371  1.0000
  C   C226      1.0  0.02786  0.25985  0.46895  1.0000
  H   H377      1.0  0.15342  0.04032  0.44464  1.0000
  H   H378      1.0  0.05990  0.45882  0.15341  1.0000
  H   H379      1.0  0.09303  0.46440  0.14619  1.0000
  H   H380      1.0  0.12765  0.06110  0.37737  1.0000
  H   H381      1.0  0.98980  0.23166  0.43885  1.0000
  H   H382      1.0  0.99242  0.45662  0.10898  1.0000
  H   H383      1.0  0.07511  0.44257  0.08549  1.0000
  H   H384      1.0  0.15319  0.46910  0.99659  1.0000
  H   H385      1.0  0.12150  0.43996  0.05671  1.0000
  N   N17       1.0  0.07197  0.20321  0.44740  1.0000
  H   H386      1.0  0.10940  0.40837  0.07858  1.0000
  H   H387      1.0  0.01134  0.39393  0.31404  1.0000
  C   C227      1.0  0.10851  0.05115  0.37230  1.0000
  H   H388      1.0  0.08751  0.10531  0.36524  1.0000
  S   S65       1.0  0.11017  0.01725  0.39331  1.0000
  C   C228      1.0  0.02296  0.40402  0.05430  1.0000
  H   H389      1.0  0.00052  0.43492  0.26756  1.0000
  C   C229      1.0  0.99751  0.18691  0.37842  1.0000
  H   H390      1.0  0.16562  0.47951  0.01192  1.0000
  C   C230      1.0  0.99708  0.36880  0.24512  1.0000
  C   C231      1.0  0.13947  0.47236  0.03160  1.0000
  H   H391      1.0  0.06456  0.21800  0.46941  1.0000
  H   H392      1.0  0.10075  0.04556  0.37387  1.0000
  C   C232      1.0  0.09732  0.44361  0.05445  1.0000
  H   H393      1.0  0.07440  0.01617  0.43186  1.0000
  H   H394      1.0  0.09125  0.46358  0.06900  1.0000
  H   H395      1.0  0.11181  0.41694  0.06154  1.0000
  H   H396      1.0  0.09877  0.00007  0.44051  1.0000
  C   C233      1.0  0.02656  0.47585  0.11232  1.0000
  H   H397      1.0  0.03645  0.36156  0.37136  1.0000
  C   C234      1.0  0.08064  0.07406  0.47447  1.0000
  C   C235      1.0  0.12506  0.07872  0.38456  1.0000
  C   C236      1.0  0.99701  0.29563  0.47936  1.0000
  H   H398      1.0  0.98985  0.44460  0.30841  1.0000
  C   C237      1.0  0.01824  0.39031  0.36125  1.0000
  H   H399      1.0  0.08965  0.98717  0.38342  1.0000
  C   C238      1.0  0.00765  0.19463  0.36838  1.0000
  H   H400      1.0  0.01016  0.14617  0.36727  1.0000
  H   H401      1.0  0.99654  0.36628  0.23592  1.0000
  H   H402      1.0  0.99767  0.36460  0.40130  1.0000
  C   C239      1.0  0.99545  0.40970  0.10449  1.0000
  C   C240      1.0  0.04889  0.41402  0.04442  1.0000
  H   H403      1.0  0.16966  0.46844  0.99645  1.0000
  H   H404      1.0  0.00430  0.31907  0.47122  1.0000
  H   H405      1.0  0.16850  0.44273  0.01032  1.0000
  H   H406      1.0  0.16033  0.98816  0.41542  1.0000
  H   H407      1.0  0.04066  0.48192  0.20935  1.0000
  H   H408      1.0  0.01785  0.47346  0.15436  1.0000
  H   H409      1.0  0.00609  0.47371  0.16977  1.0000
  H   H410      1.0  0.17323  0.03577  0.47954  1.0000
  H   H411      1.0  0.15617  0.02265  0.47256  1.0000
  H   H412      1.0  0.00216  0.18152  0.38709  1.0000
  H   H413      1.0  0.99139  0.09462  0.46005  1.0000
  C   C241      1.0  0.09997  0.99109  0.43662  1.0000
  H   H414      1.0  0.00678  0.42672  0.35181  1.0000
  H   H415      1.0  0.04765  0.48277  0.25284  1.0000
  H   H416      1.0  0.99383  0.22651  0.45854  1.0000
  C   C242      1.0  0.99432  0.21280  0.40546  1.0000
  C   C243      1.0  0.04177  0.40921  0.05900  1.0000
  H   H417      1.0  0.15338  0.99201  0.46203  1.0000
  C   C244      1.0  0.99953  0.46867  0.15516  1.0000
  H   H418      1.0  0.08111  0.21942  0.46687  1.0000
  C   C245      1.0  0.00119  0.38951  0.20016  1.0000
  C   C246      1.0  0.17561  0.04977  0.44732  1.0000
  C   C247      1.0  0.00124  0.43239  0.29410  1.0000
  H   H419      1.0  0.98798  0.13017  0.45662  1.0000
  H   H420      1.0  0.12213  0.99020  0.40669  1.0000
  H   H421      1.0  0.03008  0.39423  0.05428  1.0000
  H   H422      1.0  0.09811  0.27859  0.47467  1.0000
  H   H423      1.0  0.01466  0.26340  0.38797  1.0000
  H   H424      1.0  0.05039  0.46557  0.25202  1.0000
  H   H425      1.0  0.02511  0.28952  0.43771  1.0000
  H   H426      1.0  0.00200  0.45817  0.16068  1.0000
  C   C248      1.0  0.00910  0.40068  0.05978  1.0000
  H   H427      1.0  0.07062  0.08688  0.43917  1.0000
  H   H428      1.0  0.98899  0.35730  0.38615  1.0000
  H   H429      1.0  0.01062  0.48165  0.28882  1.0000
  H   H430      1.0  0.00977  0.39048  0.06619  1.0000
  H   H431      1.0  0.99920  0.40770  0.31964  1.0000
  H   H432      1.0  0.99597  0.47663  0.35956  1.0000
  C   C249      1.0  0.99420  0.08656  0.45452  1.0000
  H   H433      1.0  0.99736  0.26979  0.38922  1.0000
  C   C250      1.0  0.99828  0.41348  0.19358  1.0000
  C   C251      1.0  0.07743  0.99156  0.45082  1.0000
  H   H434      1.0  0.07072  0.47654  0.23986  1.0000
  C   C252      1.0  0.99260  0.41889  0.34736  1.0000
  C   C253      1.0  0.99052  0.44230  0.34607  1.0000
  H   H435      1.0  0.10024  0.31604  0.47390  1.0000
  H   H436      1.0  0.00264  0.38040  0.36345  1.0000
  C   C254      1.0  0.00718  0.47692  0.15871  1.0000
  N   N18       1.0  0.08669  0.98801  0.43824  1.0000
  H   H437      1.0  0.08826  0.98704  0.46669  1.0000
  C   C255      1.0  0.98818  0.18517  0.36078  1.0000
  H   H438      1.0  0.99592  0.47287  0.37681  1.0000
  H   H439      1.0  0.99401  0.15816  0.39750  1.0000
  H   H440      1.0  0.98971  0.21412  0.47297  1.0000
  C   C256      1.0  0.99288  0.39816  0.10304  1.0000
  H   H441      1.0  0.99485  0.47094  0.08598  1.0000
  S   S66       1.0  0.98956  0.19804  0.40706  1.0000
  H   H442      1.0  0.99280  0.39143  0.14609  1.0000
  C   C257      1.0  0.00264  0.15545  0.36493  1.0000
  C   C258      1.0  0.98939  0.47600  0.36959  1.0000
  H   H443      1.0  0.98868  0.47217  0.15815  1.0000
  H   H444      1.0  0.98954  0.29286  0.38100  1.0000
  H   H445      1.0  0.00361  0.15851  0.35394  1.0000
  H   H446      1.0  0.99123  0.21114  0.43271  1.0000
  C   C259      1.0  0.98841  0.39676  0.15438  1.0000
  C   C260      1.0  0.98843  0.23630  0.40566  1.0000
  H   H447      1.0  0.99076  0.43115  0.09948  1.0000
  H   H448      1.0  0.17631  0.98516  0.41775  1.0000
  H   H449      1.0  0.09644  0.48340  0.31782  1.0000
  H   H450      1.0  0.03146  0.18429  0.47959  1.0000
  C   C261      1.0  0.98914  0.47549  0.09466  1.0000
  H   H451      1.0  0.99197  0.11171  0.47162  1.0000
  H   H452      1.0  0.98923  0.47515  0.28596  1.0000
  H   H453      1.0  0.18565  0.98520  0.39642  1.0000
  H   H454      1.0  0.04298  0.48342  0.33403  1.0000
  H   H455      1.0  0.01724  0.17794  0.48178  1.0000
  C   C262      1.0  0.18660  0.02269  0.41294  1.0000
  H   H456      1.0  0.17574  0.40650  0.98268  1.0000
  H   H457      1.0  0.16862  0.45341  0.98380  1.0000
  C   C263      1.0  0.99058  0.11365  0.48161  1.0000
  H   H458      1.0  0.01172  0.36720  0.48419  1.0000
  H   H459      1.0  0.10607  0.27853  0.48706  1.0000
  H   H460      1.0  0.08952  0.45764  0.71058  1.0000
  C   C264      1.0  0.99854  0.20411  0.55630  1.0000
  H   H461      1.0  0.09121  0.01434  0.58835  1.0000
  Fe  Fe33      1.0  0.06410  0.41207  0.83176  1.0000
  S   S67       1.0  0.04628  0.42765  0.83766  1.0000
  S   S68       1.0  0.08165  0.40490  0.84172  1.0000
  Fe  Fe34      1.0  0.05328  0.40874  0.80960  1.0000
  S   S69       1.0  0.03485  0.42441  0.81345  1.0000
  S   S70       1.0  0.05499  0.39794  0.79371  1.0000
  Fe  Fe35      1.0  0.04840  0.43566  0.81560  1.0000
  S   S71       1.0  0.04521  0.45754  0.80729  1.0000
  Fe  Fe36      1.0  0.03433  0.41503  0.83499  1.0000
  S   S72       1.0  0.01559  0.41249  0.85031  1.0000
  S   S73       1.0  0.06704  0.42099  0.80968  1.0000
  S   S74       1.0  0.05188  0.39833  0.83122  1.0000
  S   S75       1.0  0.13605  0.44230  0.89917  1.0000
  Fe  Fe37      1.0  0.10866  0.43099  0.89028  1.0000
  S   S76       1.0  0.10603  0.45125  0.89409  1.0000
  S   S77       1.0  0.08988  0.43020  0.88502  1.0000
  Fe  Fe38      1.0  0.12642  0.45074  0.88166  1.0000
  S   S78       1.0  0.13130  0.46846  0.86581  1.0000
  Fe  Fe39      1.0  0.11575  0.44085  0.91134  1.0000
  S   S79       1.0  0.10824  0.44778  0.93074  1.0000
  S   S80       1.0  0.12875  0.43123  0.87665  1.0000
  Fe  Fe40      1.0  0.15136  0.00289  0.50569  1.0000
  S   S81       1.0  0.01697  0.26043  0.48438  1.0000
  H   H462      1.0  0.02498  0.37422  0.67758  1.0000
  H   H463      1.0  0.02091  0.31525  0.54608  1.0000
  Fe  Fe41      1.0  0.06325  0.09336  0.51625  1.0000
  S   S82       1.0  0.07600  0.10782  0.50425  1.0000
  S   S83       1.0  0.07178  0.07134  0.52353  1.0000
  C   C265      1.0  0.06115  0.33683  0.48419  1.0000
  H   H464      1.0  0.98694  0.10518  0.48911  1.0000
  Fe  Fe42      1.0  0.06039  0.12299  0.51442  1.0000
  S   S84       1.0  0.06332  0.13845  0.52338  1.0000
  S   S85       1.0  0.05071  0.09763  0.50126  1.0000
  S   S86       1.0  0.04863  0.10805  0.52786  1.0000
  H   H465      1.0  0.00104  0.44418  0.72354  1.0000
  C   C266      1.0  0.04166  0.48272  0.83031  1.0000
  H   H466      1.0  0.10002  0.30752  0.49081  1.0000
  H   H467      1.0  0.98864  0.29050  0.48282  1.0000
  Fe  Fe43      1.0  0.02612  0.22838  0.52682  1.0000
  S   S87       1.0  0.04752  0.21789  0.52312  1.0000
  Fe  Fe44      1.0  0.02801  0.24497  0.49881  1.0000
  S   S88       1.0  0.04951  0.23574  0.49259  1.0000
  C   C267      1.0  0.13617  0.48327  0.89431  1.0000
  Fe  Fe45      1.0  0.04411  0.21626  0.50390  1.0000
  S   S89       1.0  0.05049  0.19913  0.49336  1.0000
  Fe  Fe46      1.0  0.05082  0.23837  0.51221  1.0000
  S   S90       1.0  0.06777  0.24623  0.51308  1.0000
  S   S91       1.0  0.02245  0.22534  0.50838  1.0000
  S   S92       1.0  0.02967  0.24895  0.51765  1.0000
  Fe  Fe47      1.0  0.05400  0.31094  0.54054  1.0000
  S   S93       1.0  0.04214  0.32260  0.52528  1.0000
  S   S94       1.0  0.05873  0.28858  0.54747  1.0000
  Fe  Fe48      1.0  0.05719  0.33591  0.54698  1.0000
  S   S95       1.0  0.04586  0.34972  0.53187  1.0000
  S   S96       1.0  0.06363  0.34082  0.56320  1.0000
  Fe  Fe49      1.0  0.03208  0.33579  0.53986  1.0000
  S   S97       1.0  0.01019  0.34328  0.54448  1.0000
  Fe  Fe50      1.0  0.05697  0.33540  0.51844  1.0000
  S   S98       1.0  0.06453  0.34294  0.49630  1.0000
  S   S99       1.0  0.04244  0.32293  0.55582  1.0000
  S   S100      1.0  0.06981  0.32280  0.53281  1.0000
  Fe  Fe51      1.0  0.02981  0.40876  0.61501  1.0000
  S   S101      1.0  0.04802  0.39267  0.61152  1.0000
  S   S102      1.0  0.01000  0.40461  0.62633  1.0000
  Fe  Fe52      1.0  0.04396  0.43104  0.60066  1.0000
  S   S103      1.0  0.06352  0.41708  0.59586  1.0000
  S   S104      1.0  0.04027  0.45331  0.59385  1.0000
  Fe  Fe53      1.0  0.05230  0.40506  0.59073  1.0000
  S   S105      1.0  0.05872  0.39860  0.57100  1.0000
  Fe  Fe54      1.0  0.05758  0.40590  0.61704  1.0000
  S   S106      1.0  0.07236  0.39646  0.63005  1.0000
  S   S107      1.0  0.03329  0.42009  0.59368  1.0000
  S   S108      1.0  0.03894  0.42088  0.62225  1.0000
  Fe  Fe55      1.0  0.05733  0.42483  0.69345  1.0000
  S   S109      1.0  0.03656  0.42504  0.69338  1.0000
  S   S110      1.0  0.07478  0.42110  0.67652  1.0000
  Fe  Fe56      1.0  0.04994  0.43121  0.72110  1.0000
  S   S111      1.0  0.02862  0.43190  0.72335  1.0000
  S   S112      1.0  0.05550  0.43719  0.73705  1.0000
  Fe  Fe57      1.0  0.03577  0.41383  0.71466  1.0000
  S   S113      1.0  0.02641  0.39629  0.72415  1.0000
  Fe  Fe58      1.0  0.03134  0.44309  0.70205  1.0000
  S   S114      1.0  0.01552  0.46104  0.69707  1.0000
  S   S115      1.0  0.05711  0.41203  0.71415  1.0000
  S   S116      1.0  0.05220  0.44397  0.70031  1.0000
  C   C268      1.0  0.98867  0.41672  0.82832  1.0000
  C   C269      1.0  0.99641  0.21838  0.53470  1.0000
  C   C270      1.0  0.01638  0.46442  0.85748  1.0000
  H   H468      1.0  0.18325  0.36929  0.96350  1.0000
  C   C271      1.0  0.13152  0.47661  0.88766  1.0000
  H   H469      1.0  0.98788  0.25968  0.54527  1.0000
  H   H470      1.0  0.01761  0.40434  0.78054  1.0000
  H   H471      1.0  0.06409  0.47331  0.72630  1.0000
  H   H472      1.0  0.16941  0.46360  0.83037  1.0000
  H   H473      1.0  0.03181  0.45485  0.76264  1.0000
  H   H474      1.0  0.01994  0.36781  0.57880  1.0000
  H   H475      1.0  0.02704  0.15155  0.53456  1.0000
  H   H476      1.0  0.11264  0.38976  0.59538  1.0000
  H   H477      1.0  0.18515  0.41390  0.94752  1.0000
  H   H478      1.0  0.06420  0.29520  0.49284  1.0000
  H   H479      1.0  0.10272  0.03944  0.57802  1.0000
  H   H480      1.0  0.12753  0.46406  0.92961  1.0000
  H   H481      1.0  0.12031  0.45569  0.84605  1.0000
  C   C272      1.0  0.01439  0.39545  0.71648  1.0000
  C   C273      1.0  0.00875  0.40652  0.70765  1.0000
  H   H482      1.0  0.99417  0.46762  0.64935  1.0000
  H   H483      1.0  0.98845  0.47559  0.59312  1.0000
  H   H484      1.0  0.02347  0.40384  0.68264  1.0000
  H   H485      1.0  0.02677  0.46608  0.54827  1.0000
  H   H486      1.0  0.18095  0.45393  0.88124  1.0000
  C   C274      1.0  0.15647  0.46580  0.92740  1.0000
  H   H487      1.0  0.18547  0.39589  0.91333  1.0000
  H   H488      1.0  0.01478  0.37487  0.72609  1.0000
  C   C275      1.0  0.01169  0.46915  0.71025  1.0000
  C   C276      1.0  0.02175  0.46933  0.71600  1.0000
  C   C277      1.0  0.01884  0.47591  0.72643  1.0000
  C   C278      1.0  0.01396  0.35688  0.48288  1.0000
  C   C279      1.0  0.00720  0.09937  0.51670  1.0000
  C   C280      1.0  0.99862  0.47516  0.71530  1.0000
  H   H489      1.0  0.03187  0.46468  0.71222  1.0000
  C   C281      1.0  0.16912  0.42269  0.90314  1.0000
  C   C282      1.0  0.15319  0.45593  0.92139  1.0000
  C   C283      1.0  0.17065  0.45836  0.88006  1.0000
  C   C284      1.0  0.04563  0.46097  0.60324  1.0000
  C   C285      1.0  0.05077  0.45359  0.61443  1.0000
  C   C286      1.0  0.05470  0.46002  0.62196  1.0000
  C   C287      1.0  0.05356  0.47384  0.61828  1.0000
  H   H490      1.0  0.00823  0.41782  0.75703  1.0000
  C   C288      1.0  0.04465  0.47473  0.59949  1.0000
  H   H491      1.0  0.05176  0.44293  0.61727  1.0000
  H   H492      1.0  0.05850  0.45429  0.63069  1.0000
  H   H493      1.0  0.00554  0.16538  0.49852  1.0000
  C   C289      1.0  0.99741  0.09224  0.51862  1.0000
  C   C290      1.0  0.07235  0.40374  0.64295  1.0000
  C   C291      1.0  0.06159  0.41329  0.64792  1.0000
  C   C292      1.0  0.06189  0.41829  0.65870  1.0000
  C   C293      1.0  0.07316  0.41407  0.66417  1.0000
  C   C294      1.0  0.08395  0.40480  0.65896  1.0000
  C   C295      1.0  0.08345  0.39949  0.64860  1.0000
  H   H494      1.0  0.05303  0.41675  0.64354  1.0000
  H   H495      1.0  0.05364  0.42568  0.66248  1.0000
  H   H496      1.0  0.09272  0.40161  0.66304  1.0000
  H   H497      1.0  0.09179  0.39214  0.64484  1.0000
  H   H498      1.0  0.01320  0.45373  0.63608  1.0000
  H   H499      1.0  0.13828  0.46070  0.96011  1.0000
  H   H500      1.0  0.16365  0.45172  0.95722  1.0000
  C   C296      1.0  0.99976  0.41260  0.61506  1.0000
  C   C297      1.0  0.00212  0.42445  0.60620  1.0000
  H   H501      1.0  0.03398  0.44826  0.85465  1.0000
  H   H502      1.0  0.02335  0.47111  0.75612  1.0000
  H   H503      1.0  0.01561  0.38891  0.60240  1.0000
  H   H504      1.0  0.00830  0.42979  0.60804  1.0000
  H   H505      1.0  0.01382  0.40307  0.58131  1.0000
  H   H506      1.0  0.99850  0.45547  0.60755  1.0000
  C   C298      1.0  0.04079  0.38673  0.65828  1.0000
  C   C299      1.0  0.09051  0.02514  0.58706  1.0000
  N   N19       1.0  0.01160  0.34697  0.49602  1.0000
  H   H507      1.0  0.08196  0.47562  0.87770  1.0000
  C   C300      1.0  0.06101  0.35716  0.56526  1.0000
  C   C301      1.0  0.05843  0.35935  0.57821  1.0000
  C   C302      1.0  0.05699  0.37216  0.58018  1.0000
  C   C303      1.0  0.05883  0.38271  0.56916  1.0000
  C   C304      1.0  0.06137  0.38054  0.55623  1.0000
  C   C305      1.0  0.06221  0.36786  0.55428  1.0000
  H   H508      1.0  0.05746  0.35110  0.58674  1.0000
  H   H509      1.0  0.05473  0.37376  0.59020  1.0000
  H   H510      1.0  0.06280  0.38866  0.54766  1.0000
  H   H511      1.0  0.06432  0.36625  0.54427  1.0000
  C   C306      1.0  0.00354  0.33068  0.54336  1.0000
  H   H512      1.0  0.16270  0.44244  0.94589  1.0000
  C   C307      1.0  0.06459  0.25827  0.52252  1.0000
  C   C308      1.0  0.05390  0.26931  0.52191  1.0000
  C   C309      1.0  0.05237  0.27922  0.52889  1.0000
  C   C310      1.0  0.06123  0.27777  0.53687  1.0000
  C   C311      1.0  0.07171  0.26663  0.53759  1.0000
  C   C312      1.0  0.07355  0.25710  0.53023  1.0000
  H   H513      1.0  0.04702  0.27033  0.51584  1.0000
  H   H514      1.0  0.04412  0.28773  0.52846  1.0000
  H   H515      1.0  0.07847  0.26537  0.54388  1.0000
  H   H516      1.0  0.08183  0.24863  0.53070  1.0000
  H   H517      1.0  0.11149  0.47579  0.71986  1.0000
  H   H518      1.0  0.03411  0.37969  0.69190  1.0000
  H   H519      1.0  0.00229  0.40869  0.67146  1.0000
  H   H520      1.0  0.16253  0.39624  0.92440  1.0000
  H   H521      1.0  0.01401  0.41444  0.80590  1.0000
  H   H522      1.0  0.02854  0.18350  0.50243  1.0000
  C   C313      1.0  0.06010  0.15529  0.51489  1.0000
  C   C314      1.0  0.05976  0.15884  0.50134  1.0000
  C   C315      1.0  0.05692  0.17232  0.49487  1.0000
  C   C316      1.0  0.05443  0.18237  0.50187  1.0000
  C   C317      1.0  0.05478  0.17887  0.51541  1.0000
  C   C318      1.0  0.05768  0.16535  0.52187  1.0000
  H   H523      1.0  0.06176  0.15117  0.49585  1.0000
  C   C319      1.0  0.99322  0.16111  0.51772  1.0000
  H   H524      1.0  0.05283  0.18654  0.52089  1.0000
  H   H525      1.0  0.11828  0.35228  0.58041  1.0000
  H   H526      1.0  0.04861  0.46366  0.76249  1.0000
  H   H527      1.0  0.10972  0.36550  0.59786  1.0000
  H   H528      1.0  0.06979  0.27786  0.49763  1.0000
  H   H529      1.0  0.08010  0.43827  0.76055  1.0000
  C   C320      1.0  0.99729  0.35044  0.50307  1.0000
  C   C321      1.0  0.11637  0.05387  0.51906  1.0000
  C   C322      1.0  0.11119  0.06728  0.51974  1.0000
  C   C323      1.0  0.09763  0.07293  0.52049  1.0000
  C   C324      1.0  0.08909  0.06516  0.52070  1.0000
  C   C325      1.0  0.09433  0.05185  0.51960  1.0000
  C   C326      1.0  0.10793  0.04625  0.51868  1.0000
  H   H530      1.0  0.11764  0.07328  0.51996  1.0000
  H   H531      1.0  0.09371  0.08317  0.52138  1.0000
  H   H532      1.0  0.08779  0.04580  0.51969  1.0000
  H   H533      1.0  0.11179  0.03598  0.51800  1.0000
  C   C327      1.0  0.06932  0.38202  0.87340  1.0000
  H   H534      1.0  0.01672  0.34099  0.51535  1.0000
  C   C328      1.0  0.01126  0.31776  0.54381  1.0000
  H   H535      1.0  0.00281  0.17264  0.53210  1.0000
  H   H536      1.0  0.03432  0.37239  0.65171  1.0000
  H   H537      1.0  0.05797  0.16266  0.53235  1.0000
  C   C329      1.0  0.99268  0.43257  0.74850  1.0000
  H   H538      1.0  0.00958  0.46638  0.60245  1.0000
  H   H539      1.0  0.15535  0.44815  0.85362  1.0000
  H   H540      1.0  0.11889  0.05064  0.55056  1.0000
  C   C330      1.0  0.11739  0.43906  0.94312  1.0000
  C   C331      1.0  0.12921  0.42977  0.94022  1.0000
  C   C332      1.0  0.13660  0.42329  0.95008  1.0000
  C   C333      1.0  0.13226  0.42606  0.96289  1.0000
  H   H541      1.0  0.01270  0.38772  0.68279  1.0000
  C   C334      1.0  0.11301  0.44179  0.95594  1.0000
  H   H542      1.0  0.13266  0.42755  0.93039  1.0000
  H   H543      1.0  0.14566  0.41607  0.94779  1.0000
  H   H544      1.0  0.02434  0.45539  0.79711  1.0000
  H   H545      1.0  0.10386  0.44893  0.95828  1.0000
  C   C335      1.0  0.07933  0.47350  0.85862  1.0000
  H   H546      1.0  0.01687  0.36837  0.50169  1.0000
  H   H547      1.0  0.98997  0.38026  0.81658  1.0000
  H   H548      1.0  0.98703  0.45203  0.63142  1.0000
  C   C336      1.0  0.08471  0.41336  0.85222  1.0000
  C   C337      1.0  0.07564  0.42450  0.85615  1.0000
  C   C338      1.0  0.07756  0.42980  0.86595  1.0000
  C   C339      1.0  0.08877  0.42432  0.87155  1.0000
  C   C340      1.0  0.09817  0.41364  0.86709  1.0000
  C   C341      1.0  0.09606  0.40811  0.85758  1.0000
  H   H549      1.0  0.06690  0.42870  0.85206  1.0000
  H   H550      1.0  0.07023  0.43807  0.86935  1.0000
  H   H551      1.0  0.10679  0.40929  0.87138  1.0000
  H   H552      1.0  0.10314  0.39952  0.85456  1.0000
  C   C342      1.0  0.05438  0.40888  0.77808  1.0000
  C   C343      1.0  0.05350  0.40435  0.76731  1.0000
  C   C344      1.0  0.05341  0.41304  0.75469  1.0000
  C   C345      1.0  0.05438  0.42620  0.75283  1.0000
  C   C346      1.0  0.05493  0.43071  0.76370  1.0000
  C   C347      1.0  0.05483  0.42215  0.77630  1.0000
  H   H553      1.0  0.05314  0.39407  0.76865  1.0000
  H   H554      1.0  0.05299  0.40946  0.74634  1.0000
  H   H555      1.0  0.05566  0.44081  0.76230  1.0000
  H   H556      1.0  0.05548  0.42574  0.78454  1.0000
  C   C348      1.0  0.04790  0.46466  0.81884  1.0000
  C   C349      1.0  0.05529  0.45685  0.82826  1.0000
  C   C350      1.0  0.05523  0.46169  0.83915  1.0000
  H   H557      1.0  0.99041  0.36219  0.56302  1.0000
  H   H558      1.0  0.01755  0.09445  0.51488  1.0000
  C   C351      1.0  0.17709  0.40845  0.95067  1.0000
  H   H559      1.0  0.06098  0.44702  0.82721  1.0000
  H   H560      1.0  0.06053  0.45544  0.84671  1.0000
  H   H561      1.0  0.11180  0.47673  0.84859  1.0000
  C   C352      1.0  0.02574  0.45143  0.86283  1.0000
  H   H562      1.0  0.06615  0.47315  0.87815  1.0000
  C   C353      1.0  0.05493  0.32613  0.48777  1.0000
  H   H563      1.0  0.01310  0.19162  0.49819  1.0000
  C   C354      1.0  0.00249  0.41075  0.84459  1.0000
  H   H564      1.0  0.16672  0.46181  0.92902  1.0000
  H   H565      1.0  0.03494  0.37294  0.57021  1.0000
  C   C355      1.0  0.01528  0.46676  0.56853  1.0000
  C   C356      1.0  0.01855  0.18275  0.52776  1.0000
  H   H566      1.0  0.99693  0.36359  0.51574  1.0000
  H   H567      1.0  0.10197  0.35082  0.58934  1.0000
  H   H568      1.0  0.07576  0.03650  0.56269  1.0000
  C   C357      1.0  0.01122  0.32187  0.50466  1.0000
  C   C358      1.0  0.00780  0.47688  0.77940  1.0000
  H   H569      1.0  0.99863  0.22682  0.52688  1.0000
  H   H570      1.0  0.07441  0.48410  0.85531  1.0000
  H   H571      1.0  0.01483  0.36748  0.55799  1.0000
  H   H572      1.0  0.05187  0.32155  0.49815  1.0000
  H   H573      1.0  0.08382  0.39837  0.57849  1.0000
  H   H574      1.0  0.01370  0.47979  0.83251  1.0000
  C   C359      1.0  0.99009  0.11911  0.51958  1.0000
  H   H575      1.0  0.02140  0.19194  0.52099  1.0000
  C   C360      1.0  0.04871  0.48112  0.60692  1.0000
  H   H576      1.0  0.00324  0.46574  0.66133  1.0000
  H   H577      1.0  0.98860  0.16488  0.52699  1.0000
  H   H578      1.0  0.02752  0.17471  0.52850  1.0000
  H   H579      1.0  0.02188  0.37412  0.59620  1.0000
  N   N20       1.0  0.02894  0.25728  0.56139  1.0000
  C   C361      1.0  0.03045  0.27006  0.56360  1.0000
  C   C362      1.0  0.02219  0.26103  0.54984  1.0000
  C   C363      1.0  0.04261  0.24868  0.55794  1.0000
  C   C364      1.0  0.02092  0.25054  0.57417  1.0000
  C   C365      1.0  0.03918  0.26851  0.57342  1.0000
  H   H580      1.0  0.99047  0.38678  0.55932  1.0000
  C   C366      1.0  0.04433  0.23811  0.54997  1.0000
  H   H581      1.0  0.18042  0.43188  0.97847  1.0000
  H   H582      1.0  0.03468  0.27636  0.55399  1.0000
  H   H583      1.0  0.02071  0.27624  0.56748  1.0000
  H   H584      1.0  0.02174  0.25219  0.54670  1.0000
  H   H585      1.0  0.02802  0.26673  0.54083  1.0000
  H   H586      1.0  0.04972  0.25496  0.55174  1.0000
  H   H587      1.0  0.04644  0.24342  0.56713  1.0000
  H   H588      1.0  0.02649  0.24732  0.58226  1.0000
  H   H589      1.0  0.01184  0.25758  0.57812  1.0000
  H   H590      1.0  0.03924  0.27858  0.57427  1.0000
  H   H591      1.0  0.03535  0.26303  0.58361  1.0000
  H   H592      1.0  0.04964  0.26376  0.56975  1.0000
  H   H593      1.0  0.09211  0.46796  0.82032  1.0000
  H   H594      1.0  0.08225  0.39276  0.60294  1.0000
  H   H595      1.0  0.99921  0.38207  0.57753  1.0000
  H   H596      1.0  0.04382  0.24286  0.53942  1.0000
  H   H597      1.0  0.03712  0.23166  0.55429  1.0000
  H   H598      1.0  0.05436  0.23155  0.54967  1.0000
  H   H599      1.0  0.07617  0.06512  0.49569  1.0000
  H   H600      1.0  0.01409  0.23868  0.56448  1.0000
  H   H601      1.0  0.06966  0.48303  0.90007  1.0000
  N   N21       1.0  0.09356  0.47067  0.85128  1.0000
  C   C367      1.0  0.09918  0.45590  0.85489  1.0000
  H   H602      1.0  0.00027  0.08181  0.51829  1.0000
  C   C368      1.0  0.00578  0.48186  0.73155  1.0000
  H   H603      1.0  0.99506  0.34288  0.51243  1.0000
  H   H604      1.0  0.00785  0.47668  0.80020  1.0000
  H   H605      1.0  0.09219  0.45004  0.85488  1.0000
  H   H606      1.0  0.00096  0.42796  0.72292  1.0000
  N   N22       1.0  0.08546  0.28876  0.49018  1.0000
  H   H607      1.0  0.99887  0.47302  0.78082  1.0000
  N   N23       1.0  0.17265  0.45078  0.85832  1.0000
  H   H608      1.0  0.00115  0.26345  0.56010  1.0000
  N   N24       1.0  0.01334  0.17209  0.51149  1.0000
  H   H609      1.0  0.99405  0.27111  0.50525  1.0000
  H   H610      1.0  0.08201  0.46399  0.91695  1.0000
  H   H611      1.0  0.17983  0.47587  0.89503  1.0000
  H   H612      1.0  0.05282  0.46781  0.77557  1.0000
  H   H613      1.0  0.01568  0.47364  0.62348  1.0000
  C   C369      1.0  0.13409  0.47832  0.93652  1.0000
  H   H614      1.0  0.03395  0.35968  0.50033  1.0000
  C   C370      1.0  0.02535  0.17733  0.48654  1.0000
  H   H615      1.0  0.01043  0.15143  0.53407  1.0000
  C   C371      1.0  0.06738  0.37626  0.86256  1.0000
  H   H616      1.0  0.07766  0.38717  0.86840  1.0000
  H   H617      1.0  0.07315  0.37340  0.88101  1.0000
  H   H618      1.0  0.06761  0.38470  0.90416  1.0000
  H   H619      1.0  0.07644  0.36874  0.85962  1.0000
  H   H620      1.0  0.05901  0.37126  0.86592  1.0000
  H   H621      1.0  0.11496  0.37494  0.58169  1.0000
  C   C372      1.0  0.07225  0.28677  0.48999  1.0000
  H   H622      1.0  0.01953  0.47943  0.58420  1.0000
  C   C373      1.0  0.17007  0.46492  0.85037  1.0000
  C   C374      1.0  0.00811  0.17880  0.52318  1.0000
  C   C375      1.0  0.12364  0.04050  0.55537  1.0000
  H   H623      1.0  0.99220  0.40897  0.73555  1.0000
  H   H624      1.0  0.07506  0.05238  0.55214  1.0000
  C   C376      1.0  0.01920  0.38430  0.67377  1.0000
  C   C377      1.0  0.01510  0.38406  0.59469  1.0000
  H   H625      1.0  0.06667  0.45535  0.74502  1.0000
  C   C378      1.0  0.02034  0.45417  0.78911  1.0000
  C   C379      1.0  0.16983  0.38657  0.92531  1.0000
  H   H626      1.0  0.03471  0.37908  0.81148  1.0000
  H   H627      1.0  0.09112  0.05624  0.48690  1.0000
  H   H628      1.0  0.99581  0.14941  0.48822  1.0000
  S   S117      1.0  0.01523  0.12242  0.51468  1.0000
  C   C380      1.0  0.01945  0.39273  0.58076  1.0000
  H   H629      1.0  0.99275  0.46188  0.58561  1.0000
  H   H630      1.0  0.98689  0.25729  0.50787  1.0000
  H   H631      1.0  0.01181  0.41581  0.70540  1.0000
  C   C381      1.0  0.12362  0.47139  0.93601  1.0000
  C   C382      1.0  0.03228  0.39847  0.67644  1.0000
  C   C383      1.0  0.12986  0.00784  0.48452  1.0000
  C   C384      1.0  0.07600  0.30043  0.51011  1.0000
  H   H632      1.0  0.04640  0.45331  0.77938  1.0000
  C   C385      1.0  0.03957  0.38767  0.68650  1.0000
  C   C386      1.0  0.00840  0.48162  0.62814  1.0000
  C   C387      1.0  0.99018  0.19676  0.55512  1.0000
  C   C388      1.0  0.01365  0.41545  0.79542  1.0000
  H   H633      1.0  0.03865  0.40579  0.67127  1.0000
  H   H634      1.0  0.00877  0.41676  0.74058  1.0000
  H   H635      1.0  0.02978  0.37616  0.79389  1.0000
  H   H636      1.0  0.98996  0.46701  0.86395  1.0000
  H   H637      1.0  0.04767  0.39357  0.65339  1.0000
  H   H638      1.0  0.01417  0.44510  0.82451  1.0000
  H   H639      1.0  0.99894  0.44789  0.83639  1.0000
  C   C389      1.0  0.00428  0.46695  0.65040  1.0000
  H   H640      1.0  0.02433  0.15293  0.50710  1.0000
  H   H641      1.0  0.07473  0.48158  0.64435  1.0000
  H   H642      1.0  0.15405  0.43954  0.96295  1.0000
  C   C390      1.0  0.99737  0.42882  0.59446  1.0000
  H   H643      1.0  0.07898  0.31001  0.48308  1.0000
  H   H644      1.0  0.00407  0.42165  0.65678  1.0000
  C   C391      1.0  0.09497  0.26341  0.49274  1.0000
  N   N25       1.0  0.00474  0.47650  0.57573  1.0000
  H   H645      1.0  0.00514  0.28863  0.48375  1.0000
  H   H646      1.0  0.10621  0.46927  0.70926  1.0000
  C   C392      1.0  0.09425  0.38638  0.56405  1.0000
  C   C393      1.0  0.00353  0.11284  0.51719  1.0000
  C   C394      1.0  0.00555  0.48381  0.79097  1.0000
  C   C395      1.0  0.16972  0.41359  0.89564  1.0000
  H   H647      1.0  0.04618  0.37814  0.66476  1.0000
  H   H648      1.0  0.02903  0.41247  0.65216  1.0000
  C   C396      1.0  0.02597  0.47473  0.65707  1.0000
  H   H649      1.0  0.08549  0.45890  0.83626  1.0000
  H   H650      1.0  0.07683  0.29896  0.52058  1.0000
  Fe  Fe59      1.0  0.06273  0.11284  0.48994  1.0000
  C   C397      1.0  0.09319  0.39069  0.57695  1.0000
  C   C398      1.0  0.15298  0.47756  0.94510  1.0000
  C   C399      1.0  0.00665  0.30812  0.54099  1.0000
  H   H651      1.0  0.00165  0.46252  0.76503  1.0000
  H   H652      1.0  0.00441  0.46153  0.82338  1.0000
  H   H653      1.0  0.07287  0.38141  0.59232  1.0000
  H   H654      1.0  0.02432  0.46475  0.66279  1.0000
  H   H655      1.0  0.02995  0.47072  0.63749  1.0000
  H   H656      1.0  0.02674  0.47621  0.73058  1.0000
  H   H657      1.0  0.08091  0.03087  0.58471  1.0000
  H   H658      1.0  0.02293  0.47148  0.85198  1.0000
  C   C400      1.0  0.04833  0.47461  0.84022  1.0000
  H   H659      1.0  0.98792  0.18828  0.56295  1.0000
  C   C401      1.0  0.10688  0.36989  0.58802  1.0000
  H   H660      1.0  0.07441  0.46320  0.93404  1.0000
  H   H661      1.0  0.07288  0.35788  0.60672  1.0000
  H   H662      1.0  0.02287  0.35906  0.51614  1.0000
  C   C402      1.0  0.17552  0.46684  0.83514  1.0000
  H   H663      1.0  0.03391  0.38848  0.64006  1.0000
  H   H664      1.0  0.00741  0.38127  0.77905  1.0000
  H   H665      1.0  0.01295  0.38487  0.65506  1.0000
  H   H666      1.0  0.02065  0.44320  0.86814  1.0000
  C   C403      1.0  0.08190  0.44849  0.75637  1.0000
  H   H667      1.0  0.17999  0.43462  0.90746  1.0000
  S   S118      1.0  0.98911  0.30005  0.53263  1.0000
  H   H668      1.0  0.09064  0.02662  0.59690  1.0000
  H   H669      1.0  0.01211  0.44601  0.76939  1.0000
  N   N26       1.0  0.08157  0.46684  0.73458  1.0000
  H   H670      1.0  0.99624  0.41076  0.75457  1.0000
  H   H671      1.0  0.00003  0.13139  0.49215  1.0000
  H   H672      1.0  0.09732  0.04566  0.54510  1.0000
  C   C404      1.0  0.01041  0.38345  0.71931  1.0000
  H   H673      1.0  0.09325  0.37878  0.61024  1.0000
  C   C405      1.0  0.07616  0.47705  0.74315  1.0000
  C   C406      1.0  0.18172  0.40900  0.88732  1.0000
  C   C407      1.0  0.01533  0.45420  0.83972  1.0000
  H   H674      1.0  0.17321  0.41221  0.93101  1.0000
  H   H675      1.0  0.99079  0.47500  0.71094  1.0000
  Fe  Fe60      1.0  0.14218  0.02489  0.52085  1.0000
  H   H676      1.0  0.01503  0.31238  0.50119  1.0000
  H   H677      1.0  0.02008  0.42235  0.78907  1.0000
  C   C408      1.0  0.99026  0.26293  0.51306  1.0000
  H   H678      1.0  0.00048  0.32259  0.50877  1.0000
  H   H679      1.0  0.10475  0.36076  0.57260  1.0000
  H   H680      1.0  0.09257  0.44770  0.75531  1.0000
  C   C409      1.0  0.07760  0.45406  0.74288  1.0000
  C   C410      1.0  0.99250  0.36380  0.50747  1.0000
  H   H681      1.0  0.00875  0.37208  0.66911  1.0000
  H   H682      1.0  0.07564  0.05037  0.56926  1.0000
  H   H683      1.0  0.08274  0.36799  0.58514  1.0000
  C   C411      1.0  0.07949  0.04563  0.56052  1.0000
  H   H684      1.0  0.01622  0.32097  0.51272  1.0000
  H   H685      1.0  0.10154  0.39729  0.60853  1.0000
  H   H686      1.0  0.09057  0.47717  0.89910  1.0000
  H   H687      1.0  0.09209  0.02731  0.54185  1.0000
  H   H688      1.0  0.07495  0.36963  0.61453  1.0000
  H   H689      1.0  0.11134  0.02251  0.57965  1.0000
  C   C412      1.0  0.10230  0.39495  0.59880  1.0000
  S   S119      1.0  0.13325  0.04692  0.51935  1.0000
  H   H690      1.0  0.07596  0.45448  0.76384  1.0000
  C   C413      1.0  0.99776  0.39497  0.79911  1.0000
  N   N27       1.0  0.14694  0.46957  0.93978  1.0000
  C   C414      1.0  0.10259  0.47394  0.71805  1.0000
  C   C415      1.0  0.02189  0.40594  0.65745  1.0000
  H   H691      1.0  0.99764  0.47771  0.83381  1.0000
  C   C416      1.0  0.01401  0.33355  0.49273  1.0000
  C   C417      1.0  0.07220  0.39160  0.89540  1.0000
  H   H692      1.0  0.06623  0.38404  0.85336  1.0000
  H   H693      1.0  0.16059  0.46652  0.97238  1.0000
  H   H694      1.0  0.99647  0.39882  0.78863  1.0000
  H   H695      1.0  0.00270  0.20130  0.56506  1.0000
  S   S120      1.0  0.11675  0.42048  0.90884  1.0000
  C   C418      1.0  0.99594  0.44599  0.86613  1.0000
  C   C419      1.0  0.07872  0.46128  0.71366  1.0000
  H   H696      1.0  0.07496  0.39879  0.89930  1.0000
  H   H697      1.0  0.08159  0.38613  0.89001  1.0000
  S   S121      1.0  0.04739  0.48022  0.85437  1.0000
  H   H698      1.0  0.02305  0.41763  0.54480  1.0000
  H   H699      1.0  0.12852  0.01081  0.49369  1.0000
  H   H700      1.0  0.11701  0.43761  0.97558  1.0000
  H   H701      1.0  0.18597  0.46157  0.83250  1.0000
  H   H702      1.0  0.02374  0.39487  0.54731  1.0000
  S   S122      1.0  0.01286  0.22355  0.54701  1.0000
  N   N28       1.0  0.00785  0.46370  0.84875  1.0000
  H   H703      1.0  0.06801  0.40647  0.87813  1.0000
  C   C420      1.0  0.08106  0.47582  0.65160  1.0000
  H   H704      1.0  0.09639  0.45635  0.63820  1.0000
  H   H705      1.0  0.00603  0.38874  0.54883  1.0000
  C   C421      1.0  0.00786  0.26924  0.55229  1.0000
  H   H706      1.0  0.00142  0.44950  0.78944  1.0000
  H   H707      1.0  0.05479  0.47924  0.66409  1.0000
  H   H708      1.0  0.08060  0.46315  0.63428  1.0000
  H   H709      1.0  0.17056  0.44269  0.84271  1.0000
  C   C422      1.0  0.98969  0.42165  0.59197  1.0000
  H   H710      1.0  0.07995  0.45933  0.87800  1.0000
  H   H711      1.0  0.00699  0.27876  0.55491  1.0000
  C   C423      1.0  0.10242  0.02965  0.57657  1.0000
  H   H712      1.0  0.12517  0.46986  0.89334  1.0000
  H   H713      1.0  0.98721  0.12948  0.52007  1.0000
  H   H714      1.0  0.05445  0.37598  0.89793  1.0000
  H   H715      1.0  0.99496  0.44070  0.70308  1.0000
  S   S123      1.0  0.05774  0.48185  0.62829  1.0000
  C   C424      1.0  0.08570  0.45637  0.64219  1.0000
  H   H716      1.0  0.09997  0.45220  0.65979  1.0000
  H   H717      1.0  0.07681  0.48045  0.66035  1.0000
  H   H718      1.0  0.99475  0.41412  0.69489  1.0000
  H   H719      1.0  0.01177  0.42074  0.66986  1.0000
  C   C425      1.0  0.02083  0.15023  0.52852  1.0000
  C   C426      1.0  0.04561  0.46361  0.77330  1.0000
  C   C427      1.0  0.08508  0.06635  0.48757  1.0000
  H   H720      1.0  0.02713  0.44520  0.78577  1.0000
  H   H721      1.0  0.00851  0.44086  0.80354  1.0000
  H   H722      1.0  0.02471  0.22894  0.57580  1.0000
  C   C428      1.0  0.01879  0.40208  0.79101  1.0000
  C   C429      1.0  0.02383  0.47292  0.55523  1.0000
  C   C430      1.0  0.99938  0.41833  0.83239  1.0000
  N   N29       1.0  0.05754  0.39132  0.87997  1.0000
  C   C431      1.0  0.06266  0.39945  0.88607  1.0000
  H   H723      1.0  0.15997  0.42604  0.90986  1.0000
  H   H724      1.0  0.07393  0.45270  0.71845  1.0000
  H   H725      1.0  0.13867  0.45187  0.94843  1.0000
  N   N30       1.0  0.08059  0.46129  0.65504  1.0000
  H   H726      1.0  0.08800  0.44001  0.63286  1.0000
  C   C432      1.0  0.02358  0.35912  0.50554  1.0000
  C   C433      1.0  0.99483  0.40172  0.85269  1.0000
  H   H727      1.0  0.98914  0.39698  0.62015  1.0000
  C   C434      1.0  0.00690  0.45052  0.79627  1.0000
  H   H728      1.0  0.99354  0.30461  0.48360  1.0000
  C   C435      1.0  0.00512  0.46036  0.59878  1.0000
  N   N31       1.0  0.00902  0.47945  0.64254  1.0000
  C   C436      1.0  0.08928  0.45296  0.66457  1.0000
  C   C437      1.0  0.08438  0.44218  0.64300  1.0000
  C   C438      1.0  0.08663  0.45686  0.67806  1.0000
  H   H729      1.0  0.08399  0.46771  0.67739  1.0000
  S   S124      1.0  0.04843  0.12934  0.49883  1.0000
  H   H730      1.0  0.11897  0.46659  0.94622  1.0000
  H   H731      1.0  0.00639  0.39591  0.81906  1.0000
  H   H732      1.0  0.03001  0.39284  0.57959  1.0000
  H   H733      1.0  0.05723  0.40671  0.86190  1.0000
  S   S125      1.0  0.12597  0.98552  0.55178  1.0000
  C   C439      1.0  0.06648  0.45965  0.66063  1.0000
  H   H734      1.0  0.06133  0.46142  0.65240  1.0000
  H   H735      1.0  0.01299  0.29840  0.54051  1.0000
  H   H736      1.0  0.09047  0.43448  0.64951  1.0000
  H   H737      1.0  0.07398  0.44112  0.64636  1.0000
  H   H738      1.0  0.10058  0.45286  0.86535  1.0000
  C   C440      1.0  0.11705  0.02979  0.55453  1.0000
  H   H739      1.0  0.99158  0.24606  0.53806  1.0000
  C   C441      1.0  0.04861  0.38363  0.89109  1.0000
  H   H740      1.0  0.09990  0.40467  0.59180  1.0000
  C   C442      1.0  0.17549  0.40339  0.93918  1.0000
  C   C443      1.0  0.99111  0.40608  0.61320  1.0000
  H   H741      1.0  0.09710  0.05200  0.55841  1.0000
  H   H742      1.0  0.11595  0.43990  0.85025  1.0000
  S   S126      1.0  0.14863  0.01143  0.53938  1.0000
  C   C444      1.0  0.04130  0.47768  0.81971  1.0000
  C   C445      1.0  0.01899  0.37855  0.79423  1.0000
  C   C446      1.0  0.00757  0.45225  0.83056  1.0000
  H   H743      1.0  0.07659  0.47532  0.83002  1.0000
  H   H744      1.0  0.10067  0.46416  0.73895  1.0000
  H   H745      1.0  0.08833  0.44244  0.66723  1.0000
  H   H746      1.0  0.06622  0.44924  0.66622  1.0000
  H   H747      1.0  0.18058  0.01898  0.53765  1.0000
  H   H748      1.0  0.10450  0.38126  0.56016  1.0000
  C   C447      1.0  0.00129  0.14043  0.48423  1.0000
  H   H749      1.0  0.10050  0.45414  0.72833  1.0000
  S   S127      1.0  0.13172  0.01088  0.51807  1.0000
  C   C448      1.0  0.02240  0.46233  0.76457  1.0000
  C   C449      1.0  0.01324  0.38810  0.81393  1.0000
  H   H750      1.0  0.02014  0.48228  0.66295  1.0000
  C   C450      1.0  0.05037  0.40095  0.86962  1.0000
  H   H751      1.0  0.05441  0.40577  0.89198  1.0000
  H   H752      1.0  0.00430  0.27188  0.54289  1.0000
  C   C451      1.0  0.98789  0.44355  0.71214  1.0000
  H   H753      1.0  0.13407  0.03864  0.54970  1.0000
  N   N32       1.0  0.01219  0.39094  0.79956  1.0000
  H   H754      1.0  0.04706  0.39584  0.86388  1.0000
  H   H755      1.0  0.04605  0.36571  0.88685  1.0000
  H   H756      1.0  0.03750  0.38094  0.87756  1.0000
  H   H757      1.0  0.99965  0.38853  0.66903  1.0000
  H   H758      1.0  0.04044  0.39234  0.69419  1.0000
  H   H759      1.0  0.05653  0.17495  0.48445  1.0000
  C   C452      1.0  0.05738  0.46888  0.66989  1.0000
  H   H760      1.0  0.03020  0.39628  0.81284  1.0000
  H   H761      1.0  0.04079  0.41839  0.87870  1.0000
  H   H762      1.0  0.15924  0.46913  0.85191  1.0000
  H   H763      1.0  0.16944  0.38201  0.91731  1.0000
  H   H764      1.0  0.08171  0.44592  0.73731  1.0000
  H   H765      1.0  0.00009  0.43739  0.58707  1.0000
  C   C453      1.0  0.09647  0.46426  0.73051  1.0000
  H   H766      1.0  0.16771  0.44009  0.87883  1.0000
  N   N33       1.0  0.09379  0.37984  0.58947  1.0000
  S   S128      1.0  0.15554  0.99608  0.48661  1.0000
  H   H767      1.0  0.07851  0.31016  0.50466  1.0000
  C   C454      1.0  0.04055  0.37610  0.88713  1.0000
  H   H768      1.0  0.04158  0.39010  0.89775  1.0000
  H   H769      1.0  0.08894  0.01756  0.56698  1.0000
  H   H770      1.0  0.15523  0.45398  0.87407  1.0000
  H   H771      1.0  0.00818  0.44553  0.65306  1.0000
  H   H772      1.0  0.01003  0.37873  0.81970  1.0000
  H   H773      1.0  0.04797  0.46547  0.67448  1.0000
  H   H774      1.0  0.08273  0.27953  0.51127  1.0000
  H   H775      1.0  0.98783  0.46163  0.85091  1.0000
  H   H776      1.0  0.17394  0.47161  0.85378  1.0000
  C   C455      1.0  0.09232  0.38635  0.60079  1.0000
  H   H777      1.0  0.09463  0.00959  0.54704  1.0000
  H   H778      1.0  0.99778  0.44573  0.87592  1.0000
  Fe  Fe61      1.0  0.13954  0.99687  0.53541  1.0000
  H   H779      1.0  0.02670  0.38354  0.82718  1.0000
  C   C456      1.0  0.99084  0.33372  0.54102  1.0000
  C   C457      1.0  0.16595  0.44309  0.85333  1.0000
  C   C458      1.0  0.00190  0.21474  0.54594  1.0000
  N   N34       1.0  0.02830  0.39370  0.66641  1.0000
  H   H780      1.0  0.14679  0.47939  0.95494  1.0000
  H   H781      1.0  0.99311  0.37568  0.80069  1.0000
  H   H782      1.0  0.99072  0.35040  0.49668  1.0000
  S   S129      1.0  0.15586  0.40747  0.89654  1.0000
  C   C459      1.0  0.01174  0.45620  0.76309  1.0000
  H   H783      1.0  0.09180  0.39543  0.55623  1.0000
  H   H784      1.0  0.10341  0.47793  0.90573  1.0000
  Fe  Fe62      1.0  0.03734  0.11370  0.51160  1.0000
  H   H785      1.0  0.09584  0.45330  0.68190  1.0000
  C   C460      1.0  0.08163  0.48126  0.92475  1.0000
  H   H786      1.0  0.03181  0.16720  0.48756  1.0000
  H   H787      1.0  0.02258  0.36917  0.77758  1.0000
  H   H788      1.0  0.17635  0.42272  0.86151  1.0000
  C   C461      1.0  0.09859  0.01826  0.54654  1.0000
  H   H789      1.0  0.00028  0.11348  0.48335  1.0000
  C   C462      1.0  0.02706  0.38667  0.81628  1.0000
  H   H790      1.0  0.02450  0.33036  0.48767  1.0000
  H   H791      1.0  0.08718  0.38021  0.56512  1.0000
  H   H792      1.0  0.06161  0.46882  0.67819  1.0000
  H   H793      1.0  0.03321  0.16119  0.51266  1.0000
  H   H794      1.0  0.10131  0.39602  0.57453  1.0000
  C   C463      1.0  0.01682  0.23800  0.57387  1.0000
  H   H795      1.0  0.07485  0.46637  0.70449  1.0000
  H   H796      1.0  0.12391  0.04016  0.56574  1.0000
  C   C464      1.0  0.03810  0.41108  0.87495  1.0000
  H   H797      1.0  0.03316  0.41686  0.86661  1.0000
  H   H798      1.0  0.03112  0.37575  0.89469  1.0000
  H   H799      1.0  0.07882  0.45216  0.68550  1.0000
  C   C465      1.0  0.00196  0.41867  0.75006  1.0000
  C   C466      1.0  0.09887  0.01856  0.56080  1.0000
  H   H800      1.0  0.17859  0.40027  0.95950  1.0000
  H   H801      1.0  0.01537  0.36971  0.80103  1.0000
  C   C467      1.0  0.99415  0.31133  0.53810  1.0000
  C   C468      1.0  0.09467  0.04356  0.55616  1.0000
  C   C469      1.0  0.03920  0.38094  0.64734  1.0000
  H   H802      1.0  0.18233  0.40181  0.88169  1.0000
  H   H803      1.0  0.00784  0.41522  0.55623  1.0000
  H   H804      1.0  0.07369  0.46764  0.85613  1.0000
  H   H805      1.0  0.03070  0.40614  0.88275  1.0000
  C   C470      1.0  0.16756  0.46415  0.97900  1.0000
  C   C471      1.0  0.11260  0.45070  0.84609  1.0000
  C   C472      1.0  0.07506  0.47120  0.72282  1.0000
  H   H806      1.0  0.01860  0.48251  0.54996  1.0000
  H   H807      1.0  0.04919  0.37704  0.64159  1.0000
  H   H808      1.0  0.08901  0.35714  0.60886  1.0000
  H   H809      1.0  0.13342  0.48161  0.90508  1.0000
  H   H810      1.0  0.01918  0.40350  0.64935  1.0000
  C   C473      1.0  0.00979  0.38258  0.66606  1.0000
  C   C474      1.0  0.02329  0.15914  0.51429  1.0000
  H   H811      1.0  0.16934  0.46910  0.87532  1.0000
  H   H812      1.0  0.00798  0.33409  0.48559  1.0000
  H   H813      1.0  0.00061  0.45794  0.80211  1.0000
  C   C475      1.0  0.07975  0.36398  0.60652  1.0000
  H   H814      1.0  0.06553  0.47413  0.92203  1.0000
  H   H815      1.0  0.00771  0.23676  0.58169  1.0000
  C   C476      1.0  0.16611  0.45044  0.87285  1.0000
  C   C477      1.0  0.00296  0.39055  0.57012  1.0000
  C   C478      1.0  0.01872  0.41246  0.55499  1.0000
  H   H816      1.0  0.00343  0.43821  0.86154  1.0000
  H   H817      1.0  0.02158  0.41636  0.56211  1.0000
  C   C479      1.0  0.00931  0.41463  0.66445  1.0000
  Fe  Fe63      1.0  0.13668  0.42266  0.89547  1.0000
  N   N35       1.0  0.01757  0.38875  0.56901  1.0000
  C   C480      1.0  0.99712  0.46882  0.58817  1.0000
  C   C481      1.0  0.02417  0.39732  0.55654  1.0000
  N   N36       1.0  0.10286  0.03047  0.56210  1.0000
  C   C482      1.0  0.99506  0.46010  0.85713  1.0000
  H   H818      1.0  0.16784  0.41559  0.95398  1.0000
  S   S130      1.0  0.16144  0.01792  0.50702  1.0000
  C   C483      1.0  0.09407  0.47552  0.83651  1.0000
  H   H819      1.0  0.03495  0.39542  0.55614  1.0000
  H   H820      1.0  0.99878  0.15064  0.51993  1.0000
  H   H821      1.0  0.02966  0.37353  0.54820  1.0000
  C   C484      1.0  0.10784  0.35788  0.58222  1.0000
  H   H822      1.0  0.03654  0.47454  0.65593  1.0000
  H   H823      1.0  0.11558  0.47898  0.93186  1.0000
  C   C485      1.0  0.18395  0.38859  0.92304  1.0000
  H   H824      1.0  0.12335  0.01989  0.55800  1.0000
  H   H825      1.0  0.16231  0.42359  0.85537  1.0000
  Fe  Fe64      1.0  0.16694  0.00324  0.52528  1.0000
  H   H826      1.0  0.99740  0.39948  0.57420  1.0000
  H   H827      1.0  0.06553  0.30095  0.51048  1.0000
  C   C486      1.0  0.02453  0.37435  0.56962  1.0000
  H   H828      1.0  0.99861  0.48074  0.62745  1.0000
  H   H829      1.0  0.03082  0.35790  0.55967  1.0000
  H   H830      1.0  0.11179  0.45168  0.83573  1.0000
  H   H831      1.0  0.10443  0.47476  0.83057  1.0000
  H   H832      1.0  0.09045  0.07192  0.49076  1.0000
  H   H833      1.0  0.11799  0.03077  0.54368  1.0000
  C   C487      1.0  0.14451  0.45756  0.95078  1.0000
  H   H834      1.0  0.03561  0.48371  0.81241  1.0000
  C   C488      1.0  0.02482  0.36827  0.55807  1.0000
  C   C489      1.0  0.99838  0.39233  0.55710  1.0000
  H   H835      1.0  0.08643  0.26099  0.49083  1.0000
  C   C490      1.0  0.08210  0.37354  0.59269  1.0000
  C   C491      1.0  0.13521  0.47859  0.87375  1.0000
  H   H836      1.0  0.02431  0.13963  0.52778  1.0000
  C   C492      1.0  0.00091  0.38245  0.71324  1.0000
  H   H837      1.0  0.16667  0.37990  0.93498  1.0000
  H   H838      1.0  0.06541  0.47765  0.74742  1.0000
  C   C493      1.0  0.00194  0.17005  0.50731  1.0000
  H   H839      1.0  0.10565  0.00918  0.56470  1.0000
  C   C494      1.0  0.00462  0.47734  0.83985  1.0000
  H   H840      1.0  0.99130  0.35222  0.57926  1.0000
  H   H841      1.0  0.10864  0.01680  0.54007  1.0000
  C   C495      1.0  0.01995  0.18168  0.50001  1.0000
  H   H842      1.0  0.01389  0.45517  0.75258  1.0000
  N   N37       1.0  0.02031  0.46623  0.77765  1.0000
  H   H843      1.0  0.07720  0.48067  0.71629  1.0000
  C   C496      1.0  0.12046  0.43538  0.96577  1.0000
  H   H844      1.0  0.17498  0.47761  0.83068  1.0000
  H   H845      1.0  0.02964  0.39908  0.79026  1.0000
  H   H846      1.0  0.17747  0.46552  0.97300  1.0000
  H   H847      1.0  0.10322  0.47315  0.86543  1.0000
  H   H848      1.0  0.09067  0.47626  0.92884  1.0000
  H   H849      1.0  0.15965  0.42782  0.87095  1.0000
  H   H850      1.0  0.16438  0.45772  0.89033  1.0000
  C   C497      1.0  0.07557  0.47015  0.92408  1.0000
  C   C498      1.0  0.18044  0.42745  0.90190  1.0000
  H   H851      1.0  0.01018  0.46854  0.86628  1.0000
  H   H852      1.0  0.99709  0.39591  0.86216  1.0000
  C   C499      1.0  0.02066  0.34600  0.50490  1.0000
  C   C500      1.0  0.07692  0.47017  0.87399  1.0000
  H   H853      1.0  0.15738  0.47478  0.91919  1.0000
  H   H854      1.0  0.09408  0.26148  0.50367  1.0000
  H   H855      1.0  0.00476  0.38304  0.59661  1.0000
  H   H856      1.0  0.10900  0.99243  0.50102  1.0000
  C   C501      1.0  0.98975  0.38407  0.80584  1.0000
  H   H857      1.0  0.10176  0.47385  0.65243  1.0000
  H   H858      1.0  0.08084  0.47411  0.75189  1.0000
  H   H859      1.0  0.99365  0.40292  0.55355  1.0000
  H   H860      1.0  0.03100  0.47491  0.78629  1.0000
  H   H861      1.0  0.14812  0.44844  0.92881  1.0000
  H   H862      1.0  0.02295  0.45163  0.64816  1.0000
  C   C502      1.0  0.15705  0.44739  0.95425  1.0000
  C   C503      1.0  0.08548  0.28867  0.50432  1.0000
  C   C504      1.0  0.99433  0.43765  0.72432  1.0000
  H   H863      1.0  0.01112  0.45911  0.56685  1.0000
  C   C505      1.0  0.10169  0.47776  0.85510  1.0000
  H   H864      1.0  0.02311  0.38630  0.77231  1.0000
  C   C506      1.0  0.01780  0.37908  0.78000  1.0000
  C   C507      1.0  0.03165  0.47234  0.77669  1.0000
  H   H865      1.0  0.09615  0.48381  0.71531  1.0000
  H   H866      1.0  0.16289  0.47211  0.94688  1.0000
  H   H867      1.0  0.01902  0.44409  0.84538  1.0000
  H   H868      1.0  0.01428  0.18503  0.53781  1.0000
  C   C508      1.0  0.16622  0.42850  0.86085  1.0000
  H   H869      1.0  0.99872  0.44003  0.74684  1.0000
  H   H870      1.0  0.00052  0.18804  0.52074  1.0000
  H   H871      1.0  0.03038  0.45332  0.86998  1.0000
  H   H872      1.0  0.99266  0.40336  0.80421  1.0000
  S   S131      1.0  0.15821  0.98767  0.52281  1.0000
  C   C509      1.0  0.01279  0.45384  0.64653  1.0000
  H   H873      1.0  0.03046  0.33953  0.50168  1.0000
  H   H874      1.0  0.03124  0.48191  0.76913  1.0000
  H   H875      1.0  0.09558  0.28830  0.50529  1.0000
  C   C510      1.0  0.99033  0.47760  0.55962  1.0000
  H   H876      1.0  0.10391  0.25625  0.48885  1.0000
  C   C511      1.0  0.02311  0.47825  0.64300  1.0000
  H   H877      1.0  0.99530  0.17982  0.50413  1.0000
  H   H878      1.0  0.16255  0.45006  0.91645  1.0000
  H   H879      1.0  0.04983  0.38338  0.68169  1.0000
  S   S132      1.0  0.14203  0.41801  0.97487  1.0000
  C   C512      1.0  0.08661  0.46901  0.83058  1.0000
  C   C513      1.0  0.99901  0.40560  0.70178  1.0000
  H   H880      1.0  0.00345  0.42018  0.79401  1.0000
  H   H881      1.0  0.17993  0.36603  0.94925  1.0000
  C   C514      1.0  0.18059  0.37398  0.95365  1.0000
  H   H882      1.0  0.02438  0.45750  0.83326  1.0000
  C   C515      1.0  0.99508  0.39354  0.70460  1.0000
  C   C516      1.0  0.99562  0.48122  0.72616  1.0000
  H   H883      1.0  0.03290  0.47450  0.55698  1.0000
  H   H884      1.0  0.14723  0.46124  0.91379  1.0000
  H   H885      1.0  0.99409  0.37247  0.49916  1.0000
  C   C517      1.0  0.09654  0.27773  0.48560  1.0000
  H   H886      1.0  0.01286  0.45217  0.59507  1.0000
  H   H887      1.0  0.04094  0.48046  0.59070  1.0000
  H   H888      1.0  0.09283  0.99299  0.52158  1.0000
  C   C518      1.0  0.98781  0.21128  0.53366  1.0000
  H   H889      1.0  0.09915  0.47674  0.63564  1.0000
  H   H890      1.0  0.02244  0.46078  0.57484  1.0000
  H   H891      1.0  0.99827  0.47428  0.55131  1.0000
  H   H892      1.0  0.99800  0.37308  0.71532  1.0000
  H   H893      1.0  0.00514  0.42546  0.82617  1.0000
  H   H894      1.0  0.17069  0.38046  0.95602  1.0000
  C   C519      1.0  0.09486  0.47901  0.64568  1.0000
  H   H895      1.0  0.99873  0.25652  0.51736  1.0000
  H   H896      1.0  0.16626  0.39964  0.94302  1.0000
  H   H897      1.0  0.10950  0.01608  0.48311  1.0000
  H   H898      1.0  0.01402  0.87462  0.46367  1.0000
  H   H899      1.0  0.05479  0.64116  0.45946  1.0000
  C   C520      1.0  0.04975  0.79812  0.44674  1.0000
  H   H900      1.0  0.99635  0.79665  0.47321  1.0000
  C   C521      1.0  0.12985  0.57543  0.03683  1.0000
  H   H901      1.0  0.06206  0.86554  0.40833  1.0000
  H   H902      1.0  0.99049  0.51892  0.20670  1.0000
  Fe  Fe65      1.0  0.00318  0.86333  0.42892  1.0000
  S   S133      1.0  0.01506  0.87124  0.40880  1.0000
  C   C522      1.0  0.08651  0.49397  0.05166  1.0000
  Fe  Fe66      1.0  0.02718  0.84451  0.43785  1.0000
  S   S134      1.0  0.04134  0.85033  0.41858  1.0000
  S   S135      1.0  0.03242  0.82910  0.45561  1.0000
  Fe  Fe67      1.0  0.03017  0.87130  0.41978  1.0000
  S   S136      1.0  0.03949  0.88941  0.41345  1.0000
  Fe  Fe68      1.0  0.02530  0.84983  0.40927  1.0000
  S   S137      1.0  0.02813  0.84009  0.39231  1.0000
  S   S138      1.0  0.01713  0.86538  0.43989  1.0000
  S   S139      1.0  0.01228  0.84199  0.42851  1.0000
  H   H903      1.0  0.00772  0.88464  0.47618  1.0000
  S   S140      1.0  0.08627  0.93606  0.42868  1.0000
  C   C523      1.0  0.07614  0.61025  0.39058  1.0000
  Fe  Fe69      1.0  0.09900  0.93443  0.44265  1.0000
  S   S141      1.0  0.09164  0.94011  0.46262  1.0000
  Fe  Fe70      1.0  0.10350  0.94248  0.41287  1.0000
  S   S142      1.0  0.09932  0.96094  0.39686  1.0000
  S   S143      1.0  0.13820  0.52830  0.04577  1.0000
  S   S144      1.0  0.10419  0.55365  0.04118  1.0000
  Fe  Fe71      1.0  0.06019  0.53764  0.11148  1.0000
  S   S145      1.0  0.06591  0.51631  0.12200  1.0000
  S   S146      1.0  0.07774  0.54732  0.10299  1.0000
  Fe  Fe72      1.0  0.05382  0.51300  0.10991  1.0000
  H   H904      1.0  0.15688  0.49491  0.01600  1.0000
  Fe  Fe73      1.0  0.04694  0.52034  0.13707  1.0000
  N   N38       1.0  0.07613  0.51243  0.30289  1.0000
  Fe  Fe74      1.0  0.03148  0.53005  0.25263  1.0000
  S   S147      1.0  0.01025  0.52897  0.25694  1.0000
  S   S148      1.0  0.04107  0.52538  0.27009  1.0000
  Fe  Fe75      1.0  0.03492  0.53309  0.22267  1.0000
  S   S149      1.0  0.01402  0.53218  0.22453  1.0000
  S   S150      1.0  0.04899  0.53584  0.20260  1.0000
  Fe  Fe76      1.0  0.00913  0.54552  0.23886  1.0000
  Fe  Fe77      1.0  0.01716  0.51572  0.24237  1.0000
  H   H905      1.0  0.99976  0.81714  0.40350  1.0000
  S   S151      1.0  0.02985  0.54792  0.23563  1.0000
  S   S152      1.0  0.03856  0.51540  0.23938  1.0000
  H   H906      1.0  0.05588  0.51299  0.31376  1.0000
  C   C524      1.0  0.06478  0.61733  0.47766  1.0000
  H   H907      1.0  0.06118  0.66471  0.47840  1.0000
  H   H908      1.0  0.02687  0.63595  0.36396  1.0000
  N   N39       1.0  0.13925  0.88781  0.47034  1.0000
  N   N40       1.0  0.07418  0.58803  0.40788  1.0000
  H   H909      1.0  0.06341  0.50702  0.28546  1.0000
  C   C525      1.0  0.00560  0.88208  0.46775  1.0000
  N   N41       1.0  0.00567  0.58010  0.28042  1.0000
  C   C526      1.0  0.08453  0.51430  0.28888  1.0000
  H   H910      1.0  0.10764  0.50065  0.08539  1.0000
  C   C527      1.0  0.18013  0.95007  0.43734  1.0000
  C   C528      1.0  0.05813  0.50587  0.29609  1.0000
  C   C529      1.0  0.15746  0.92860  0.40874  1.0000
  H   H911      1.0  0.01389  0.52438  0.17324  1.0000
  C   C530      1.0  0.14419  0.87607  0.45080  1.0000
  C   C531      1.0  0.99810  0.50029  0.08149  1.0000
  C   C532      1.0  0.00390  0.56436  0.26673  1.0000
  Fe  Fe78      1.0  0.03398  0.62124  0.40538  1.0000
  S   S153      1.0  0.03549  0.60642  0.42474  1.0000
  S   S154      1.0  0.04073  0.61531  0.38524  1.0000
  Fe  Fe79      1.0  0.02418  0.64513  0.41918  1.0000
  S   S155      1.0  0.02504  0.63200  0.43948  1.0000
  S   S156      1.0  0.01416  0.66678  0.41863  1.0000
  Fe  Fe80      1.0  0.04425  0.62088  0.42925  1.0000
  S   S157      1.0  0.06329  0.61419  0.43625  1.0000
  Fe  Fe81      1.0  0.01616  0.61899  0.43305  1.0000
  S   S158      1.0  0.99862  0.61159  0.44669  1.0000
  S   S159      1.0  0.04424  0.63501  0.40923  1.0000
  S   S160      1.0  0.01380  0.63279  0.41339  1.0000
  Fe  Fe82      1.0  0.03817  0.55374  0.32643  1.0000
  S   S161      1.0  0.03548  0.53275  0.33191  1.0000
  S   S162      1.0  0.04263  0.56371  0.30442  1.0000
  Fe  Fe83      1.0  0.03277  0.55585  0.35573  1.0000
  S   S163      1.0  0.02976  0.53481  0.36316  1.0000
  S   S164      1.0  0.02709  0.56629  0.37313  1.0000
  Fe  Fe84      1.0  0.04728  0.52946  0.34704  1.0000
  S   S165      1.0  0.06303  0.51070  0.34997  1.0000
  Fe  Fe85      1.0  0.01828  0.53998  0.34734  1.0000
  S   S166      1.0  0.99875  0.53474  0.35134  1.0000
  S   S167      1.0  0.05153  0.55003  0.34063  1.0000
  S   S168      1.0  0.01984  0.56130  0.34087  1.0000
  C   C533      1.0  0.04140  0.87620  0.37708  1.0000
  Fe  Fe86      1.0  0.00778  0.76008  0.39947  1.0000
  S   S169      1.0  0.02987  0.75323  0.39626  1.0000
  S   S170      1.0  0.99831  0.76791  0.38173  1.0000
  Fe  Fe87      1.0  0.00391  0.75510  0.42926  1.0000
  S   S171      1.0  0.02557  0.74764  0.42859  1.0000
  H   H912      1.0  0.99795  0.49046  0.13665  1.0000
  Fe  Fe88      1.0  0.02778  0.76504  0.41133  1.0000
  S   S172      1.0  0.04115  0.77740  0.41205  1.0000
  Fe  Fe89      1.0  0.02553  0.73641  0.41382  1.0000
  S   S173      1.0  0.03829  0.71556  0.41413  1.0000
  S   S174      1.0  0.00608  0.77329  0.41308  1.0000
  S   S175      1.0  0.00351  0.74241  0.41592  1.0000
  C   C534      1.0  0.01239  0.56865  0.27354  1.0000
  H   H913      1.0  0.07181  0.98382  0.47222  1.0000
  H   H914      1.0  0.06986  0.80104  0.45789  1.0000
  H   H915      1.0  0.99465  0.63679  0.48027  1.0000
  C   C535      1.0  0.06315  0.79903  0.46790  1.0000
  H   H916      1.0  0.15278  0.86927  0.44585  1.0000
  H   H917      1.0  0.99791  0.57139  0.46865  1.0000
  C   C536      1.0  0.00238  0.72428  0.47508  1.0000
  C   C537      1.0  0.14907  0.88336  0.45845  1.0000
  C   C538      1.0  0.01224  0.49081  0.21200  1.0000
  H   H918      1.0  0.05892  0.48437  0.17081  1.0000
  H   H919      1.0  0.04646  0.72147  0.45282  1.0000
  Fe  Fe90      1.0  0.14047  0.51375  0.03329  1.0000
  C   C539      1.0  0.09420  0.49426  0.31344  1.0000
  C   C540      1.0  0.05099  0.49540  0.34178  1.0000
  H   H920      1.0  0.00373  0.71635  0.40628  1.0000
  H   H921      1.0  0.02470  0.54007  0.15540  1.0000
  H   H922      1.0  0.12236  0.89204  0.46157  1.0000
  C   C541      1.0  0.03738  0.60125  0.38225  1.0000
  C   C542      1.0  0.02900  0.59368  0.39186  1.0000
  C   C543      1.0  0.02615  0.58292  0.38890  1.0000
  C   C544      1.0  0.03164  0.57957  0.37636  1.0000
  C   C545      1.0  0.04017  0.58702  0.36682  1.0000
  C   C546      1.0  0.04299  0.59782  0.36976  1.0000
  H   H923      1.0  0.02456  0.59620  0.40150  1.0000
  H   H924      1.0  0.01952  0.57721  0.39632  1.0000
  H   H925      1.0  0.04446  0.58456  0.35714  1.0000
  H   H926      1.0  0.04948  0.60363  0.36226  1.0000
  C   C547      1.0  0.02163  0.67913  0.41935  1.0000
  C   C548      1.0  0.03495  0.67903  0.41347  1.0000
  C   C549      1.0  0.04001  0.69019  0.41216  1.0000
  C   C550      1.0  0.03179  0.70148  0.41668  1.0000
  C   C551      1.0  0.01864  0.70132  0.42308  1.0000
  C   C552      1.0  0.01357  0.69020  0.42438  1.0000
  H   H927      1.0  0.04120  0.67062  0.40942  1.0000
  H   H928      1.0  0.05025  0.69022  0.40730  1.0000
  H   H929      1.0  0.01225  0.70991  0.42667  1.0000
  H   H930      1.0  0.00321  0.69039  0.42882  1.0000
  H   H931      1.0  0.06807  0.97124  0.44885  1.0000
  H   H932      1.0  0.08803  0.49671  0.08117  1.0000
  H   H933      1.0  0.03839  0.88701  0.37691  1.0000
  C   C553      1.0  0.06693  0.77668  0.46303  1.0000
  C   C554      1.0  0.00255  0.59433  0.43068  1.0000
  C   C555      1.0  0.99820  0.58685  0.42460  1.0000
  H   H934      1.0  0.15856  0.87726  0.46103  1.0000
  H   H935      1.0  0.98807  0.81139  0.41847  1.0000
  H   H936      1.0  0.01296  0.59416  0.42869  1.0000
  H   H937      1.0  0.00523  0.58108  0.41779  1.0000
  H   H938      1.0  0.99851  0.53085  0.16826  1.0000
  C   C556      1.0  0.11041  0.97996  0.44296  1.0000
  H   H939      1.0  0.01929  0.49993  0.27165  1.0000
  C   C557      1.0  0.99714  0.76203  0.45844  1.0000
  C   C558      1.0  0.00818  0.76763  0.45233  1.0000
  C   C559      1.0  0.01478  0.77096  0.46006  1.0000
  H   H940      1.0  0.99798  0.70795  0.45212  1.0000
  H   H941      1.0  0.03197  0.48567  0.27535  1.0000
  H   H942      1.0  0.01165  0.76951  0.44160  1.0000
  H   H943      1.0  0.02335  0.77525  0.45524  1.0000
  H   H944      1.0  0.06904  0.48786  0.12551  1.0000
  C   C560      1.0  0.07599  0.61691  0.46721  1.0000
  C   C561      1.0  0.07535  0.61574  0.45471  1.0000
  C   C562      1.0  0.06342  0.61521  0.45239  1.0000
  C   C563      1.0  0.05210  0.61555  0.46281  1.0000
  C   C564      1.0  0.05281  0.61651  0.47551  1.0000
  H   H945      1.0  0.08526  0.61749  0.46880  1.0000
  H   H946      1.0  0.08413  0.61542  0.44674  1.0000
  H   H947      1.0  0.04287  0.61499  0.46114  1.0000
  C   C565      1.0  0.12678  0.93907  0.47894  1.0000
  H   H948      1.0  0.05063  0.88630  0.46584  1.0000
  C   C566      1.0  0.01124  0.50667  0.30308  1.0000
  H   H949      1.0  0.05990  0.49523  0.30134  1.0000
  H   H950      1.0  0.99906  0.56687  0.16036  1.0000
  H   H951      1.0  0.07101  0.78060  0.45230  1.0000
  C   C567      1.0  0.04590  0.79245  0.46190  1.0000
  N   N42       1.0  0.04521  0.66122  0.46146  1.0000
  C   C568      1.0  0.08093  0.98322  0.46417  1.0000
  H   H952      1.0  0.15745  0.55802  0.99282  1.0000
  C   C569      1.0  0.03935  0.53799  0.27836  1.0000
  C   C570      1.0  0.04683  0.54776  0.27280  1.0000
  C   C571      1.0  0.04756  0.55595  0.28069  1.0000
  C   C572      1.0  0.04070  0.55446  0.29409  1.0000
  C   C573      1.0  0.03250  0.54539  0.29925  1.0000
  C   C574      1.0  0.03209  0.53694  0.29155  1.0000
  H   H953      1.0  0.05266  0.54848  0.26267  1.0000
  H   H954      1.0  0.05382  0.56309  0.27657  1.0000
  H   H955      1.0  0.02647  0.54489  0.30919  1.0000
  H   H956      1.0  0.02630  0.52945  0.29592  1.0000
  H   H957      1.0  0.00036  0.82281  0.37991  1.0000
  H   H958      1.0  0.08560  0.77681  0.46751  1.0000
  N   N43       1.0  0.00293  0.49189  0.15448  1.0000
  H   H959      1.0  0.01566  0.65248  0.46343  1.0000
  C   C575      1.0  0.00716  0.53379  0.16941  1.0000
  H   H960      1.0  0.02600  0.57951  0.28060  1.0000
  C   C576      1.0  0.98993  0.55241  0.17754  1.0000
  C   C577      1.0  0.04363  0.51798  0.17083  1.0000
  C   C578      1.0  0.05107  0.52769  0.16717  1.0000
  C   C579      1.0  0.05266  0.53312  0.17701  1.0000
  C   C580      1.0  0.04660  0.52906  0.19047  1.0000
  C   C581      1.0  0.03889  0.51957  0.19408  1.0000
  C   C582      1.0  0.03748  0.51399  0.18428  1.0000
  H   H961      1.0  0.05582  0.53084  0.15681  1.0000
  H   H962      1.0  0.05862  0.54049  0.17417  1.0000
  H   H963      1.0  0.03420  0.51636  0.20444  1.0000
  H   H964      1.0  0.04012  0.49073  0.23175  1.0000
  S   S176      1.0  0.14835  0.53783  0.98468  1.0000
  H   H965      1.0  0.00731  0.69446  0.40072  1.0000
  H   H966      1.0  0.03422  0.50627  0.09969  1.0000
  H   H967      1.0  0.07233  0.49920  0.06928  1.0000
  C   C583      1.0  0.09694  0.55111  0.05842  1.0000
  C   C584      1.0  0.08354  0.55690  0.06257  1.0000
  C   C585      1.0  0.07747  0.55530  0.07623  1.0000
  C   C586      1.0  0.08484  0.54816  0.08586  1.0000
  C   C587      1.0  0.09827  0.54240  0.08172  1.0000
  C   C588      1.0  0.10425  0.54366  0.06804  1.0000
  H   H968      1.0  0.07783  0.56269  0.05520  1.0000
  H   H969      1.0  0.06716  0.55993  0.07934  1.0000
  H   H970      1.0  0.10404  0.53696  0.08914  1.0000
  H   H971      1.0  0.11455  0.53910  0.06497  1.0000
  H   H972      1.0  0.07363  0.54139  0.31377  1.0000
  H   H973      1.0  0.05114  0.57423  0.40140  1.0000
  H   H974      1.0  0.01462  0.73710  0.37046  1.0000
  H   H975      1.0  0.02253  0.49523  0.15145  1.0000
  H   H976      1.0  0.00830  0.83215  0.47800  1.0000
  H   H977      1.0  0.99969  0.57257  0.25911  1.0000
  C   C589      1.0  0.99761  0.71893  0.39876  1.0000
  H   H978      1.0  0.04744  0.50907  0.29616  1.0000
  H   H979      1.0  0.09984  0.52514  0.05382  1.0000
  H   H980      1.0  0.07419  0.85268  0.39020  1.0000
  H   H981      1.0  0.02394  0.71194  0.39135  1.0000
  H   H982      1.0  0.07764  0.95840  0.44054  1.0000
  H   H983      1.0  0.11821  0.50253  0.02936  1.0000
  C   C590      1.0  0.10308  0.97615  0.39626  1.0000
  C   C591      1.0  0.11228  0.97704  0.40285  1.0000
  H   H984      1.0  0.10898  0.57141  0.06239  1.0000
  H   H985      1.0  0.01498  0.51384  0.29393  1.0000
  C   C592      1.0  0.16270  0.49027  0.00752  1.0000
  H   H986      1.0  0.04069  0.78438  0.46329  1.0000
  H   H987      1.0  0.11762  0.96810  0.40839  1.0000
  H   H988      1.0  0.04344  0.68099  0.46400  1.0000
  S   S177      1.0  0.13960  0.55068  0.01746  1.0000
  N   N44       1.0  0.16015  0.48706  0.98540  1.0000
  C   C593      1.0  0.10488  0.94046  0.46891  1.0000
  C   C594      1.0  0.11614  0.94448  0.46031  1.0000
  H   H989      1.0  0.99204  0.49903  0.28688  1.0000
  H   H990      1.0  0.11651  0.94810  0.44979  1.0000
  H   H991      1.0  0.99749  0.85431  0.46538  1.0000
  C   C595      1.0  0.05257  0.89154  0.41917  1.0000
  C   C596      1.0  0.05720  0.90339  0.41373  1.0000
  C   C597      1.0  0.06791  0.90531  0.41753  1.0000
  C   C598      1.0  0.07424  0.89532  0.42673  1.0000
  C   C599      1.0  0.06958  0.88349  0.43221  1.0000
  C   C600      1.0  0.05876  0.88163  0.42854  1.0000
  H   H992      1.0  0.05249  0.91113  0.40649  1.0000
  H   H993      1.0  0.07138  0.91446  0.41321  1.0000
  H   H994      1.0  0.02540  0.71254  0.37440  1.0000
  H   H995      1.0  0.05534  0.87246  0.43282  1.0000
  C   C601      1.0  0.03099  0.82269  0.39810  1.0000
  C   C602      1.0  0.02777  0.81475  0.39158  1.0000
  C   C603      1.0  0.03020  0.80081  0.39617  1.0000
  C   C604      1.0  0.03640  0.79480  0.40694  1.0000
  C   C605      1.0  0.03967  0.80277  0.41335  1.0000
  C   C606      1.0  0.03671  0.81667  0.40916  1.0000
  H   H996      1.0  0.02350  0.81938  0.38293  1.0000
  H   H997      1.0  0.08106  0.90279  0.45688  1.0000
  H   H998      1.0  0.04465  0.79811  0.42148  1.0000
  H   H999      1.0  0.03930  0.82270  0.41421  1.0000
  H   H1000     1.0  0.09344  0.48608  0.05705  1.0000
  H   H1001     1.0  0.04057  0.80311  0.44302  1.0000
  C   C607      1.0  0.98854  0.68563  0.47091  1.0000
  C   C608      1.0  0.03747  0.83715  0.46476  1.0000
  C   C609      1.0  0.04149  0.84915  0.45861  1.0000
  C   C610      1.0  0.04450  0.85616  0.46620  1.0000
  H   H1002     1.0  0.99365  0.81809  0.36860  1.0000
  H   H1003     1.0  0.02489  0.62196  0.35971  1.0000
  H   H1004     1.0  0.04231  0.85304  0.44799  1.0000
  H   H1005     1.0  0.04750  0.86550  0.46143  1.0000
  H   H1006     1.0  0.00804  0.61982  0.34965  1.0000
  H   H1007     1.0  0.05501  0.79014  0.44119  1.0000
  C   C611      1.0  0.01578  0.58199  0.28669  1.0000
  C   C612      1.0  0.01587  0.70304  0.46900  1.0000
  H   H1008     1.0  0.01456  0.49158  0.13443  1.0000
  H   H1009     1.0  0.08108  0.48590  0.34986  1.0000
  H   H1010     1.0  0.07659  0.76499  0.47980  1.0000
  C   C613      1.0  0.02259  0.49997  0.31053  1.0000
  C   C614      1.0  0.01360  0.54972  0.17797  1.0000
  H   H1011     1.0  0.06498  0.65263  0.45145  1.0000
  N   N45       1.0  0.00533  0.71346  0.38658  1.0000
  C   C615      1.0  0.17000  0.91358  0.42466  1.0000
  Fe  Fe91      1.0  0.12409  0.54140  0.03314  1.0000
  H   H1012     1.0  0.08426  0.88618  0.38110  1.0000
  H   H1013     1.0  0.01732  0.67954  0.38527  1.0000
  C   C616      1.0  0.07811  0.52131  0.31059  1.0000
  C   C617      1.0  0.98990  0.56307  0.16441  1.0000
  C   C618      1.0  0.07103  0.79778  0.47846  1.0000
  C   C619      1.0  0.01433  0.59604  0.28881  1.0000
  H   H1014     1.0  0.02786  0.79469  0.39104  1.0000
  H   H1015     1.0  0.09497  0.51345  0.28910  1.0000
  C   C620      1.0  0.07217  0.86609  0.40247  1.0000
  H   H1016     1.0  0.99694  0.60365  0.47709  1.0000
  H   H1017     1.0  0.17825  0.57506  0.98495  1.0000
  H   H1018     1.0  0.07513  0.51728  0.32155  1.0000
  H   H1019     1.0  0.01228  0.49664  0.20195  1.0000
  C   C621      1.0  0.99619  0.81020  0.44786  1.0000
  H   H1020     1.0  0.02141  0.59543  0.29488  1.0000
  H   H1021     1.0  0.99531  0.73098  0.37416  1.0000
  H   H1022     1.0  0.08233  0.89048  0.36404  1.0000
  H   H1023     1.0  0.99596  0.55986  0.27412  1.0000
  H   H1024     1.0  0.07515  0.90218  0.37455  1.0000
  C   C622      1.0  0.06423  0.88666  0.37912  1.0000
  H   H1025     1.0  0.10111  0.56178  0.40250  1.0000
  C   C623      1.0  0.07467  0.86328  0.38848  1.0000
  H   H1026     1.0  0.01393  0.73655  0.38775  1.0000
  H   H1027     1.0  0.99753  0.56585  0.29716  1.0000
  H   H1028     1.0  0.05246  0.85814  0.38761  1.0000
  H   H1029     1.0  0.17441  0.56286  0.99980  1.0000
  H   H1030     1.0  0.17693  0.53856  0.99425  1.0000
  C   C624      1.0  0.98747  0.65446  0.44648  1.0000
  C   C625      1.0  0.14646  0.96825  0.41798  1.0000
  C   C626      1.0  0.13482  0.87617  0.48068  1.0000
  H   H1031     1.0  0.99959  0.55018  0.40004  1.0000
  C   C627      1.0  0.13401  0.56344  0.04793  1.0000
  H   H1032     1.0  0.12276  0.57311  0.03248  1.0000
  C   C628      1.0  0.11242  0.57247  0.07081  1.0000
  H   H1033     1.0  0.10870  0.91069  0.47183  1.0000
  C   C629      1.0  0.99342  0.60196  0.43930  1.0000
  C   C630      1.0  0.12297  0.49273  0.02771  1.0000
  C   C631      1.0  0.06186  0.49620  0.34608  1.0000
  H   H1034     1.0  0.00259  0.51139  0.12200  1.0000
  H   H1035     1.0  0.08330  0.52572  0.26872  1.0000
  H   H1036     1.0  0.02291  0.54227  0.17933  1.0000
  H   H1037     1.0  0.15122  0.53337  0.07421  1.0000
  H   H1038     1.0  0.14269  0.55687  0.04283  1.0000
  H   H1039     1.0  0.12627  0.55749  0.05128  1.0000
  C   C632      1.0  0.01045  0.76859  0.47396  1.0000
  C   C633      1.0  0.16744  0.98073  0.42111  1.0000
  C   C634      1.0  0.15392  0.49316  0.99742  1.0000
  H   H1040     1.0  0.11228  0.56334  0.07887  1.0000
  H   H1041     1.0  0.14289  0.97818  0.42049  1.0000
  C   C635      1.0  0.01151  0.48931  0.23528  1.0000
  H   H1042     1.0  0.00417  0.49325  0.17960  1.0000
  H   H1043     1.0  0.15045  0.50415  0.99442  1.0000
  H   H1044     1.0  0.98787  0.71746  0.37872  1.0000
  H   H1045     1.0  0.99774  0.54014  0.37638  1.0000
  H   H1046     1.0  0.15144  0.85935  0.47623  1.0000
  S   S178      1.0  0.99165  0.56264  0.23823  1.0000
  H   H1047     1.0  0.15502  0.57560  0.99027  1.0000
  S   S179      1.0  0.00968  0.54577  0.11748  1.0000
  S   S180      1.0  0.04200  0.51041  0.15893  1.0000
  H   H1048     1.0  0.15953  0.58755  0.04523  1.0000
  H   H1049     1.0  0.99690  0.73400  0.47015  1.0000
  H   H1050     1.0  0.15214  0.89204  0.45089  1.0000
  C   C636      1.0  0.99800  0.48973  0.31254  1.0000
  H   H1051     1.0  0.14485  0.48952  0.00315  1.0000
  H   H1052     1.0  0.01357  0.79898  0.45646  1.0000
  C   C637      1.0  0.18568  0.53483  0.03116  1.0000
  H   H1053     1.0  0.99486  0.71811  0.47962  1.0000
  H   H1054     1.0  0.05926  0.88911  0.38904  1.0000
  H   H1055     1.0  0.07971  0.48906  0.04964  1.0000
  C   C638      1.0  0.99018  0.57612  0.38328  1.0000
  S   S181      1.0  0.04220  0.54213  0.12784  1.0000
  Fe  Fe92      1.0  0.15401  0.53635  0.02915  1.0000
  H   H1056     1.0  0.17156  0.49462  0.00320  1.0000
  S   S182      1.0  0.04883  0.53404  0.09863  1.0000
  C   C639      1.0  0.00040  0.85354  0.47482  1.0000
  Fe  Fe93      1.0  0.14245  0.53422  0.00717  1.0000
  C   C640      1.0  0.00611  0.53466  0.09857  1.0000
  H   H1057     1.0  0.01489  0.71554  0.35905  1.0000
  H   H1058     1.0  0.06179  0.49303  0.23454  1.0000
  H   H1059     1.0  0.12784  0.87238  0.47757  1.0000
  H   H1060     1.0  0.06544  0.87731  0.35855  1.0000
  H   H1061     1.0  0.98700  0.49470  0.26752  1.0000
  H   H1062     1.0  0.00171  0.56684  0.18687  1.0000
  H   H1063     1.0  0.00985  0.81665  0.45565  1.0000
  H   H1064     1.0  0.15623  0.90691  0.45856  1.0000
  H   H1065     1.0  0.00437  0.60028  0.29417  1.0000
  H   H1066     1.0  0.13919  0.55524  0.07965  1.0000
  H   H1067     1.0  0.07471  0.62101  0.39023  1.0000
  H   H1068     1.0  0.01587  0.63864  0.35340  1.0000
  N   N46       1.0  0.08602  0.51224  0.06327  1.0000
  H   H1069     1.0  0.08126  0.87062  0.36217  1.0000
  C   C641      1.0  0.99251  0.76006  0.47233  1.0000
  H   H1070     1.0  0.04454  0.87460  0.36676  1.0000
  H   H1071     1.0  0.07793  0.49737  0.21412  1.0000
  H   H1072     1.0  0.09568  0.58393  0.40345  1.0000
  H   H1073     1.0  0.07201  0.54124  0.29771  1.0000
  C   C642      1.0  0.08827  0.97366  0.43792  1.0000
  Fe  Fe94      1.0  0.12406  0.92115  0.42547  1.0000
  C   C643      1.0  0.09039  0.87968  0.47716  1.0000
  H   H1074     1.0  0.02261  0.69823  0.46088  1.0000
  C   C644      1.0  0.07040  0.53592  0.30828  1.0000
  H   H1075     1.0  0.98950  0.87789  0.46252  1.0000
  H   H1076     1.0  0.13575  0.94690  0.45856  1.0000
  H   H1077     1.0  0.08520  0.50608  0.28410  1.0000
  H   H1078     1.0  0.07511  0.85505  0.35371  1.0000
  H   H1079     1.0  0.02618  0.50783  0.31248  1.0000
  C   C645      1.0  0.98702  0.57283  0.47021  1.0000
  H   H1080     1.0  0.11689  0.97355  0.47060  1.0000
  C   C646      1.0  0.07133  0.58287  0.42286  1.0000
  H   H1081     1.0  0.10399  0.51078  0.04766  1.0000
  H   H1082     1.0  0.14761  0.96923  0.40712  1.0000
  H   H1083     1.0  0.08633  0.60700  0.38491  1.0000
  C   C647      1.0  0.16876  0.93361  0.40153  1.0000
  H   H1084     1.0  0.12663  0.52402  0.99331  1.0000
  H   H1085     1.0  0.10647  0.97534  0.45342  1.0000
  H   H1086     1.0  0.02453  0.67089  0.46639  1.0000
  H   H1087     1.0  0.06311  0.49084  0.14777  1.0000
  C   C648      1.0  0.00133  0.53757  0.32447  1.0000
  H   H1088     1.0  0.06206  0.58912  0.42767  1.0000
  H   H1089     1.0  0.08514  0.86368  0.38351  1.0000
  H   H1090     1.0  0.99039  0.81944  0.47275  1.0000
  N   N47       1.0  0.00507  0.49740  0.29969  1.0000
  C   C649      1.0  0.99294  0.54001  0.33657  1.0000
  C   C650      1.0  0.14575  0.89452  0.47658  1.0000
  H   H1091     1.0  0.16830  0.94121  0.39244  1.0000
  H   H1092     1.0  0.01109  0.59198  0.24978  1.0000
  C   C651      1.0  0.07914  0.76984  0.46910  1.0000
  C   C652      1.0  0.04917  0.67447  0.45691  1.0000
  H   H1093     1.0  0.08033  0.80127  0.47338  1.0000
  H   H1094     1.0  0.08605  0.49022  0.22766  1.0000
  H   H1095     1.0  0.00497  0.89125  0.45968  1.0000
  C   C653      1.0  0.98880  0.49619  0.16172  1.0000
  C   C654      1.0  0.99302  0.61417  0.39990  1.0000
  H   H1096     1.0  0.99740  0.69607  0.38949  1.0000
  C   C655      1.0  0.08039  0.48803  0.22162  1.0000
  C   C656      1.0  0.09950  0.87733  0.46362  1.0000
  H   H1097     1.0  0.15390  0.91177  0.47379  1.0000
  H   H1098     1.0  0.08517  0.76177  0.46389  1.0000
  H   H1099     1.0  0.10501  0.58063  0.07503  1.0000
  H   H1100     1.0  0.02127  0.59349  0.25981  1.0000
  H   H1101     1.0  0.10909  0.87075  0.46539  1.0000
  C   C657      1.0  0.99420  0.57592  0.29112  1.0000
  H   H1102     1.0  0.14407  0.59229  0.05613  1.0000
  C   C658      1.0  0.99230  0.87776  0.47186  1.0000
  H   H1103     1.0  0.01519  0.49548  0.10567  1.0000
  H   H1104     1.0  0.16217  0.95068  0.41981  1.0000
  C   C659      1.0  0.02583  0.72300  0.46292  1.0000
  H   H1105     1.0  0.02781  0.68992  0.38474  1.0000
  H   H1106     1.0  0.02283  0.64819  0.47763  1.0000
  C   C660      1.0  0.11829  0.48741  0.01985  1.0000
  H   H1107     1.0  0.00373  0.51294  0.30962  1.0000
  H   H1108     1.0  0.01029  0.55649  0.26144  1.0000
  H   H1109     1.0  0.13919  0.88332  0.44305  1.0000
  C   C661      1.0  0.07078  0.86965  0.36582  1.0000
  H   H1110     1.0  0.04402  0.64572  0.47967  1.0000
  C   C662      1.0  0.05190  0.86904  0.38551  1.0000
  C   C663      1.0  0.99817  0.53204  0.09157  1.0000
  H   H1111     1.0  0.03740  0.68492  0.44157  1.0000
  H   H1112     1.0  0.98787  0.85980  0.41234  1.0000
  H   H1113     1.0  0.00278  0.52711  0.08335  1.0000
  H   H1114     1.0  0.15645  0.95795  0.43380  1.0000
  H   H1115     1.0  0.00110  0.53347  0.39851  1.0000
  H   H1116     1.0  0.05692  0.52515  0.06721  1.0000
  H   H1117     1.0  0.01929  0.49366  0.32043  1.0000
  H   H1118     1.0  0.07405  0.87586  0.40202  1.0000
  H   H1119     1.0  0.05477  0.59542  0.40320  1.0000
  C   C664      1.0  0.07409  0.60265  0.40534  1.0000
  H   H1120     1.0  0.06899  0.87351  0.47603  1.0000
  H   H1121     1.0  0.13856  0.57740  0.02870  1.0000
  H   H1122     1.0  0.14022  0.91565  0.46623  1.0000
  H   H1123     1.0  0.98812  0.49506  0.06980  1.0000
  H   H1124     1.0  0.03827  0.80055  0.46599  1.0000
  H   H1125     1.0  0.09704  0.52554  0.02965  1.0000
  H   H1126     1.0  0.98792  0.55125  0.47814  1.0000
  C   C665      1.0  0.98719  0.58490  0.30114  1.0000
  H   H1127     1.0  0.08581  0.56106  0.41375  1.0000
  H   H1128     1.0  0.06000  0.91541  0.47181  1.0000
  S   S183      1.0  0.15780  0.52043  0.01799  1.0000
  C   C666      1.0  0.00409  0.71638  0.36198  1.0000
  C   C667      1.0  0.07068  0.85579  0.36427  1.0000
  H   H1129     1.0  0.01706  0.71778  0.44392  1.0000
  Fe  Fe95      1.0  0.03136  0.53627  0.11596  1.0000
  H   H1130     1.0  0.08695  0.56281  0.39615  1.0000
  H   H1131     1.0  0.00013  0.72459  0.35415  1.0000
  H   H1132     1.0  0.99492  0.83755  0.45679  1.0000
  C   C668      1.0  0.00984  0.80896  0.45057  1.0000
  H   H1133     1.0  0.08902  0.58476  0.39004  1.0000
  C   C669      1.0  0.12701  0.94393  0.46531  1.0000
  H   H1134     1.0  0.05072  0.48886  0.19404  1.0000
  H   H1135     1.0  0.06695  0.53532  0.05407  1.0000
  C   C670      1.0  0.08753  0.58117  0.40107  1.0000
  H   H1136     1.0  0.08450  0.59189  0.42864  1.0000
  H   H1137     1.0  0.12858  0.57750  0.07509  1.0000
  H   H1138     1.0  0.09130  0.48897  0.11281  1.0000
  H   H1139     1.0  0.03178  0.64183  0.46285  1.0000
  H   H1140     1.0  0.00271  0.53902  0.30355  1.0000
  N   N48       1.0  0.06540  0.87218  0.37973  1.0000
  H   H1141     1.0  0.13174  0.49117  0.98985  1.0000
  H   H1142     1.0  0.05968  0.53666  0.31246  1.0000
  N   N49       1.0  0.00282  0.54276  0.17923  1.0000
  H   H1143     1.0  0.07271  0.92399  0.46212  1.0000
  H   H1144     1.0  0.07908  0.85843  0.40819  1.0000
  H   H1145     1.0  0.99918  0.57097  0.38722  1.0000
  H   H1146     1.0  0.10864  0.51437  0.07142  1.0000
  H   H1147     1.0  0.06889  0.60946  0.38545  1.0000
  H   H1148     1.0  0.01913  0.56372  0.18553  1.0000
  H   H1149     1.0  0.08187  0.60421  0.40932  1.0000
  H   H1150     1.0  0.17548  0.94182  0.43803  1.0000
  C   C671      1.0  0.99837  0.50108  0.34649  1.0000
  C   C672      1.0  0.00420  0.49536  0.13954  1.0000
  C   C673      1.0  0.07046  0.91555  0.47057  1.0000
  C   C674      1.0  0.05857  0.48677  0.21128  1.0000
  C   C675      1.0  0.07825  0.50440  0.05993  1.0000
  H   H1151     1.0  0.15429  0.56921  0.06425  1.0000
  C   C676      1.0  0.00070  0.59234  0.27061  1.0000
  H   H1152     1.0  0.01649  0.53183  0.14899  1.0000
  N   N50       1.0  0.05704  0.78752  0.46926  1.0000
  H   H1153     1.0  0.99358  0.58428  0.30791  1.0000
  C   C677      1.0  0.00297  0.54344  0.39299  1.0000
  C   C678      1.0  0.01070  0.55883  0.18782  1.0000
  H   H1154     1.0  0.98940  0.51412  0.13594  1.0000
  C   C679      1.0  0.05176  0.65153  0.44004  1.0000
  C   C680      1.0  0.99563  0.50555  0.29087  1.0000
  H   H1155     1.0  0.00209  0.55551  0.37323  1.0000
  H   H1156     1.0  0.03037  0.49989  0.28164  1.0000
  H   H1157     1.0  0.01103  0.50749  0.22014  1.0000
  H   H1158     1.0  0.08617  0.53491  0.27899  1.0000
  H   H1159     1.0  0.00500  0.63989  0.37788  1.0000
  H   H1160     1.0  0.07090  0.97387  0.43074  1.0000
  H   H1161     1.0  0.07883  0.57847  0.44084  1.0000
  H   H1162     1.0  0.98848  0.78944  0.46534  1.0000
  C   C681      1.0  0.15813  0.91840  0.42021  1.0000
  H   H1163     1.0  0.01934  0.69321  0.37131  1.0000
  H   H1164     1.0  0.99295  0.57866  0.37224  1.0000
  C   C682      1.0  0.16164  0.56670  0.98673  1.0000
  H   H1165     1.0  0.09434  0.49928  0.32116  1.0000
  H   H1166     1.0  0.99004  0.55666  0.46046  1.0000
  C   C683      1.0  0.00022  0.54148  0.10892  1.0000
  H   H1167     1.0  0.00944  0.54866  0.15003  1.0000
  H   H1168     1.0  0.05974  0.67320  0.45694  1.0000
  C   C684      1.0  0.04599  0.65593  0.47599  1.0000
  N   N51       1.0  0.99167  0.86456  0.48157  1.0000
  H   H1169     1.0  0.05506  0.90168  0.46339  1.0000
  H   H1170     1.0  0.01085  0.85439  0.47149  1.0000
  C   C685      1.0  0.03825  0.71681  0.45347  1.0000
  S   S184      1.0  0.17012  0.54549  0.02998  1.0000
  H   H1171     1.0  0.04764  0.87179  0.39535  1.0000
  H   H1172     1.0  0.00393  0.49521  0.35431  1.0000
  C   C686      1.0  0.13899  0.55337  0.06997  1.0000
  C   C687      1.0  0.12608  0.57611  0.06621  1.0000
  H   H1173     1.0  0.11012  0.49327  0.01529  1.0000
  H   H1174     1.0  0.04152  0.70602  0.45747  1.0000
  H   H1175     1.0  0.00995  0.50886  0.15516  1.0000
  H   H1176     1.0  0.07442  0.88326  0.46006  1.0000
  C   C688      1.0  0.01896  0.73166  0.37926  1.0000
  H   H1177     1.0  0.02385  0.73403  0.45914  1.0000
  H   H1178     1.0  0.99664  0.51612  0.19020  1.0000
  H   H1179     1.0  0.00657  0.69980  0.47056  1.0000
  H   H1180     1.0  0.08875  0.52150  0.30858  1.0000
  C   C689      1.0  0.04369  0.85107  0.47990  1.0000
  H   H1181     1.0  0.17841  0.51678  0.03880  1.0000
  C   C690      1.0  0.00064  0.53411  0.19319  1.0000
  C   C691      1.0  0.02477  0.48959  0.10725  1.0000
  H   H1182     1.0  0.00403  0.58788  0.47279  1.0000
  H   H1183     1.0  0.05457  0.67735  0.43499  1.0000
  H   H1184     1.0  0.98675  0.49018  0.11222  1.0000
  C   C692      1.0  0.98933  0.63521  0.36471  1.0000
  H   H1185     1.0  0.06053  0.85411  0.36654  1.0000
  C   C693      1.0  0.06948  0.88391  0.47057  1.0000
  H   H1186     1.0  0.10201  0.49522  0.06762  1.0000
  H   H1187     1.0  0.99594  0.54031  0.20077  1.0000
  H   H1188     1.0  0.09475  0.51523  0.08572  1.0000
  C   C694      1.0  0.04771  0.68245  0.44280  1.0000
  C   C695      1.0  0.01244  0.49786  0.15772  1.0000
  C   C696      1.0  0.08050  0.49814  0.30992  1.0000
  H   H1189     1.0  0.01623  0.55593  0.16784  1.0000
  C   C697      1.0  0.09529  0.51842  0.05117  1.0000
  H   H1190     1.0  0.07328  0.49565  0.31942  1.0000
  H   H1191     1.0  0.98819  0.64107  0.43456  1.0000
  C   C698      1.0  0.09427  0.50260  0.07273  1.0000
  H   H1192     1.0  0.13034  0.90540  0.45724  1.0000
  C   C699      1.0  0.99643  0.71869  0.45177  1.0000
  C   C700      1.0  0.08072  0.52754  0.27898  1.0000
  H   H1193     1.0  0.16611  0.97654  0.39817  1.0000
  H   H1194     1.0  0.09206  0.49859  0.04182  1.0000
  H   H1195     1.0  0.17060  0.90564  0.43347  1.0000
  H   H1196     1.0  0.99342  0.67778  0.45328  1.0000
  H   H1197     1.0  0.01025  0.52827  0.19572  1.0000
  C   C701      1.0  0.07733  0.89145  0.37441  1.0000
  S   S185      1.0  0.14003  0.49225  0.04269  1.0000
  H   H1198     1.0  0.00987  0.55315  0.19832  1.0000
  C   C702      1.0  0.05934  0.65480  0.47927  1.0000
  H   H1199     1.0  0.09530  0.87214  0.45871  1.0000
  C   C703      1.0  0.99928  0.76316  0.48012  1.0000
  H   H1200     1.0  0.06005  0.53960  0.06977  1.0000
  H   H1201     1.0  0.10167  0.88663  0.45659  1.0000
  C   C704      1.0  0.08946  0.52675  0.03896  1.0000
  H   H1202     1.0  0.08218  0.52980  0.07110  1.0000
  H   H1203     1.0  0.07933  0.48541  0.14991  1.0000
  S   S186      1.0  0.14458  0.91100  0.42890  1.0000
  H   H1204     1.0  0.03167  0.50650  0.18715  1.0000
  H   H1205     1.0  0.09327  0.96663  0.44569  1.0000
  H   H1206     1.0  0.01607  0.55967  0.28086  1.0000
  H   H1207     1.0  0.15746  0.56526  0.04840  1.0000
  C   C705      1.0  0.99640  0.54135  0.31280  1.0000
  H   H1208     1.0  0.03240  0.87209  0.38177  1.0000
  H   H1209     1.0  0.02938  0.73272  0.37660  1.0000
  C   C706      1.0  0.11667  0.90359  0.47651  1.0000
  C   C707      1.0  0.01880  0.71671  0.38293  1.0000
  H   H1210     1.0  0.06680  0.58770  0.39102  1.0000
  H   H1211     1.0  0.98841  0.76280  0.36183  1.0000
  S   S187      1.0  0.06159  0.49540  0.10056  1.0000
  H   H1212     1.0  0.04881  0.48476  0.13450  1.0000
  H   H1213     1.0  0.98815  0.72153  0.46002  1.0000
  C   C708      1.0  0.01114  0.59647  0.25795  1.0000
  H   H1214     1.0  0.13739  0.86970  0.45732  1.0000
  H   H1215     1.0  0.01146  0.53227  0.32425  1.0000
  H   H1216     1.0  0.00375  0.50902  0.34050  1.0000
  N   N52       1.0  0.13716  0.56627  0.05961  1.0000
  H   H1217     1.0  0.14477  0.58929  0.04005  1.0000
  N   N53       1.0  0.01351  0.71797  0.46496  1.0000
  C   C709      1.0  0.07268  0.48538  0.34655  1.0000
  H   H1218     1.0  0.99580  0.63831  0.35491  1.0000
  H   H1219     1.0  0.01697  0.60306  0.27917  1.0000
  H   H1220     1.0  0.14837  0.93231  0.40519  1.0000
  C   C710      1.0  0.06163  0.51465  0.30321  1.0000
  S   S188      1.0  0.10846  0.91325  0.44214  1.0000
  C   C711      1.0  0.18139  0.54272  0.98365  1.0000
  H   H1221     1.0  0.13053  0.54851  0.07219  1.0000
  H   H1222     1.0  0.01676  0.53174  0.09575  1.0000
  C   C712      1.0  0.14929  0.58591  0.04882  1.0000
  C   C713      1.0  0.01846  0.69003  0.38222  1.0000
  C   C714      1.0  0.14993  0.57104  0.05542  1.0000
  C   C715      1.0  0.01944  0.63170  0.36212  1.0000
  C   C716      1.0  0.99777  0.71997  0.37569  1.0000
  C   C717      1.0  0.99625  0.59303  0.48005  1.0000
  H   H1223     1.0  0.05381  0.49737  0.21164  1.0000
  C   C718      1.0  0.16239  0.98122  0.43599  1.0000
  H   H1224     1.0  0.07275  0.51801  0.08111  1.0000
  C   C719      1.0  0.00652  0.69855  0.39016  1.0000
  H   H1225     1.0  0.05779  0.89315  0.37224  1.0000
  H   H1226     1.0  0.00807  0.73315  0.44812  1.0000
  H   H1227     1.0  0.99603  0.60104  0.27530  1.0000
  H   H1228     1.0  0.06455  0.60800  0.41072  1.0000
  S   S189      1.0  0.08816  0.89694  0.43144  1.0000
  C   C720      1.0  0.11179  0.97412  0.48106  1.0000
  C   C721      1.0  0.15928  0.96047  0.42274  1.0000
  H   H1229     1.0  0.06509  0.56503  0.40828  1.0000
  H   H1230     1.0  0.03700  0.71867  0.44312  1.0000
  H   H1231     1.0  0.00903  0.60748  0.25454  1.0000
  C   C722      1.0  0.00851  0.63009  0.37494  1.0000
  H   H1232     1.0  0.05736  0.52508  0.29882  1.0000
  H   H1233     1.0  0.06772  0.64897  0.47306  1.0000
  H   H1234     1.0  0.07006  0.53203  0.28071  1.0000
  Fe  Fe96      1.0  0.09707  0.91523  0.42678  1.0000
  C   C723      1.0  0.00123  0.61139  0.37157  1.0000
  H   H1235     1.0  0.08996  0.90386  0.46801  1.0000
  C   C724      1.0  0.01161  0.49692  0.22227  1.0000
  C   C725      1.0  0.00763  0.61025  0.35691  1.0000
  H   H1236     1.0  0.01712  0.81027  0.44087  1.0000
  H   H1237     1.0  0.01367  0.62326  0.38272  1.0000
  H   H1238     1.0  0.08663  0.53749  0.03916  1.0000
  H   H1239     1.0  0.15258  0.54021  0.05678  1.0000
  H   H1240     1.0  0.00840  0.60493  0.37767  1.0000
  C   C726      1.0  0.03663  0.83206  0.47842  1.0000
  H   H1241     1.0  0.15544  0.97469  0.44158  1.0000
  H   H1242     1.0  0.99137  0.79660  0.38460  1.0000
  C   C727      1.0  0.98709  0.79803  0.46988  1.0000
  H   H1243     1.0  0.03113  0.49404  0.30460  1.0000
  H   H1244     1.0  0.07668  0.84765  0.37052  1.0000
  H   H1245     1.0  0.00173  0.70705  0.36168  1.0000
  H   H1246     1.0  0.01789  0.60419  0.35620  1.0000
  S   S190      1.0  0.11358  0.92165  0.40978  1.0000
  H   H1247     1.0  0.05563  0.80580  0.44426  1.0000
  H   H1248     1.0  0.00899  0.80871  0.37283  1.0000
  H   H1249     1.0  0.05105  0.57475  0.41793  1.0000
  C   C728      1.0  0.98955  0.81950  0.40949  1.0000
  C   C729      1.0  0.99626  0.54874  0.38093  1.0000
  H   H1250     1.0  0.98881  0.82857  0.41298  1.0000
  C   C730      1.0  0.05753  0.57442  0.40786  1.0000
  C   C731      1.0  0.05463  0.65144  0.45347  1.0000
  S   S191      1.0  0.11530  0.94232  0.42705  1.0000
  H   H1251     1.0  0.01608  0.57481  0.29650  1.0000
  H   H1252     1.0  0.02140  0.57069  0.26586  1.0000
  H   H1253     1.0  0.06941  0.57272  0.42579  1.0000
  H   H1254     1.0  0.00657  0.49171  0.08011  1.0000
  H   H1255     1.0  0.10222  0.49625  0.30454  1.0000
  N   N54       1.0  0.99693  0.62512  0.37448  1.0000
  C   C732      1.0  0.99898  0.81432  0.37687  1.0000
  C   C733      1.0  0.00935  0.72222  0.45177  1.0000
  H   H1256     1.0  0.16072  0.54573  0.06615  1.0000
  C   C734      1.0  0.07675  0.52267  0.07054  1.0000
  C   C735      1.0  0.04815  0.48789  0.10492  1.0000
  H   H1257     1.0  0.08069  0.49110  0.30391  1.0000
  H   H1258     1.0  0.07075  0.51088  0.05429  1.0000
  C   C736      1.0  0.06458  0.53103  0.06488  1.0000
  C   C737      1.0  0.09030  0.56588  0.40353  1.0000
  H   H1259     1.0  0.17406  0.95606  0.44470  1.0000
  C   C738      1.0  0.01478  0.53913  0.15523  1.0000
  H   H1260     1.0  0.08095  0.52370  0.03787  1.0000
  C   C739      1.0  0.08229  0.58209  0.42991  1.0000
  C   C740      1.0  0.03556  0.49565  0.10372  1.0000
  H   H1261     1.0  0.06200  0.76870  0.46335  1.0000
  H   H1262     1.0  0.12464  0.58619  0.05965  1.0000
  C   C741      1.0  0.07534  0.96930  0.43960  1.0000
  H   H1263     1.0  0.00081  0.50899  0.07366  1.0000
  C   C742      1.0  0.17424  0.96942  0.40262  1.0000
  H   H1264     1.0  0.04581  0.66088  0.43528  1.0000
  C   C743      1.0  0.03097  0.66316  0.46085  1.0000
  C   C744      1.0  0.08023  0.90260  0.46754  1.0000
  C   C745      1.0  0.01535  0.48773  0.29218  1.0000
  H   H1265     1.0  0.99702  0.80151  0.44366  1.0000
  C   C746      1.0  0.15162  0.54270  0.06641  1.0000
  H   H1266     1.0  0.09486  0.97151  0.42832  1.0000
  C   C747      1.0  0.02513  0.65060  0.46654  1.0000
  H   H1267     1.0  0.99266  0.60650  0.37485  1.0000
  H   H1268     1.0  0.00216  0.60487  0.35357  1.0000
  H   H1269     1.0  0.02937  0.66708  0.45055  1.0000
  H   H1270     1.0  0.13859  0.96258  0.42312  1.0000
  C   C748      1.0  0.10166  0.50878  0.07906  1.0000
  C   C749      1.0  0.06340  0.58694  0.40201  1.0000
  C   C750      1.0  0.14914  0.90791  0.46816  1.0000
  S   S192      1.0  0.03540  0.51474  0.12591  1.0000
  H   H1271     1.0  0.09150  0.57494  0.42663  1.0000
  H   H1272     1.0  0.04252  0.50364  0.34154  1.0000
  H   H1273     1.0  0.04706  0.64318  0.44122  1.0000
  H   H1274     1.0  0.99486  0.81890  0.43948  1.0000
  H   H1275     1.0  0.05532  0.80833  0.46830  1.0000
  S   S193      1.0  0.01049  0.49649  0.24848  1.0000
  C   C751      1.0  0.18120  0.91879  0.41761  1.0000
  H   H1276     1.0  0.06130  0.64948  0.43275  1.0000
  H   H1277     1.0  0.00157  0.61633  0.40201  1.0000
  H   H1278     1.0  0.05056  0.69210  0.44092  1.0000
  C   C752      1.0  0.18270  0.95841  0.42290  1.0000
  H   H1279     1.0  0.12448  0.58465  0.04030  1.0000
  H   H1280     1.0  0.99545  0.60384  0.39846  1.0000
  S   S194      1.0  0.12541  0.52641  0.02154  1.0000
  H   H1281     1.0  0.07441  0.87565  0.43929  1.0000
  H   H1282     1.0  0.11457  0.97214  0.43703  1.0000
  H   H1283     1.0  0.99327  0.72416  0.44231  1.0000
  H   H1284     1.0  0.99801  0.64959  0.44638  1.0000
  C   C753      1.0  0.12736  0.89723  0.46570  1.0000
  C   C754      1.0  0.02466  0.49389  0.27955  1.0000
  H   H1285     1.0  0.01829  0.50056  0.17458  1.0000
  H   H1286     1.0  0.98902  0.51802  0.15602  1.0000
  H   H1287     1.0  0.99726  0.67949  0.47437  1.0000
  C   C755      1.0  0.18068  0.92868  0.40590  1.0000
  C   C756      1.0  0.13365  0.48530  0.03348  1.0000
  C   C757      1.0  0.01378  0.49355  0.17239  1.0000
  H   H1288     1.0  0.99236  0.59104  0.26726  1.0000
  C   C758      1.0  0.17567  0.56511  0.98872  1.0000
  H   H1289     1.0  0.99090  0.49657  0.31875  1.0000
  N   N55       1.0  0.17078  0.96729  0.41768  1.0000
  H   H1290     1.0  0.99236  0.56506  0.35631  1.0000
  H   H1291     1.0  0.98717  0.66426  0.43941  1.0000
  C   C759      1.0  0.99190  0.52400  0.19595  1.0000
  H   H1292     1.0  0.12056  0.90939  0.48103  1.0000
  H   H1293     1.0  0.08957  0.49153  0.12900  1.0000
  H   H1294     1.0  0.00570  0.51648  0.13504  1.0000
  H   H1295     1.0  0.17558  0.95993  0.39956  1.0000
  H   H1296     1.0  0.99692  0.50269  0.09121  1.0000
  H   H1297     1.0  0.08457  0.97246  0.46440  1.0000
  C   C760      1.0  0.00021  0.51022  0.13302  1.0000
  H   H1298     1.0  0.06840  0.48715  0.20453  1.0000
  H   H1299     1.0  0.99495  0.72998  0.39619  1.0000
  H   H1300     1.0  0.00074  0.51191  0.28195  1.0000
  S   S195      1.0  0.98954  0.75702  0.44874  1.0000
  H   H1301     1.0  0.04905  0.89239  0.48019  1.0000
  H   H1302     1.0  0.01384  0.54230  0.38939  1.0000
  H   H1303     1.0  0.17076  0.97894  0.44096  1.0000
  H   H1304     1.0  0.99861  0.80001  0.39574  1.0000
  H   H1305     1.0  0.98784  0.55932  0.15668  1.0000
  C   C761      1.0  0.05526  0.89171  0.47011  1.0000
  H   H1306     1.0  0.02894  0.72129  0.47243  1.0000
  H   H1307     1.0  0.07173  0.91779  0.47962  1.0000
  C   C762      1.0  0.98779  0.62447  0.38815  1.0000
  H   H1308     1.0  0.99868  0.49495  0.33961  1.0000
  N   N56       1.0  0.07736  0.88952  0.47643  1.0000
  H   H1309     1.0  0.10466  0.98388  0.48059  1.0000
  H   H1310     1.0  0.98996  0.66174  0.41817  1.0000
  C   C763      1.0  0.99192  0.80486  0.38867  1.0000
  H   H1311     1.0  0.15517  0.88791  0.47888  1.0000
  H   H1312     1.0  0.18664  0.88713  0.46961  1.0000
  H   H1313     1.0  0.98700  0.48962  0.17187  1.0000
  C   C764      1.0  0.12993  0.52554  0.98258  1.0000
  H   H1314     1.0  0.18078  0.48596  0.98449  1.0000
  H   H1315     1.0  0.16913  0.51083  0.98254  1.0000
  N   N57       1.0  0.18661  0.55465  0.98279  1.0000
  H   H1316     1.0  0.01921  0.69898  0.57533  1.0000
  Fe  Fe97      1.0  0.06916  0.84756  0.52731  1.0000
  S   S196      1.0  0.04765  0.85392  0.52662  1.0000
  S   S197      1.0  0.07518  0.86289  0.53409  1.0000
  Fe  Fe98      1.0  0.07194  0.82183  0.51859  1.0000
  S   S198      1.0  0.05088  0.82633  0.51714  1.0000
  S   S199      1.0  0.08603  0.80332  0.51312  1.0000
  H   H1317     1.0  0.11206  0.89608  0.48451  1.0000
  H   H1318     1.0  0.99825  0.77182  0.52796  1.0000
  Fe  Fe99      1.0  0.04650  0.83275  0.53638  1.0000
  S   S200      1.0  0.02952  0.82657  0.55269  1.0000
  S   S201      1.0  0.07555  0.84214  0.50729  1.0000
  S   S202      1.0  0.06748  0.82670  0.53879  1.0000
  Fe  Fe100     1.0  0.13677  0.89550  0.51984  1.0000
  S   S203      1.0  0.12488  0.91639  0.51968  1.0000
  S   S204      1.0  0.13136  0.87827  0.51562  1.0000
  Fe  Fe101     1.0  0.16239  0.90308  0.51925  1.0000
  S   S205      1.0  0.15280  0.92459  0.51858  1.0000
  H   H1319     1.0  0.03780  0.55774  0.54676  1.0000
  Fe  Fe102     1.0  0.13638  0.91680  0.53414  1.0000
  S   S206      1.0  0.12655  0.92610  0.55199  1.0000
  Fe  Fe103     1.0  0.14217  0.92263  0.50420  1.0000
  H   H1320     1.0  0.01750  0.80773  0.50569  1.0000
  S   S207      1.0  0.14669  0.89515  0.53593  1.0000
  S   S208      1.0  0.15342  0.90188  0.50334  1.0000
  Fe  Fe104     1.0  0.02846  0.52882  0.85272  1.0000
  S   S209      1.0  0.04423  0.53989  0.84001  1.0000
  S   S210      1.0  0.00759  0.53877  0.86122  1.0000
  Fe  Fe105     1.0  0.04553  0.50227  0.84900  1.0000
  S   S211      1.0  0.06258  0.51078  0.83573  1.0000
  H   H1321     1.0  0.14728  0.96564  0.49446  1.0000
  Fe  Fe106     1.0  0.05836  0.52341  0.85074  1.0000
  S   S212      1.0  0.07773  0.52400  0.85501  1.0000
  Fe  Fe107     1.0  0.04732  0.52640  0.82616  1.0000
  S   S213      1.0  0.04905  0.53487  0.80404  1.0000
  S   S214      1.0  0.04226  0.51353  0.86479  1.0000
  S   S215      1.0  0.03056  0.51669  0.83810  1.0000
  Fe  Fe108     1.0  0.11223  0.53271  0.90669  1.0000
  S   S216      1.0  0.11959  0.51224  0.91824  1.0000
  S   S217      1.0  0.09161  0.53855  0.90254  1.0000
  Fe  Fe109     1.0  0.13685  0.54194  0.90600  1.0000
  S   S218      1.0  0.14611  0.52234  0.91734  1.0000
  S   S219      1.0  0.14798  0.55838  0.89824  1.0000
  Fe  Fe110     1.0  0.13910  0.51398  0.90435  1.0000
  H   H1322     1.0  0.99833  0.58913  0.49019  1.0000
  Fe  Fe111     1.0  0.12581  0.52252  0.93032  1.0000
  S   S220      1.0  0.12186  0.51496  0.95264  1.0000
  S   S221      1.0  0.13145  0.53358  0.89165  1.0000
  S   S222      1.0  0.11687  0.54300  0.92001  1.0000
  S   S223      1.0  0.04183  0.60184  0.52326  1.0000
  N   N58       1.0  0.01033  0.57262  0.55649  1.0000
  C   C765      1.0  0.98697  0.53939  0.71939  1.0000
  H   H1323     1.0  0.00669  0.60081  0.56752  1.0000
  H   H1324     1.0  0.06338  0.50894  0.65498  1.0000
  C   C766      1.0  0.01044  0.67478  0.55586  1.0000
  H   H1325     1.0  0.14505  0.49806  0.93546  1.0000
  C   C767      1.0  0.03123  0.79512  0.54107  1.0000
  S   S224      1.0  0.03806  0.51255  0.64173  1.0000
  H   H1326     1.0  0.13047  0.96468  0.48603  1.0000
  H   H1327     1.0  0.08880  0.54969  0.59774  1.0000
  N   N59       1.0  0.11777  0.97138  0.50370  1.0000
  C   C768      1.0  0.15476  0.49126  0.93625  1.0000
  H   H1328     1.0  0.08723  0.57071  0.59556  1.0000
  C   C769      1.0  0.01709  0.68641  0.51744  1.0000
  H   H1329     1.0  0.01022  0.76905  0.53753  1.0000
  S   S225      1.0  0.03148  0.76075  0.51544  1.0000
  C   C770      1.0  0.10052  0.98365  0.52121  1.0000
  H   H1330     1.0  0.06202  0.54933  0.61716  1.0000
  S   S226      1.0  0.00843  0.60186  0.51788  1.0000
  S   S227      1.0  0.03567  0.54207  0.62094  1.0000
  H   H1331     1.0  0.02864  0.79231  0.55216  1.0000
  H   H1332     1.0  0.11490  0.93200  0.49816  1.0000
  H   H1333     1.0  0.03259  0.70329  0.55240  1.0000
  H   H1334     1.0  0.08944  0.51510  0.92623  1.0000
  H   H1335     1.0  0.02749  0.48537  0.68294  1.0000
  C   C771      1.0  0.05198  0.53176  0.67446  1.0000
  H   H1336     1.0  0.03607  0.70111  0.53538  1.0000
  H   H1337     1.0  0.04565  0.85213  0.60397  1.0000
  C   C772      1.0  0.06097  0.50434  0.67642  1.0000
  H   H1338     1.0  0.98949  0.67507  0.56176  1.0000
  H   H1339     1.0  0.03163  0.65519  0.54770  1.0000
  H   H1340     1.0  0.00793  0.50168  0.58890  1.0000
  H   H1341     1.0  0.00258  0.78676  0.55441  1.0000
  Fe  Fe112     1.0  0.04097  0.50462  0.75102  1.0000
  C   C773      1.0  0.04984  0.84644  0.59594  1.0000
  H   H1342     1.0  0.99956  0.56457  0.58517  1.0000
  Fe  Fe113     1.0  0.04434  0.50597  0.72144  1.0000
  H   H1343     1.0  0.02380  0.71479  0.54039  1.0000
  C   C774      1.0  0.17409  0.55904  0.88866  1.0000
  C   C775      1.0  0.99396  0.52856  0.84933  1.0000
  C   C776      1.0  0.10623  0.98277  0.50648  1.0000
  S   S228      1.0  0.04712  0.51967  0.73248  1.0000
  H   H1344     1.0  0.04856  0.54238  0.67372  1.0000
  C   C777      1.0  0.07790  0.49134  0.73642  1.0000
  H   H1345     1.0  0.01942  0.49318  0.61029  1.0000
  H   H1346     1.0  0.08563  0.55872  0.61821  1.0000
  C   C778      1.0  0.99811  0.61051  0.50680  1.0000
  Fe  Fe114     1.0  0.02493  0.74187  0.52691  1.0000
  C   C779      1.0  0.99509  0.86420  0.49445  1.0000
  H   H1347     1.0  0.99950  0.48836  0.65967  1.0000
  H   H1348     1.0  0.99460  0.79630  0.52438  1.0000
  H   H1349     1.0  0.08882  0.86967  0.48304  1.0000
  H   H1350     1.0  0.17803  0.95632  0.56535  1.0000
  H   H1351     1.0  0.15974  0.49588  0.94099  1.0000
  C   C780      1.0  0.99321  0.73606  0.53923  1.0000
  C   C781      1.0  0.00074  0.55985  0.71162  1.0000
  C   C782      1.0  0.00032  0.49087  0.64868  1.0000
  C   C783      1.0  0.14015  0.53223  0.97592  1.0000
  H   H1352     1.0  0.04933  0.57708  0.60479  1.0000
  H   H1353     1.0  0.09548  0.97540  0.52685  1.0000
  H   H1354     1.0  0.07916  0.53918  0.59710  1.0000
  H   H1355     1.0  0.00606  0.54091  0.67022  1.0000
  H   H1356     1.0  0.16755  0.95887  0.53101  1.0000
  C   C784      1.0  0.14228  0.96246  0.50506  1.0000
  C   C785      1.0  0.08053  0.54491  0.60363  1.0000
  H   H1357     1.0  0.12050  0.95065  0.50381  1.0000
  H   H1358     1.0  0.07159  0.83317  0.57979  1.0000
  H   H1359     1.0  0.03806  0.65655  0.56117  1.0000
  H   H1360     1.0  0.03112  0.79429  0.48775  1.0000
  H   H1361     1.0  0.01235  0.53071  0.65776  1.0000
  H   H1362     1.0  0.98840  0.48825  0.85334  1.0000
  C   C786      1.0  0.00271  0.54970  0.72285  1.0000
  H   H1363     1.0  0.06452  0.50213  0.91590  1.0000
  H   H1364     1.0  0.10371  0.95892  0.50802  1.0000
  N   N60       1.0  0.06858  0.56784  0.60938  1.0000
  H   H1365     1.0  0.02763  0.50697  0.69677  1.0000
  C   C787      1.0  0.04989  0.55855  0.57738  1.0000
  C   C788      1.0  0.04119  0.56669  0.58577  1.0000
  C   C789      1.0  0.03746  0.58047  0.58078  1.0000
  C   C790      1.0  0.04221  0.58617  0.56734  1.0000
  C   C791      1.0  0.05058  0.57799  0.55885  1.0000
  C   C792      1.0  0.05448  0.56423  0.56389  1.0000
  H   H1366     1.0  0.03742  0.56242  0.59611  1.0000
  H   H1367     1.0  0.03090  0.58676  0.58737  1.0000
  H   H1368     1.0  0.99616  0.74308  0.53014  1.0000
  H   H1369     1.0  0.06120  0.55798  0.55734  1.0000
  C   C793      1.0  0.05682  0.50942  0.68801  1.0000
  C   C794      1.0  0.05217  0.52312  0.68705  1.0000
  S   S229      1.0  0.04526  0.72884  0.52291  1.0000
  C   C795      1.0  0.00943  0.81092  0.52618  1.0000
  H   H1370     1.0  0.04652  0.77341  0.48394  1.0000
  H   H1371     1.0  0.04896  0.52710  0.69598  1.0000
  C   C796      1.0  0.18448  0.56490  0.95823  1.0000
  H   H1372     1.0  0.98926  0.52545  0.79572  1.0000
  H   H1373     1.0  0.99092  0.83643  0.48421  1.0000
  C   C797      1.0  0.00588  0.53338  0.60713  1.0000
  C   C798      1.0  0.00205  0.53369  0.59557  1.0000
  H   H1374     1.0  0.00352  0.65242  0.50607  1.0000
  H   H1375     1.0  0.09414  0.50832  0.90583  1.0000
  H   H1376     1.0  0.01814  0.54302  0.81915  1.0000
  Fe  Fe115     1.0  0.04837  0.62017  0.50988  1.0000
  H   H1377     1.0  0.11118  0.96667  0.56914  1.0000
  H   H1378     1.0  0.00987  0.67466  0.54565  1.0000
  N   N61       1.0  0.02106  0.68182  0.55496  1.0000
  C   C799      1.0  0.01731  0.69619  0.54791  1.0000
  C   C800      1.0  0.12837  0.52239  0.96137  1.0000
  C   C801      1.0  0.12404  0.52066  0.97530  1.0000
  C   C802      1.0  0.11375  0.95817  0.50941  1.0000
  C   C803      1.0  0.02820  0.70413  0.54390  1.0000
  C   C804      1.0  0.14430  0.53416  0.96198  1.0000
  C   C805      1.0  0.13842  0.52928  0.95472  1.0000
  H   H1379     1.0  0.13186  0.49224  0.97291  1.0000
  C   C806      1.0  0.01935  0.81265  0.51261  1.0000
  H   H1380     1.0  0.15217  0.53938  0.95677  1.0000
  H   H1381     1.0  0.14182  0.53070  0.94399  1.0000
  Fe  Fe116     1.0  0.02700  0.75627  0.49813  1.0000
  H   H1382     1.0  0.99687  0.49844  0.83925  1.0000
  S   S230      1.0  0.03791  0.60356  0.56167  1.0000
  H   H1383     1.0  0.01245  0.55315  0.77233  1.0000
  H   H1384     1.0  0.01126  0.54077  0.76493  1.0000
  H   H1385     1.0  0.02202  0.54080  0.65952  1.0000
  H   H1386     1.0  0.00843  0.52537  0.81992  1.0000
  H   H1387     1.0  0.07408  0.51334  0.92469  1.0000
  C   C807      1.0  0.06797  0.87861  0.50096  1.0000
  Fe  Fe117     1.0  0.02191  0.61337  0.51977  1.0000
  H   H1388     1.0  0.09775  0.98241  0.50273  1.0000
  C   C808      1.0  0.06410  0.77725  0.51412  1.0000
  H   H1389     1.0  0.04392  0.80047  0.49057  1.0000
  C   C809      1.0  0.08118  0.52804  0.86845  1.0000
  C   C810      1.0  0.09447  0.52589  0.86910  1.0000
  C   C811      1.0  0.09779  0.52883  0.87962  1.0000
  C   C812      1.0  0.08784  0.53427  0.88942  1.0000
  C   C813      1.0  0.07456  0.53653  0.88873  1.0000
  C   C814      1.0  0.07122  0.53331  0.87836  1.0000
  H   H1390     1.0  0.10224  0.52184  0.86146  1.0000
  H   H1391     1.0  0.10805  0.52705  0.88002  1.0000
  H   H1392     1.0  0.06680  0.54079  0.89626  1.0000
  H   H1393     1.0  0.06097  0.53509  0.87791  1.0000
  C   C815      1.0  0.05050  0.52385  0.79396  1.0000
  C   C816      1.0  0.04945  0.52901  0.78060  1.0000
  C   C817      1.0  0.04957  0.52055  0.77261  1.0000
  C   C818      1.0  0.05116  0.50685  0.77784  1.0000
  C   C819      1.0  0.05275  0.50164  0.79101  1.0000
  C   C820      1.0  0.05217  0.51014  0.79916  1.0000
  H   H1394     1.0  0.04827  0.53960  0.77650  1.0000
  H   H1395     1.0  0.04852  0.52462  0.76238  1.0000
  H   H1396     1.0  0.01176  0.86763  0.49982  1.0000
  H   H1397     1.0  0.05313  0.50606  0.80941  1.0000
  C   C821      1.0  0.12739  0.94235  0.55185  1.0000
  C   C822      1.0  0.13641  0.94918  0.54213  1.0000
  C   C823      1.0  0.13630  0.96235  0.54216  1.0000
  H   H1398     1.0  0.03670  0.56489  0.52980  1.0000
  C   C824      1.0  0.11828  0.96185  0.56160  1.0000
  C   C825      1.0  0.11847  0.94871  0.56166  1.0000
  H   H1399     1.0  0.14332  0.94438  0.53452  1.0000
  H   H1400     1.0  0.01723  0.50315  0.81701  1.0000
  H   H1401     1.0  0.01168  0.59228  0.54440  1.0000
  H   H1402     1.0  0.11152  0.94350  0.56924  1.0000
  C   C826      1.0  0.09061  0.77895  0.50780  1.0000
  C   C827      1.0  0.05595  0.52666  0.66288  1.0000
  H   H1403     1.0  0.00438  0.69432  0.57531  1.0000
  C   C828      1.0  0.99575  0.53953  0.72678  1.0000
  H   H1404     1.0  0.01407  0.69694  0.53871  1.0000
  H   H1405     1.0  0.01540  0.55763  0.58896  1.0000
  C   C829      1.0  0.09621  0.49280  0.85434  1.0000
  S   S231      1.0  0.05541  0.53752  0.64722  1.0000
  H   H1406     1.0  0.03379  0.68136  0.56754  1.0000
  H   H1407     1.0  0.06959  0.49873  0.88801  1.0000
  C   C830      1.0  0.09069  0.86740  0.52832  1.0000
  C   C831      1.0  0.10128  0.86046  0.52015  1.0000
  C   C832      1.0  0.11364  0.86397  0.51631  1.0000
  C   C833      1.0  0.11550  0.87453  0.52046  1.0000
  C   C834      1.0  0.10482  0.88167  0.52837  1.0000
  C   C835      1.0  0.09248  0.87807  0.53233  1.0000
  H   H1408     1.0  0.10004  0.85217  0.51708  1.0000
  H   H1409     1.0  0.12187  0.85828  0.51034  1.0000
  H   H1410     1.0  0.10613  0.88980  0.53164  1.0000
  H   H1411     1.0  0.08433  0.88348  0.53867  1.0000
  C   C836      1.0  0.08082  0.78954  0.51196  1.0000
  C   C837      1.0  0.01641  0.56318  0.56768  1.0000
  H   H1412     1.0  0.02298  0.67014  0.57476  1.0000
  H   H1413     1.0  0.03374  0.87429  0.56431  1.0000
  C   C838      1.0  0.00997  0.86093  0.49457  1.0000
  C   C839      1.0  0.06748  0.78874  0.51505  1.0000
  H   H1414     1.0  0.09502  0.75953  0.50362  1.0000
  H   H1415     1.0  0.07283  0.49777  0.74372  1.0000
  H   H1416     1.0  0.05389  0.77648  0.51672  1.0000
  H   H1417     1.0  0.05986  0.79689  0.51826  1.0000
  H   H1418     1.0  0.06083  0.89837  0.49067  1.0000
  H   H1419     1.0  0.15480  0.50050  0.86747  1.0000
  C   C840      1.0  0.01444  0.84313  0.53537  1.0000
  C   C841      1.0  0.01467  0.83342  0.54721  1.0000
  H   H1420     1.0  0.10653  0.96585  0.48522  1.0000
  C   C842      1.0  0.99559  0.53980  0.85244  1.0000
  H   H1421     1.0  0.99000  0.59059  0.54470  1.0000
  H   H1422     1.0  0.02328  0.84656  0.52968  1.0000
  C   C843      1.0  0.01189  0.58659  0.55481  1.0000
  H   H1423     1.0  0.98819  0.66402  0.52387  1.0000
  C   C844      1.0  0.09469  0.48423  0.90163  1.0000
  S   S232      1.0  0.01920  0.51355  0.75408  1.0000
  H   H1424     1.0  0.01582  0.55805  0.54417  1.0000
  H   H1425     1.0  0.13603  0.48545  0.92673  1.0000
  H   H1426     1.0  0.01180  0.71832  0.49244  1.0000
  H   H1427     1.0  0.09388  0.48987  0.64433  1.0000
  C   C845      1.0  0.01137  0.48538  0.57911  1.0000
  H   H1428     1.0  0.01888  0.70683  0.51330  1.0000
  H   H1429     1.0  0.12673  0.97100  0.51971  1.0000
  H   H1430     1.0  0.99506  0.48917  0.79325  1.0000
  H   H1431     1.0  0.06038  0.84695  0.59239  1.0000
  N   N62       1.0  0.11187  0.57450  0.87576  1.0000
  C   C846      1.0  0.10309  0.56499  0.87787  1.0000
  C   C847      1.0  0.11597  0.57222  0.88875  1.0000
  C   C848      1.0  0.12384  0.57112  0.86488  1.0000
  C   C849      1.0  0.10407  0.58846  0.87166  1.0000
  C   C850      1.0  0.09895  0.56447  0.86533  1.0000
  C   C851      1.0  0.10470  0.57534  0.90077  1.0000
  C   C852      1.0  0.13638  0.57568  0.86423  1.0000
  C   C853      1.0  0.11024  0.60007  0.87088  1.0000
  H   H1432     1.0  0.10802  0.55464  0.88208  1.0000
  H   H1433     1.0  0.09373  0.56737  0.88531  1.0000
  H   H1434     1.0  0.12332  0.57801  0.88789  1.0000
  H   H1435     1.0  0.12124  0.56170  0.89165  1.0000
  H   H1436     1.0  0.12705  0.56011  0.86589  1.0000
  H   H1437     1.0  0.12138  0.57519  0.85485  1.0000
  H   H1438     1.0  0.10216  0.59007  0.86156  1.0000
  H   H1439     1.0  0.09394  0.59004  0.87815  1.0000
  H   H1440     1.0  0.09227  0.55743  0.86832  1.0000
  H   H1441     1.0  0.09329  0.57420  0.86076  1.0000
  H   H1442     1.0  0.10753  0.56066  0.85778  1.0000
  H   H1443     1.0  0.09889  0.58571  0.89875  1.0000
  H   H1444     1.0  0.09808  0.56823  0.90407  1.0000
  H   H1445     1.0  0.10910  0.57422  0.90938  1.0000
  H   H1446     1.0  0.14368  0.57402  0.85486  1.0000
  H   H1447     1.0  0.14120  0.56962  0.87256  1.0000
  H   H1448     1.0  0.13455  0.58633  0.86423  1.0000
  H   H1449     1.0  0.11631  0.60306  0.86072  1.0000
  H   H1450     1.0  0.11620  0.59809  0.87837  1.0000
  H   H1451     1.0  0.10219  0.60878  0.87306  1.0000
  C   C854      1.0  0.02395  0.69679  0.51236  1.0000
  S   S233      1.0  0.01472  0.54895  0.73127  1.0000
  H   H1452     1.0  0.01111  0.57505  0.58297  1.0000
  H   H1453     1.0  0.18309  0.50727  0.96944  1.0000
  C   C855      1.0  0.09988  0.49326  0.88825  1.0000
  H   H1454     1.0  0.00623  0.56764  0.70847  1.0000
  C   C856      1.0  0.99468  0.51499  0.67226  1.0000
  H   H1455     1.0  0.02639  0.48770  0.63771  1.0000
  H   H1456     1.0  0.07127  0.82619  0.56643  1.0000
  C   C857      1.0  0.03692  0.67068  0.50993  1.0000
  H   H1457     1.0  0.02761  0.83321  0.59505  1.0000
  Fe  Fe118     1.0  0.04952  0.52859  0.63374  1.0000
  H   H1458     1.0  0.03561  0.57559  0.54033  1.0000
  H   H1459     1.0  0.00558  0.80254  0.55280  1.0000
  H   H1460     1.0  0.17682  0.88987  0.48535  1.0000
  H   H1461     1.0  0.03170  0.81825  0.58914  1.0000
  H   H1462     1.0  0.01511  0.53590  0.60629  1.0000
  C   C858      1.0  0.06740  0.55479  0.60767  1.0000
  H   H1463     1.0  0.01651  0.55272  0.56786  1.0000
  C   C859      1.0  0.06029  0.51291  0.66389  1.0000
  S   S234      1.0  0.04007  0.49017  0.73983  1.0000
  H   H1464     1.0  0.99558  0.58994  0.57294  1.0000
  S   S235      1.0  0.00358  0.52751  0.63409  1.0000
  C   C860      1.0  0.12708  0.96878  0.55180  1.0000
  C   C861      1.0  0.07705  0.57725  0.62431  1.0000
  C   C862      1.0  0.07406  0.76666  0.50997  1.0000
  C   C863      1.0  0.08727  0.76763  0.50681  1.0000
  H   H1465     1.0  0.01629  0.49157  0.56982  1.0000
  H   H1466     1.0  0.05434  0.58231  0.54849  1.0000
  S   S236      1.0  0.04731  0.74432  0.49164  1.0000
  C   C864      1.0  0.02212  0.50253  0.69239  1.0000
  C   C865      1.0  0.99614  0.57168  0.55885  1.0000
  C   C866      1.0  0.16911  0.54426  0.91023  1.0000
  H   H1467     1.0  0.18329  0.51631  0.90194  1.0000
  H   H1468     1.0  0.02975  0.80907  0.51369  1.0000
  H   H1469     1.0  0.16585  0.93641  0.53800  1.0000
  C   C867      1.0  0.99511  0.48502  0.56718  1.0000
  Fe  Fe119     1.0  0.01888  0.50058  0.74105  1.0000
  C   C868      1.0  0.18229  0.95616  0.51301  1.0000
  Fe  Fe120     1.0  0.03734  0.61244  0.53990  1.0000
  H   H1470     1.0  0.00237  0.85663  0.52219  1.0000
  C   C869      1.0  0.03972  0.83903  0.48599  1.0000
  C   C870      1.0  0.00032  0.83926  0.48321  1.0000
  H   H1471     1.0  0.02968  0.80607  0.53791  1.0000
  H   H1472     1.0  0.02197  0.50789  0.79928  1.0000
  H   H1473     1.0  0.02180  0.58640  0.55612  1.0000
  C   C871      1.0  0.00151  0.59532  0.56395  1.0000
  H   H1474     1.0  0.04378  0.86326  0.58104  1.0000
  H   H1475     1.0  0.04206  0.66060  0.50921  1.0000
  H   H1476     1.0  0.01808  0.82344  0.50789  1.0000
  H   H1477     1.0  0.08166  0.57389  0.63312  1.0000
  H   H1478     1.0  0.15606  0.48935  0.96610  1.0000
  C   C872      1.0  0.00166  0.79699  0.54797  1.0000
  H   H1479     1.0  0.02691  0.56362  0.56609  1.0000
  H   H1480     1.0  0.17703  0.49686  0.90175  1.0000
  C   C873      1.0  0.16479  0.55356  0.89927  1.0000
  H   H1481     1.0  0.10326  0.49688  0.85702  1.0000
  H   H1482     1.0  0.00698  0.52495  0.69945  1.0000
  C   C874      1.0  0.05488  0.57646  0.61236  1.0000
  H   H1483     1.0  0.07411  0.56644  0.58138  1.0000
  H   H1484     1.0  0.06109  0.55625  0.60054  1.0000
  C   C875      1.0  0.07549  0.56494  0.62065  1.0000
  H   H1485     1.0  0.17326  0.54547  0.97828  1.0000
  H   H1486     1.0  0.11624  0.51535  0.98050  1.0000
  H   H1487     1.0  0.00850  0.53601  0.58590  1.0000
  C   C876      1.0  0.02355  0.68032  0.56859  1.0000
  S   S237      1.0  0.02867  0.63101  0.50525  1.0000
  H   H1488     1.0  0.00674  0.68854  0.52235  1.0000
  C   C877      1.0  0.07247  0.57629  0.58374  1.0000
  H   H1489     1.0  0.08369  0.58277  0.61608  1.0000
  C   C878      1.0  0.18103  0.52372  0.88163  1.0000
  H   H1490     1.0  0.00588  0.49726  0.68251  1.0000
  C   C879      1.0  0.04365  0.68114  0.50444  1.0000
  C   C880      1.0  0.02363  0.67329  0.51655  1.0000
  H   H1491     1.0  0.04412  0.61667  0.48356  1.0000
  C   C881      1.0  0.03727  0.69418  0.50585  1.0000
  S   S238      1.0  0.07090  0.75200  0.50825  1.0000
  H   H1492     1.0  0.06206  0.58164  0.58396  1.0000
  H   H1493     1.0  0.03840  0.83542  0.49662  1.0000
  C   C882      1.0  0.03366  0.67543  0.54639  1.0000
  H   H1494     1.0  0.04201  0.79138  0.53759  1.0000
  C   C883      1.0  0.00264  0.84867  0.53096  1.0000
  C   C884      1.0  0.17981  0.91878  0.54485  1.0000
  H   H1495     1.0  0.99574  0.76156  0.49086  1.0000
  H   H1496     1.0  0.07865  0.58216  0.57531  1.0000
  S   S239      1.0  0.01678  0.62267  0.53734  1.0000
  H   H1497     1.0  0.01282  0.66417  0.56115  1.0000
  C   C885      1.0  0.99457  0.72524  0.56207  1.0000
  H   H1498     1.0  0.01362  0.68568  0.58771  1.0000
  H   H1499     1.0  0.07441  0.48620  0.93255  1.0000
  C   C886      1.0  0.02060  0.69651  0.48206  1.0000
  Fe  Fe121     1.0  0.02579  0.63925  0.52322  1.0000
  H   H1500     1.0  0.00043  0.51900  0.85205  1.0000
  H   H1501     1.0  0.17776  0.53421  0.88265  1.0000
  H   H1502     1.0  0.99100  0.56716  0.69508  1.0000
  H   H1503     1.0  0.04817  0.65691  0.54465  1.0000
  H   H1504     1.0  0.17681  0.57394  0.95992  1.0000
  C   C887      1.0  0.07646  0.57517  0.59685  1.0000
  S   S240      1.0  0.04590  0.70709  0.49837  1.0000
  H   H1505     1.0  0.03929  0.48610  0.69135  1.0000
  H   H1506     1.0  0.99272  0.69106  0.55872  1.0000
  C   C888      1.0  0.99221  0.55952  0.70401  1.0000
  H   H1507     1.0  0.16115  0.56788  0.97627  1.0000
  H   H1508     1.0  0.03289  0.67795  0.53579  1.0000
  C   C889      1.0  0.17680  0.93281  0.53587  1.0000
  S   S241      1.0  0.04678  0.86025  0.48943  1.0000
  C   C890      1.0  0.01431  0.51051  0.80812  1.0000
  S   S242      1.0  0.18397  0.89420  0.51899  1.0000
  H   H1509     1.0  0.10797  0.98414  0.52628  1.0000
  C   C891      1.0  0.00782  0.50713  0.67648  1.0000
  S   S243      1.0  0.01867  0.73842  0.50996  1.0000
  H   H1510     1.0  0.05529  0.58693  0.61151  1.0000
  C   C892      1.0  0.00404  0.78999  0.52695  1.0000
  Fe  Fe122     1.0  0.04864  0.53141  0.60504  1.0000
  Fe  Fe123     1.0  0.05394  0.84700  0.50749  1.0000
  H   H1511     1.0  0.06233  0.87322  0.49794  1.0000
  S   S244      1.0  0.05553  0.54137  0.58343  1.0000
  H   H1512     1.0  0.17192  0.96576  0.55088  1.0000
  H   H1513     1.0  0.01382  0.50142  0.62380  1.0000
  C   C893      1.0  0.14302  0.48774  0.86640  1.0000
  Fe  Fe124     1.0  0.05062  0.50413  0.62417  1.0000
  H   H1514     1.0  0.06192  0.88144  0.51044  1.0000
  H   H1515     1.0  0.06215  0.85638  0.56503  1.0000
  H   H1516     1.0  0.04218  0.67939  0.54630  1.0000
  Fe  Fe125     1.0  0.03950  0.72666  0.50513  1.0000
  Fe  Fe126     1.0  0.05124  0.74756  0.50989  1.0000
  H   H1517     1.0  0.06054  0.84699  0.55458  1.0000
  H   H1518     1.0  0.99739  0.50773  0.71374  1.0000
  C   C894      1.0  0.99625  0.66182  0.50362  1.0000
  H   H1519     1.0  0.00316  0.82177  0.56382  1.0000
  C   C895      1.0  0.17323  0.49076  0.97832  1.0000
  H   H1520     1.0  0.17735  0.48696  0.96899  1.0000
  C   C896      1.0  0.01454  0.69049  0.57693  1.0000
  C   C897      1.0  0.09180  0.50037  0.91480  1.0000
  H   H1521     1.0  0.03050  0.51775  0.66907  1.0000
  C   C898      1.0  0.07259  0.49968  0.90724  1.0000
  H   H1522     1.0  0.16702  0.51093  0.96630  1.0000
  H   H1523     1.0  0.04461  0.56182  0.62772  1.0000
  H   H1524     1.0  0.08842  0.49194  0.73379  1.0000
  H   H1525     1.0  0.18023  0.49847  0.88411  1.0000
  H   H1526     1.0  0.99322  0.77662  0.54357  1.0000
  C   C899      1.0  0.11535  0.93545  0.48762  1.0000
  S   S245      1.0  0.03703  0.51555  0.61047  1.0000
  N   N63       1.0  0.00842  0.53630  0.79944  1.0000
  C   C900      1.0  0.01422  0.54782  0.79879  1.0000
  C   C901      1.0  0.01268  0.53322  0.78572  1.0000
  C   C902      1.0  0.01392  0.52453  0.80956  1.0000
  H   H1527     1.0  0.00472  0.49977  0.64504  1.0000
  C   C903      1.0  0.01287  0.55128  0.81231  1.0000
  C   C904      1.0  0.00797  0.54448  0.77432  1.0000
  H   H1528     1.0  0.03029  0.87141  0.55014  1.0000
  H   H1529     1.0  0.99547  0.67866  0.57394  1.0000
  H   H1530     1.0  0.02496  0.54593  0.79400  1.0000
  H   H1531     1.0  0.00961  0.55713  0.79244  1.0000
  H   H1532     1.0  0.00947  0.52438  0.78545  1.0000
  H   H1533     1.0  0.02362  0.53044  0.78286  1.0000
  H   H1534     1.0  0.02436  0.52441  0.80920  1.0000
  C   C905      1.0  0.18494  0.49466  0.89286  1.0000
  H   H1535     1.0  0.00861  0.70183  0.55385  1.0000
  H   H1536     1.0  0.02831  0.70091  0.48295  1.0000
  H   H1537     1.0  0.00243  0.55437  0.81743  1.0000
  H   H1538     1.0  0.99496  0.51352  0.66232  1.0000
  H   H1539     1.0  0.01757  0.55980  0.81040  1.0000
  H   H1540     1.0  0.18553  0.49615  0.93172  1.0000
  H   H1541     1.0  0.99705  0.54765  0.77623  1.0000
  H   H1542     1.0  0.03826  0.49689  0.67538  1.0000
  C   C906      1.0  0.03232  0.49227  0.68489  1.0000
  C   C907      1.0  0.99117  0.84408  0.53791  1.0000
  C   C908      1.0  0.01001  0.56547  0.58189  1.0000
  H   H1543     1.0  0.00468  0.50928  0.80759  1.0000
  H   H1544     1.0  0.99920  0.49325  0.55970  1.0000
  C   C909      1.0  0.08406  0.50770  0.92615  1.0000
  C   C910      1.0  0.98994  0.53082  0.59655  1.0000
  C   C911      1.0  0.03279  0.56651  0.54014  1.0000
  H   H1545     1.0  0.14311  0.96762  0.53456  1.0000
  H   H1546     1.0  0.99075  0.64094  0.53134  1.0000
  H   H1547     1.0  0.03610  0.57872  0.62680  1.0000
  Fe  Fe127     1.0  0.02543  0.52517  0.62752  1.0000
  H   H1548     1.0  0.99634  0.56738  0.49206  1.0000
  H   H1549     1.0  0.02966  0.78725  0.52503  1.0000
  S   S246      1.0  0.04609  0.62979  0.52690  1.0000
  H   H1550     1.0  0.99477  0.60308  0.55813  1.0000
  N   N64       1.0  0.01322  0.51330  0.68431  1.0000
  H   H1551     1.0  0.01095  0.62343  0.49412  1.0000
  H   H1552     1.0  0.17964  0.93128  0.52552  1.0000
  H   H1553     1.0  0.01402  0.57483  0.53499  1.0000
  C   C912      1.0  0.12230  0.97309  0.48873  1.0000
  H   H1554     1.0  0.04707  0.86873  0.55101  1.0000
  S   S247      1.0  0.06620  0.61947  0.49292  1.0000
  H   H1555     1.0  0.04751  0.82693  0.56914  1.0000
  H   H1556     1.0  0.16870  0.94334  0.55578  1.0000
  C   C913      1.0  0.01766  0.56789  0.54377  1.0000
  C   C914      1.0  0.98884  0.58015  0.54768  1.0000
  H   H1557     1.0  0.18654  0.52388  0.87117  1.0000
  C   C915      1.0  0.01487  0.53441  0.66523  1.0000
  H   H1558     1.0  0.01216  0.69713  0.49082  1.0000
  H   H1559     1.0  0.06744  0.58408  0.62713  1.0000
  C   C916      1.0  0.03797  0.66013  0.55040  1.0000
  C   C917      1.0  0.05112  0.78164  0.48353  1.0000
  H   H1560     1.0  0.98965  0.55039  0.79775  1.0000
  H   H1561     1.0  0.05179  0.82566  0.58431  1.0000
  C   C918      1.0  0.02355  0.78914  0.53486  1.0000
  S   S248      1.0  0.06347  0.51905  0.61741  1.0000
  H   H1562     1.0  0.07396  0.78765  0.48440  1.0000
  H   H1563     1.0  0.02604  0.85334  0.56962  1.0000
  C   C919      1.0  0.12911  0.97234  0.50876  1.0000
  H   H1564     1.0  0.16197  0.54022  0.91863  1.0000
  H   H1565     1.0  0.10149  0.49474  0.91726  1.0000
  C   C920      1.0  0.99633  0.68043  0.56304  1.0000
  C   C921      1.0  0.11395  0.95177  0.52424  1.0000
  H   H1566     1.0  0.07041  0.55877  0.62986  1.0000
  H   H1567     1.0  0.01169  0.73526  0.48314  1.0000
  H   H1568     1.0  0.05393  0.67908  0.49930  1.0000
  H   H1569     1.0  0.01534  0.50511  0.66731  1.0000
  H   H1570     1.0  0.07450  0.50944  0.90091  1.0000
  H   H1571     1.0  0.09178  0.50055  0.88400  1.0000
  S   S249      1.0  0.14087  0.93760  0.48483  1.0000
  H   H1572     1.0  0.14910  0.96227  0.51122  1.0000
  H   H1573     1.0  0.99615  0.52915  0.68874  1.0000
  C   C922      1.0  0.00143  0.62100  0.49617  1.0000
  H   H1574     1.0  0.07559  0.58556  0.59754  1.0000
  H   H1575     1.0  0.01080  0.78864  0.51719  1.0000
  H   H1576     1.0  0.04992  0.57253  0.63451  1.0000
  C   C923      1.0  0.00136  0.77614  0.53459  1.0000
  N   N65       1.0  0.08493  0.49133  0.91193  1.0000
  C   C924      1.0  0.98702  0.55208  0.84915  1.0000
  H   H1577     1.0  0.02350  0.77894  0.54113  1.0000
  H   H1578     1.0  0.10586  0.94630  0.52871  1.0000
  H   H1579     1.0  0.11268  0.95870  0.53065  1.0000
  H   H1580     1.0  0.12318  0.94405  0.52501  1.0000
  H   H1581     1.0  0.02521  0.52750  0.68121  1.0000
  H   H1582     1.0  0.99070  0.85661  0.50270  1.0000
  C   C925      1.0  0.99914  0.73361  0.54997  1.0000
  H   H1583     1.0  0.01106  0.81708  0.53209  1.0000
  H   H1584     1.0  0.03826  0.66216  0.48245  1.0000
  H   H1585     1.0  0.09513  0.49847  0.84416  1.0000
  H   H1586     1.0  0.10091  0.77945  0.50541  1.0000
  C   C926      1.0  0.00306  0.82914  0.55454  1.0000
  C   C927      1.0  0.17289  0.50583  0.97403  1.0000
  C   C928      1.0  0.06693  0.49395  0.89879  1.0000
  C   C929      1.0  0.99228  0.62845  0.48825  1.0000
  H   H1587     1.0  0.03153  0.85387  0.58935  1.0000
  C   C930      1.0  0.04605  0.57198  0.62615  1.0000
  Fe  Fe128     1.0  0.02517  0.52754  0.73468  1.0000
  H   H1588     1.0  0.02531  0.68588  0.48228  1.0000
  C   C931      1.0  0.00255  0.52049  0.69397  1.0000
  H   H1589     1.0  0.12898  0.87933  0.49005  1.0000
  S   S250      1.0  0.01521  0.66033  0.52467  1.0000
  H   H1590     1.0  0.16104  0.49061  0.92618  1.0000
  H   H1591     1.0  0.05908  0.64944  0.48985  1.0000
  H   H1592     1.0  0.05866  0.77682  0.48956  1.0000
  H   H1593     1.0  0.06453  0.49375  0.67719  1.0000
  H   H1594     1.0  0.13951  0.89629  0.48642  1.0000
  H   H1595     1.0  0.18018  0.92138  0.50376  1.0000
  H   H1596     1.0  0.04887  0.83604  0.60059  1.0000
  S   S251      1.0  0.02305  0.51530  0.72183  1.0000
  C   C932      1.0  0.99779  0.52985  0.61971  1.0000
  S   S252      1.0  0.01282  0.74024  0.54803  1.0000
  C   C933      1.0  0.02152  0.52292  0.67521  1.0000
  H   H1597     1.0  0.99728  0.53163  0.73547  1.0000
  H   H1598     1.0  0.02349  0.83307  0.57972  1.0000
  H   H1599     1.0  0.08357  0.53784  0.61263  1.0000
  H   H1600     1.0  0.08084  0.83826  0.56325  1.0000
  N   N66       1.0  0.04597  0.84599  0.57326  1.0000
  C   C934      1.0  0.03648  0.85309  0.56415  1.0000
  C   C935      1.0  0.04475  0.83164  0.57790  1.0000
  C   C936      1.0  0.05980  0.84685  0.56521  1.0000
  C   C937      1.0  0.04225  0.85290  0.58469  1.0000
  C   C938      1.0  0.03710  0.86769  0.55713  1.0000
  C   C939      1.0  0.03102  0.82917  0.58590  1.0000
  C   C940      1.0  0.07139  0.83542  0.56911  1.0000
  C   C941      1.0  0.98679  0.80338  0.54919  1.0000
  H   H1601     1.0  0.03817  0.84766  0.55615  1.0000
  H   H1602     1.0  0.01299  0.85067  0.50037  1.0000
  H   H1603     1.0  0.01677  0.86216  0.48471  1.0000
  C   C942      1.0  0.99344  0.51196  0.70453  1.0000
  H   H1604     1.0  0.14088  0.95223  0.50685  1.0000
  H   H1605     1.0  0.17916  0.96651  0.50740  1.0000
  H   H1606     1.0  0.10541  0.48701  0.88090  1.0000
  H   H1607     1.0  0.17088  0.56627  0.88021  1.0000
  C   C943      1.0  0.14492  0.49150  0.88704  1.0000
  H   H1608     1.0  0.99004  0.57444  0.56827  1.0000
  C   C944      1.0  0.17982  0.95739  0.55438  1.0000
  S   S253      1.0  0.05122  0.49599  0.76817  1.0000
  S   S254      1.0  0.05768  0.49840  0.70352  1.0000
  N   N67       1.0  0.00967  0.79677  0.53398  1.0000
  S   S255      1.0  0.15292  0.49744  0.89546  1.0000
  H   H1609     1.0  0.99950  0.81589  0.52401  1.0000
  H   H1610     1.0  0.99409  0.50179  0.58292  1.0000
  H   H1611     1.0  0.08665  0.49488  0.86153  1.0000
  H   H1612     1.0  0.05432  0.49101  0.79494  1.0000
  H   H1613     1.0  0.00142  0.67006  0.50142  1.0000
  C   C945      1.0  0.99363  0.54048  0.80372  1.0000
  H   H1614     1.0  0.99901  0.72350  0.57048  1.0000
  H   H1615     1.0  0.99220  0.57576  0.53873  1.0000
  C   C946      1.0  0.14817  0.49396  0.87308  1.0000
  S   S256      1.0  0.00225  0.49056  0.74423  1.0000
  H   H1616     1.0  0.98766  0.57146  0.51318  1.0000
  H   H1617     1.0  0.99198  0.50380  0.70105  1.0000
  C   C947      1.0  0.00610  0.72722  0.48672  1.0000
  H   H1618     1.0  0.08965  0.48637  0.83411  1.0000
  H   H1619     1.0  0.18511  0.93601  0.55788  1.0000
  H   H1620     1.0  0.99085  0.54219  0.81401  1.0000
  C   C948      1.0  0.17853  0.95594  0.52809  1.0000
  H   H1621     1.0  0.17707  0.91891  0.55562  1.0000
  C   C949      1.0  0.14595  0.86425  0.48465  1.0000
  H   H1622     1.0  0.01167  0.49137  0.78803  1.0000
  H   H1623     1.0  0.99555  0.56113  0.56023  1.0000
  C   C950      1.0  0.01114  0.49502  0.61895  1.0000
  H   H1624     1.0  0.17706  0.95000  0.51044  1.0000
  H   H1625     1.0  0.06547  0.80451  0.48538  1.0000
  H   H1626     1.0  0.00472  0.49022  0.85287  1.0000
  H   H1627     1.0  0.00236  0.50087  0.61483  1.0000
  H   H1628     1.0  0.99331  0.66223  0.49437  1.0000
  H   H1629     1.0  0.99694  0.73090  0.49376  1.0000
  H   H1630     1.0  0.17384  0.91259  0.54337  1.0000
  H   H1631     1.0  0.08340  0.50083  0.93613  1.0000
  C   C951      1.0  0.18269  0.54036  0.91043  1.0000
  C   C952      1.0  0.99132  0.83434  0.54978  1.0000
  C   C953      1.0  0.00215  0.49515  0.58773  1.0000
  H   H1632     1.0  0.13113  0.98253  0.50491  1.0000
  C   C954      1.0  0.15104  0.49217  0.97582  1.0000
  C   C955      1.0  0.07057  0.89130  0.49043  1.0000
  C   C956      1.0  0.99831  0.48906  0.84697  1.0000
  H   H1633     1.0  0.01632  0.49652  0.70107  1.0000
  H   H1634     1.0  0.18597  0.53311  0.91884  1.0000
  H   H1635     1.0  0.07726  0.87186  0.50338  1.0000
  H   H1636     1.0  0.17187  0.52006  0.88363  1.0000
  H   H1637     1.0  0.10693  0.49854  0.88922  1.0000
  H   H1638     1.0  0.07326  0.49578  0.72769  1.0000
  H   H1639     1.0  0.14855  0.50321  0.97338  1.0000
  H   H1640     1.0  0.99228  0.63615  0.51650  1.0000
  H   H1641     1.0  0.03627  0.49265  0.83109  1.0000
  H   H1642     1.0  0.17997  0.55698  0.95781  1.0000
  H   H1643     1.0  0.05596  0.49670  0.90153  1.0000
  H   H1644     1.0  0.00772  0.48488  0.77014  1.0000
  H   H1645     1.0  0.07653  0.89579  0.49424  1.0000
  H   H1646     1.0  0.12650  0.98206  0.48431  1.0000
  S   S257      1.0  0.01834  0.77361  0.48334  1.0000
  H   H1647     1.0  0.99249  0.52587  0.67128  1.0000
  H   H1648     1.0  0.03822  0.78653  0.50189  1.0000
  H   H1649     1.0  0.18205  0.96428  0.52915  1.0000
  H   H1650     1.0  0.14555  0.48963  0.85561  1.0000
  H   H1651     1.0  0.99053  0.87386  0.49752  1.0000
  H   H1652     1.0  0.99788  0.48993  0.59789  1.0000
  C   C957      1.0  0.17918  0.94427  0.55155  1.0000
  H   H1653     1.0  0.14151  0.85665  0.49274  1.0000
  H   H1654     1.0  0.09564  0.93327  0.48938  1.0000
  H   H1655     1.0  0.98817  0.56078  0.85157  1.0000
  C   C958      1.0  0.04051  0.79147  0.49119  1.0000
  N   N68       1.0  0.18342  0.94294  0.53715  1.0000
  H   H1656     1.0  0.03317  0.82299  0.48322  1.0000
  H   H1657     1.0  0.15287  0.86714  0.48870  1.0000
  H   H1658     1.0  0.00214  0.83788  0.49325  1.0000
  H   H1659     1.0  0.12898  0.48460  0.94404  1.0000
  H   H1660     1.0  0.04836  0.49162  0.60364  1.0000
  H   H1661     1.0  0.18662  0.52281  0.98005  1.0000
  C   C959      1.0  0.13776  0.48773  0.98070  1.0000
  C   C960      1.0  0.10436  0.93630  0.48264  1.0000
  H   H1662     1.0  0.09613  0.88283  0.48247  1.0000
  Fe  Fe129     1.0  0.35184  0.02491  0.44787  1.0000
  S   S258      1.0  0.33331  0.01926  0.44837  1.0000
  S   S259      1.0  0.35727  0.01677  0.46801  1.0000
  Fe  Fe130     1.0  0.35646  0.03561  0.41772  1.0000
  H   H1663     1.0  0.20532  0.02680  0.41192  1.0000
  S   S260      1.0  0.36998  0.04465  0.39895  1.0000
  Fe  Fe131     1.0  0.32837  0.03889  0.43447  1.0000
  S   S261      1.0  0.30692  0.04869  0.44075  1.0000
  H   H1664     1.0  0.27128  0.02246  0.40559  1.0000
  C   C961      1.0  0.30553  0.44942  0.00366  1.0000
  S   S262      1.0  0.34619  0.04540  0.43530  1.0000
  H   H1665     1.0  0.35362  0.38696  0.02305  1.0000
  Fe  Fe132     1.0  0.34902  0.44773  0.02189  1.0000
  S   S263      1.0  0.33837  0.44119  0.01045  1.0000
  H   H1666     1.0  0.26119  0.04433  0.46655  1.0000
  Fe  Fe133     1.0  0.37127  0.42279  0.02164  1.0000
  S   S264      1.0  0.36244  0.41434  0.01015  1.0000
  H   H1667     1.0  0.33273  0.00952  0.40754  1.0000
  Fe  Fe134     1.0  0.35853  0.43523  0.99797  1.0000
  H   H1668     1.0  0.30483  0.99431  0.44018  1.0000
  Fe  Fe135     1.0  0.34304  0.42099  0.02366  1.0000
  S   S265      1.0  0.32996  0.40625  0.03395  1.0000
  S   S266      1.0  0.36895  0.44327  0.00827  1.0000
  S   S267      1.0  0.35209  0.42793  0.03629  1.0000
  Fe  Fe136     1.0  0.25928  0.42436  0.01845  1.0000
  S   S268      1.0  0.27133  0.42123  0.99838  1.0000
  S   S269      1.0  0.26832  0.41966  0.03630  1.0000
  Fe  Fe137     1.0  0.23366  0.43680  0.00847  1.0000
  S   S270      1.0  0.24406  0.43495  0.98757  1.0000
  S   S271      1.0  0.21222  0.44778  0.01008  1.0000
  H   H1669     1.0  0.31222  0.00152  0.46802  1.0000
  Fe  Fe138     1.0  0.26028  0.44184  0.99098  1.0000
  H   H1670     1.0  0.19330  0.99898  0.45452  1.0000
  S   S272      1.0  0.24260  0.41585  0.01781  1.0000
  S   S273      1.0  0.24922  0.44549  0.01113  1.0000
  C   C962      1.0  0.20842  0.41321  0.99176  1.0000
  S   S274      1.0  0.23787  0.03702  0.40434  1.0000
  C   C963      1.0  0.27321  0.45822  0.03804  1.0000
  H   H1671     1.0  0.31302  0.46456  0.00676  1.0000
  S   S275      1.0  0.22939  0.05027  0.43067  1.0000
  H   H1672     1.0  0.31277  0.45984  0.02886  1.0000
  Fe  Fe139     1.0  0.21914  0.04336  0.41893  1.0000
  S   S276      1.0  0.19966  0.05455  0.41327  1.0000
  Fe  Fe140     1.0  0.24831  0.04190  0.41725  1.0000
  S   S277      1.0  0.26664  0.05002  0.40691  1.0000
  H   H1673     1.0  0.36566  0.38091  0.00967  1.0000
  C   C964      1.0  0.36556  0.36268  0.04838  1.0000
  C   C965      1.0  0.36169  0.99184  0.37702  1.0000
  C   C966      1.0  0.36594  0.00065  0.39385  1.0000
  C   C967      1.0  0.38234  0.37555  0.04646  1.0000
  H   H1674     1.0  0.24482  0.04113  0.45597  1.0000
  H   H1675     1.0  0.37256  0.35430  0.04414  1.0000
  C   C968      1.0  0.19493  0.03096  0.41221  1.0000
  H   H1676     1.0  0.21772  0.47730  0.01766  1.0000
  C   C969      1.0  0.29462  0.02596  0.38790  1.0000
  H   H1677     1.0  0.26582  0.45224  0.03944  1.0000
  C   C970      1.0  0.30221  0.03263  0.37427  1.0000
  H   H1678     1.0  0.21969  0.40957  0.00690  1.0000
  N   N69       1.0  0.29481  0.46339  0.02185  1.0000
  C   C971      1.0  0.19954  0.43891  0.01495  1.0000
  C   C972      1.0  0.20081  0.42623  0.02331  1.0000
  H   H1679     1.0  0.20975  0.42164  0.02702  1.0000
  C   C973      1.0  0.31297  0.41026  0.03387  1.0000
  C   C974      1.0  0.30831  0.41518  0.02202  1.0000
  C   C975      1.0  0.29462  0.41800  0.02248  1.0000
  C   C976      1.0  0.28561  0.41588  0.03482  1.0000
  C   C977      1.0  0.29037  0.41085  0.04656  1.0000
  C   C978      1.0  0.30395  0.40791  0.04608  1.0000
  H   H1680     1.0  0.31528  0.41665  0.01251  1.0000
  H   H1681     1.0  0.29105  0.42186  0.01335  1.0000
  H   H1682     1.0  0.28350  0.40914  0.05611  1.0000
  H   H1683     1.0  0.30746  0.40392  0.05526  1.0000
  H   H1684     1.0  0.30671  0.02571  0.36740  1.0000
  H   H1685     1.0  0.35631  0.00042  0.40107  1.0000
  H   H1686     1.0  0.30990  0.03396  0.46836  1.0000
  H   H1687     1.0  0.36365  0.34733  0.06664  1.0000
  H   H1688     1.0  0.21850  0.47238  0.98779  1.0000
  C   C979      1.0  0.33749  0.48067  0.99346  1.0000
  C   C980      1.0  0.29606  0.04822  0.43136  1.0000
  C   C981      1.0  0.29997  0.04974  0.41749  1.0000
  C   C982      1.0  0.29085  0.05032  0.41010  1.0000
  C   C983      1.0  0.27793  0.04883  0.41657  1.0000
  C   C984      1.0  0.27419  0.04673  0.43050  1.0000
  C   C985      1.0  0.28317  0.04669  0.43785  1.0000
  H   H1689     1.0  0.30984  0.05109  0.41241  1.0000
  H   H1690     1.0  0.29376  0.05220  0.39932  1.0000
  H   H1691     1.0  0.26425  0.04564  0.43557  1.0000
  H   H1692     1.0  0.28015  0.04552  0.44857  1.0000
  C   C986      1.0  0.29269  0.00679  0.38081  1.0000
  C   C987      1.0  0.36413  0.02530  0.47530  1.0000
  C   C988      1.0  0.27785  0.01373  0.40164  1.0000
  C   C989      1.0  0.30383  0.01449  0.43967  1.0000
  H   H1693     1.0  0.38225  0.48023  0.01333  1.0000
  C   C990      1.0  0.30311  0.46256  0.00800  1.0000
  Fe  Fe141     1.0  0.25395  0.41456  0.99691  1.0000
  H   H1694     1.0  0.36541  0.99882  0.36769  1.0000
  C   C991      1.0  0.28310  0.00214  0.46101  1.0000
  C   C992      1.0  0.30604  0.44175  0.03685  1.0000
  H   H1695     1.0  0.19454  0.01174  0.43917  1.0000
  H   H1696     1.0  0.28062  0.01324  0.45848  1.0000
  H   H1697     1.0  0.28071  0.00048  0.42063  1.0000
  C   C993      1.0  0.27523  0.02770  0.37965  1.0000
  H   H1698     1.0  0.36311  0.41303  0.98455  1.0000
  H   H1699     1.0  0.37755  0.06264  0.13462  1.0000
  H   H1700     1.0  0.22228  0.39540  0.00029  1.0000
  H   H1701     1.0  0.27656  0.99609  0.38466  1.0000
  H   H1702     1.0  0.31434  0.47301  0.06537  1.0000
  H   H1703     1.0  0.32477  0.00437  0.39029  1.0000
  S   S278      1.0  0.25645  0.39643  0.98890  1.0000
  H   H1704     1.0  0.20528  0.38688  0.99609  1.0000
  H   H1705     1.0  0.36617  0.39608  0.05791  1.0000
  H   H1706     1.0  0.37188  0.04715  0.12682  1.0000
  C   C994      1.0  0.24783  0.03372  0.46443  1.0000
  H   H1707     1.0  0.23559  0.46473  0.98382  1.0000
  H   H1708     1.0  0.29282  0.98723  0.37848  1.0000
  H   H1709     1.0  0.35875  0.05994  0.12147  1.0000
  C   C995      1.0  0.36953  0.98446  0.45764  1.0000
  H   H1710     1.0  0.29794  0.43714  0.03739  1.0000
  H   H1711     1.0  0.30232  0.01944  0.39336  1.0000
  H   H1712     1.0  0.22834  0.46677  0.00037  1.0000
  C   C996      1.0  0.34973  0.47889  0.02233  1.0000
  S   S279      1.0  0.36338  0.01566  0.43046  1.0000
  H   H1713     1.0  0.38051  0.37519  0.05727  1.0000
  H   H1714     1.0  0.35621  0.36328  0.04556  1.0000
  C   C997      1.0  0.37353  0.37729  0.02730  1.0000
  C   C998      1.0  0.33330  0.98990  0.42027  1.0000
  H   H1715     1.0  0.36019  0.39644  0.03775  1.0000
  H   H1716     1.0  0.34801  0.99095  0.47706  1.0000
  H   H1717     1.0  0.30835  0.48216  0.02344  1.0000
  C   C999      1.0  0.35912  0.38727  0.04570  1.0000
  C   C1000     1.0  0.20616  0.39356  0.98594  1.0000
  C   C1001     1.0  0.27709  0.99715  0.45240  1.0000
  H   H1718     1.0  0.34579  0.47264  0.99666  1.0000
  C   C1002     1.0  0.28703  0.99411  0.38518  1.0000
  H   H1719     1.0  0.28940  0.03388  0.39356  1.0000
  H   H1720     1.0  0.27108  0.00742  0.40223  1.0000
  S   S280      1.0  0.24673  0.99859  0.41094  1.0000
  H   H1721     1.0  0.29575  0.04168  0.36947  1.0000
  H   H1722     1.0  0.35853  0.36929  0.02340  1.0000
  H   H1723     1.0  0.27827  0.45392  0.04649  1.0000
  H   H1724     1.0  0.22591  0.05513  0.47256  1.0000
  H   H1725     1.0  0.26840  0.01490  0.37135  1.0000
  H   H1726     1.0  0.34933  0.38550  0.04609  1.0000
  H   H1727     1.0  0.26832  0.00480  0.44978  1.0000
  H   H1728     1.0  0.19148  0.40968  0.03347  1.0000
  H   H1729     1.0  0.32307  0.47352  0.07740  1.0000
  H   H1730     1.0  0.26761  0.46854  0.03848  1.0000
  C   C1003     1.0  0.26765  0.47290  0.99084  1.0000
  C   C1004     1.0  0.26432  0.02197  0.37809  1.0000
  H   H1731     1.0  0.22570  0.99623  0.43499  1.0000
  H   H1732     1.0  0.27024  0.03649  0.38425  1.0000
  C   C1005     1.0  0.22825  0.47155  0.98984  1.0000
  S   S281      1.0  0.22825  0.02179  0.46476  1.0000
  H   H1733     1.0  0.30494  0.38462  0.98666  1.0000
  H   H1734     1.0  0.25713  0.03025  0.37331  1.0000
  H   H1735     1.0  0.31035  0.03602  0.37588  1.0000
  C   C1006     1.0  0.30610  0.99974  0.44699  1.0000
  C   C1007     1.0  0.36454  0.01470  0.38461  1.0000
  C   C1008     1.0  0.28667  0.00603  0.41170  1.0000
  H   H1736     1.0  0.24347  0.99298  0.46398  1.0000
  C   C1009     1.0  0.29965  0.39521  0.98455  1.0000
  C   C1010     1.0  0.36347  0.47452  0.01948  1.0000
  C   C1011     1.0  0.37162  0.48372  0.01545  1.0000
  H   H1737     1.0  0.35646  0.01707  0.37924  1.0000
  C   C1012     1.0  0.32382  0.47391  0.06675  1.0000
  C   C1013     1.0  0.30299  0.45704  0.03233  1.0000
  H   H1738     1.0  0.34865  0.39903  0.06057  1.0000
  N   N70       1.0  0.28507  0.01823  0.38748  1.0000
  S   S282      1.0  0.33927  0.46755  0.02765  1.0000
  H   H1739     1.0  0.30946  0.44081  0.01100  1.0000
  H   H1740     1.0  0.25860  0.01732  0.38775  1.0000
  H   H1741     1.0  0.22067  0.99236  0.46985  1.0000
  H   H1742     1.0  0.29642  0.44806  0.00182  1.0000
  H   H1743     1.0  0.29774  0.01436  0.46691  1.0000
  N   N71       1.0  0.19954  0.40778  0.98688  1.0000
  H   H1744     1.0  0.31673  0.99629  0.44741  1.0000
  H   H1745     1.0  0.19250  0.01566  0.46357  1.0000
  H   H1746     1.0  0.32753  0.03031  0.47782  1.0000
  C   C1014     1.0  0.36205  0.37866  0.02070  1.0000
  H   H1747     1.0  0.28442  0.47926  0.03241  1.0000
  H   H1748     1.0  0.18790  0.40195  0.00676  1.0000
  H   H1749     1.0  0.28811  0.98864  0.39542  1.0000
  H   H1750     1.0  0.29021  0.01302  0.41511  1.0000
  H   H1751     1.0  0.21687  0.41584  0.98357  1.0000
  S   S283      1.0  0.25107  0.02148  0.43037  1.0000
  H   H1752     1.0  0.19066  0.01219  0.41330  1.0000
  C   C1015     1.0  0.36832  0.05337  0.11784  1.0000
  H   H1753     1.0  0.29394  0.01007  0.36976  1.0000
  H   H1754     1.0  0.31523  0.43715  0.03052  1.0000
  H   H1755     1.0  0.29531  0.99879  0.40750  1.0000
  C   C1016     1.0  0.21458  0.40393  0.00345  1.0000
  C   C1017     1.0  0.36520  0.03855  0.46986  1.0000
  H   H1756     1.0  0.36585  0.04700  0.11271  1.0000
  Fe  Fe142     1.0  0.23922  0.01724  0.41865  1.0000
  H   H1757     1.0  0.20705  0.40021  0.01210  1.0000
  C   C1018     1.0  0.22583  0.98787  0.47829  1.0000
  C   C1019     1.0  0.37000  0.04512  0.47662  1.0000
  C   C1020     1.0  0.33043  0.99994  0.40918  1.0000
  H   H1758     1.0  0.37389  0.07240  0.10967  1.0000
  C   C1021     1.0  0.28287  0.45761  0.02441  1.0000
  C   C1022     1.0  0.36259  0.35830  0.06374  1.0000
  H   H1759     1.0  0.36787  0.46401  0.02066  1.0000
  C   C1023     1.0  0.26058  0.02620  0.48165  1.0000
  H   H1760     1.0  0.35236  0.36310  0.06816  1.0000
  H   H1761     1.0  0.19068  0.03226  0.44352  1.0000
  H   H1762     1.0  0.36185  0.02218  0.39085  1.0000
  N   N72       1.0  0.37009  0.37556  0.04231  1.0000
  H   H1763     1.0  0.29382  0.01820  0.43750  1.0000
  H   H1764     1.0  0.37618  0.06277  0.09777  1.0000
  H   H1765     1.0  0.27389  0.98774  0.45794  1.0000
  C   C1024     1.0  0.18821  0.00521  0.44644  1.0000
  H   H1766     1.0  0.35750  0.38301  0.06761  1.0000
  H   H1767     1.0  0.31104  0.01560  0.42991  1.0000
  C   C1025     1.0  0.38454  0.98801  0.38024  1.0000
  H   H1768     1.0  0.20307  0.42264  0.99504  1.0000
  C   C1026     1.0  0.24075  0.98443  0.47204  1.0000
  H   H1769     1.0  0.36210  0.04379  0.46063  1.0000
  H   H1770     1.0  0.28022  0.03174  0.36928  1.0000
  H   H1771     1.0  0.35138  0.99691  0.38104  1.0000
  C   C1027     1.0  0.22744  0.98787  0.43059  1.0000
  H   H1772     1.0  0.28562  0.44706  0.02360  1.0000
  H   H1773     1.0  0.29922  0.04531  0.47847  1.0000
  H   H1774     1.0  0.30747  0.43889  0.04726  1.0000
  H   H1775     1.0  0.38140  0.20983  0.00667  1.0000
  S   S284      1.0  0.34245  0.99147  0.43064  1.0000
  H   H1776     1.0  0.31300  0.44961  0.99407  1.0000
  C   C1028     1.0  0.25715  0.03549  0.47034  1.0000
  H   H1777     1.0  0.38517  0.04924  0.37191  1.0000
  C   C1029     1.0  0.32578  0.99709  0.39949  1.0000
  C   C1030     1.0  0.23711  0.98671  0.41883  1.0000
  H   H1778     1.0  0.27713  0.46277  0.01652  1.0000
  H   H1779     1.0  0.27714  0.99981  0.47128  1.0000
  C   C1031     1.0  0.24170  0.02290  0.47016  1.0000
  H   H1780     1.0  0.22801  0.07001  0.47515  1.0000
  H   H1781     1.0  0.33131  0.46498  0.06419  1.0000
  H   H1782     1.0  0.36368  0.99489  0.45600  1.0000
  Fe  Fe143     1.0  0.34424  0.01183  0.43001  1.0000
  H   H1783     1.0  0.26000  0.46808  0.99752  1.0000
  C   C1032     1.0  0.35794  0.39137  0.05878  1.0000
  H   H1784     1.0  0.28382  0.99580  0.44276  1.0000
  C   C1033     1.0  0.30645  0.03561  0.47871  1.0000
  H   H1785     1.0  0.36965  0.36019  0.06835  1.0000
  C   C1034     1.0  0.30127  0.00335  0.46957  1.0000
  H   H1786     1.0  0.30548  0.02089  0.44528  1.0000
  Fe  Fe144     1.0  0.23146  0.02927  0.44270  1.0000
  H   H1787     1.0  0.37051  0.05545  0.47261  1.0000
  C   C1035     1.0  0.38314  0.03415  0.39012  1.0000
  S   S285      1.0  0.33800  0.03093  0.41592  1.0000
  S   S286      1.0  0.21974  0.02309  0.43227  1.0000
  H   H1788     1.0  0.37388  0.01618  0.37735  1.0000
  H   H1789     1.0  0.37788  0.98476  0.46158  1.0000
  H   H1790     1.0  0.38129  0.36878  0.02413  1.0000
  N   N73       1.0  0.29760  0.99665  0.46083  1.0000
  H   H1791     1.0  0.37773  0.38629  0.02249  1.0000
  H   H1792     1.0  0.31954  0.04613  0.48065  1.0000
  H   H1793     1.0  0.29298  0.39681  0.99426  1.0000
  H   H1794     1.0  0.29849  0.46103  0.04155  1.0000
  C   C1036     1.0  0.37766  0.06212  0.10787  1.0000
  C   C1037     1.0  0.28983  0.47795  0.02217  1.0000
  H   H1795     1.0  0.37302  0.00003  0.39995  1.0000
  H   H1796     1.0  0.30295  0.00339  0.38244  1.0000
  H   H1797     1.0  0.29847  0.47038  0.00028  1.0000
  H   H1798     1.0  0.25404  0.98583  0.43816  1.0000
  H   H1799     1.0  0.38365  0.98633  0.43845  1.0000
  C   C1038     1.0  0.19042  0.41952  0.02701  1.0000
  N   N74       1.0  0.37013  0.98905  0.38705  1.0000
  H   H1800     1.0  0.38386  0.01718  0.40660  1.0000
  H   H1801     1.0  0.23517  0.47165  0.01716  1.0000
  C   C1039     1.0  0.18980  0.04450  0.41200  1.0000
  H   H1802     1.0  0.33342  0.47671  0.98730  1.0000
  H   H1803     1.0  0.18896  0.03746  0.46782  1.0000
  H   H1804     1.0  0.34489  0.98590  0.45757  1.0000
  C   C1040     1.0  0.22669  0.48033  0.01763  1.0000
  C   C1041     1.0  0.22722  0.05959  0.48016  1.0000
  H   H1805     1.0  0.38550  0.18582  0.01824  1.0000
  H   H1806     1.0  0.38559  0.03988  0.09708  1.0000
  H   H1807     1.0  0.18710  0.99827  0.44102  1.0000
  H   H1808     1.0  0.33004  0.48252  0.00262  1.0000
  H   H1809     1.0  0.24296  0.48296  0.98507  1.0000
  H   H1810     1.0  0.36795  0.98479  0.43753  1.0000
  C   C1042     1.0  0.24567  0.01337  0.48101  1.0000
  H   H1811     1.0  0.37728  0.98555  0.32722  1.0000
  H   H1812     1.0  0.30668  0.40176  0.98200  1.0000
  H   H1813     1.0  0.37724  0.98851  0.30988  1.0000
  H   H1814     1.0  0.38591  0.99710  0.37230  1.0000
  H   H1815     1.0  0.38577  0.19732  0.03634  1.0000
  H   H1816     1.0  0.28255  0.48280  0.01571  1.0000
  H   H1817     1.0  0.38548  0.38510  0.04154  1.0000
  H   H1818     1.0  0.18692  0.45469  0.00401  1.0000
  C   C1043     1.0  0.18781  0.44487  0.01040  1.0000
  C   C1044     1.0  0.27053  0.48351  0.99397  1.0000
  H   H1819     1.0  0.22477  0.48282  0.02751  1.0000
  C   C1045     1.0  0.32362  0.98438  0.40125  1.0000
  H   H1820     1.0  0.37127  0.98788  0.48175  1.0000
  Fe  Fe145     1.0  0.34468  0.03889  0.54054  1.0000
  S   S287      1.0  0.35495  0.02716  0.52491  1.0000
  S   S288      1.0  0.32294  0.04782  0.54250  1.0000
  Fe  Fe146     1.0  0.37018  0.03595  0.54928  1.0000
  S   S289      1.0  0.38267  0.02398  0.53418  1.0000
  S   S290      1.0  0.37686  0.04140  0.56497  1.0000
  Fe  Fe147     1.0  0.37067  0.03861  0.52002  1.0000
  H   H1821     1.0  0.20787  0.41630  0.96643  1.0000
  H   H1822     1.0  0.28491  0.00077  0.48753  1.0000
  C   C1046     1.0  0.19085  0.01445  0.53776  1.0000
  S   S291      1.0  0.35953  0.05163  0.53454  1.0000
  S   S292      1.0  0.35424  0.02426  0.55655  1.0000
  H   H1823     1.0  0.21014  0.01814  0.49378  1.0000
  Fe  Fe148     1.0  0.20557  0.45155  0.92638  1.0000
  S   S293      1.0  0.22182  0.02382  0.54505  1.0000
  H   H1824     1.0  0.18874  0.43528  0.86483  1.0000
  H   H1825     1.0  0.33528  0.00432  0.49757  1.0000
  H   H1826     1.0  0.28661  0.04655  0.51491  1.0000
  H   H1827     1.0  0.25133  0.45827  0.96162  1.0000
  C   C1047     1.0  0.30751  0.03994  0.50654  1.0000
  H   H1828     1.0  0.21439  0.98703  0.53132  1.0000
  C   C1048     1.0  0.29902  0.01764  0.54579  1.0000
  C   C1049     1.0  0.21190  0.01507  0.54166  1.0000
  S   S294      1.0  0.27102  0.45579  0.97445  1.0000
  C   C1050     1.0  0.19224  0.42332  0.89300  1.0000
  H   H1829     1.0  0.21031  0.05063  0.52851  1.0000
  H   H1830     1.0  0.31288  0.41998  0.96114  1.0000
  H   H1831     1.0  0.20915  0.38937  0.91096  1.0000
  S   S295      1.0  0.36061  0.44144  0.97582  1.0000
  H   H1832     1.0  0.20426  0.44684  0.86192  1.0000
  C   C1051     1.0  0.30378  0.47134  0.90647  1.0000
  H   H1833     1.0  0.32809  0.05003  0.50504  1.0000
  C   C1052     1.0  0.18869  0.47937  0.89471  1.0000
  C   C1053     1.0  0.34008  0.46328  0.92858  1.0000
  H   H1834     1.0  0.23732  0.47092  0.95858  1.0000
  C   C1054     1.0  0.20991  0.99650  0.53412  1.0000
  Fe  Fe149     1.0  0.21250  0.43506  0.90560  1.0000
  S   S296      1.0  0.20082  0.43243  0.92668  1.0000
  S   S297      1.0  0.20593  0.43063  0.88934  1.0000
  Fe  Fe150     1.0  0.23438  0.44364  0.91225  1.0000
  H   H1835     1.0  0.22038  0.03642  0.48507  1.0000
  S   S298      1.0  0.25297  0.45180  0.90547  1.0000
  Fe  Fe151     1.0  0.22055  0.42280  0.93196  1.0000
  S   S299      1.0  0.22364  0.40280  0.94607  1.0000
  H   H1836     1.0  0.22756  0.99792  0.53867  1.0000
  S   S300      1.0  0.23202  0.42398  0.91083  1.0000
  S   S301      1.0  0.21599  0.45499  0.90478  1.0000
  C   C1055     1.0  0.29989  0.47342  0.92092  1.0000
  S   S302      1.0  0.37648  0.40039  0.89534  1.0000
  S   S303      1.0  0.25979  0.02786  0.52969  1.0000
  H   H1837     1.0  0.30747  0.05049  0.50126  1.0000
  H   H1838     1.0  0.29086  0.38768  0.95425  1.0000
  H   H1839     1.0  0.31732  0.00310  0.54646  1.0000
  S   S304      1.0  0.30663  0.41035  0.91371  1.0000
  H   H1840     1.0  0.31626  0.40104  0.94566  1.0000
  H   H1841     1.0  0.34612  0.48383  0.89793  1.0000
  N   N75       1.0  0.29734  0.40250  0.95971  1.0000
  H   H1842     1.0  0.35893  0.98971  0.57169  1.0000
  H   H1843     1.0  0.21852  0.39818  0.91525  1.0000
  C   C1056     1.0  0.19284  0.41399  0.88585  1.0000
  H   H1844     1.0  0.38157  0.29909  0.90251  1.0000
  C   C1057     1.0  0.38169  0.36002  0.90338  1.0000
  C   C1058     1.0  0.34515  0.42575  0.95523  1.0000
  C   C1059     1.0  0.34888  0.43476  0.95995  1.0000
  C   C1060     1.0  0.23939  0.38846  0.96364  1.0000
  H   H1845     1.0  0.34028  0.42931  0.94694  1.0000
  H   H1846     1.0  0.34677  0.44522  0.95539  1.0000
  H   H1847     1.0  0.25393  0.47635  0.91145  1.0000
  H   H1848     1.0  0.32452  0.46283  0.88494  1.0000
  H   H1849     1.0  0.37500  0.46517  0.89721  1.0000
  C   C1061     1.0  0.37774  0.37741  0.94495  1.0000
  H   H1850     1.0  0.25499  0.45066  0.93240  1.0000
  C   C1062     1.0  0.19666  0.45296  0.85618  1.0000
  H   H1851     1.0  0.28933  0.03901  0.50124  1.0000
  H   H1852     1.0  0.37701  0.99093  0.60669  1.0000
  H   H1853     1.0  0.27657  0.43882  0.93658  1.0000
  C   C1063     1.0  0.29307  0.03837  0.51007  1.0000
  C   C1064     1.0  0.26785  0.44034  0.90808  1.0000
  C   C1065     1.0  0.26806  0.42683  0.91341  1.0000
  C   C1066     1.0  0.20233  0.04815  0.51274  1.0000
  C   C1067     1.0  0.29182  0.42225  0.91188  1.0000
  C   C1068     1.0  0.29157  0.43584  0.90696  1.0000
  C   C1069     1.0  0.27962  0.44485  0.90492  1.0000
  H   H1854     1.0  0.37561  0.35274  0.90667  1.0000
  H   H1855     1.0  0.19926  0.37385  0.94008  1.0000
  H   H1856     1.0  0.30065  0.43931  0.90433  1.0000
  H   H1857     1.0  0.27952  0.45529  0.90074  1.0000
  C   C1070     1.0  0.34451  0.48040  0.90868  1.0000
  H   H1858     1.0  0.38280  0.06287  0.52560  1.0000
  H   H1859     1.0  0.29851  0.00521  0.49001  1.0000
  H   H1860     1.0  0.27553  0.41571  0.94450  1.0000
  C   C1071     1.0  0.30202  0.42380  0.96283  1.0000
  C   C1072     1.0  0.33490  0.04357  0.49834  1.0000
  H   H1861     1.0  0.23105  0.44983  0.96611  1.0000
  H   H1862     1.0  0.23672  0.05440  0.48313  1.0000
  C   C1073     1.0  0.19513  0.47701  0.94188  1.0000
  H   H1863     1.0  0.24373  0.04742  0.50471  1.0000
  H   H1864     1.0  0.33166  0.02501  0.51166  1.0000
  C   C1074     1.0  0.18717  0.44427  0.85668  1.0000
  H   H1865     1.0  0.38268  0.31694  0.92018  1.0000
  C   C1075     1.0  0.24642  0.38708  0.97338  1.0000
  C   C1076     1.0  0.21534  0.05969  0.49223  1.0000
  H   H1866     1.0  0.23485  0.04298  0.52145  1.0000
  H   H1867     1.0  0.23177  0.42216  0.95445  1.0000
  H   H1868     1.0  0.32071  0.00426  0.58646  1.0000
  H   H1869     1.0  0.27724  0.48044  0.90660  1.0000
  C   C1077     1.0  0.35779  0.41666  0.97665  1.0000
  H   H1870     1.0  0.19652  0.47600  0.88639  1.0000
  H   H1871     1.0  0.36738  0.00838  0.49154  1.0000
  C   C1078     1.0  0.33443  0.99488  0.57032  1.0000
  H   H1872     1.0  0.20183  0.40278  0.93486  1.0000
  H   H1873     1.0  0.30102  0.47312  0.88257  1.0000
  H   H1874     1.0  0.19605  0.38433  0.95099  1.0000
  C   C1079     1.0  0.31258  0.01353  0.54551  1.0000
  C   C1080     1.0  0.34190  0.46772  0.91470  1.0000
  H   H1875     1.0  0.36885  0.38705  0.92742  1.0000
  H   H1876     1.0  0.36507  0.45565  0.94448  1.0000
  S   S305      1.0  0.18955  0.46799  0.93401  1.0000
  H   H1877     1.0  0.31556  0.01313  0.51451  1.0000
  H   H1878     1.0  0.24349  0.44266  0.95351  1.0000
  H   H1879     1.0  0.28458  0.42221  0.95862  1.0000
  H   H1880     1.0  0.25882  0.00726  0.49433  1.0000
  H   H1881     1.0  0.38415  0.32192  0.90226  1.0000
  C   C1081     1.0  0.26069  0.47629  0.94168  1.0000
  H   H1882     1.0  0.27144  0.39998  0.94746  1.0000
  C   C1082     1.0  0.21746  0.00276  0.53813  1.0000
  C   C1083     1.0  0.22662  0.03919  0.50676  1.0000
  H   H1883     1.0  0.28016  0.40731  0.91891  1.0000
  H   H1884     1.0  0.20225  0.45596  0.84579  1.0000
  C   C1084     1.0  0.24232  0.47558  0.93219  1.0000
  S   S306      1.0  0.37820  0.04692  0.49822  1.0000
  H   H1885     1.0  0.32502  0.00871  0.48548  1.0000
  H   H1886     1.0  0.33924  0.02403  0.49480  1.0000
  S   S307      1.0  0.28985  0.00547  0.54917  1.0000
  H   H1887     1.0  0.23795  0.37970  0.96160  1.0000
  H   H1888     1.0  0.26746  0.47057  0.94845  1.0000
  C   C1085     1.0  0.35525  0.43022  0.97060  1.0000
  H   H1889     1.0  0.37970  0.44734  0.95038  1.0000
  C   C1086     1.0  0.34766  0.41222  0.96132  1.0000
  H   H1890     1.0  0.20360  0.39219  0.96662  1.0000
  H   H1891     1.0  0.36701  0.08182  0.55195  1.0000
  S   S308      1.0  0.24828  0.00765  0.51987  1.0000
  H   H1892     1.0  0.38340  0.35106  0.94556  1.0000
  H   H1893     1.0  0.37874  0.42710  0.95147  1.0000
  H   H1894     1.0  0.21790  0.01799  0.50648  1.0000
  C   C1087     1.0  0.31383  0.03628  0.54333  1.0000
  H   H1895     1.0  0.33563  0.04892  0.48775  1.0000
  S   S309      1.0  0.36991  0.99134  0.54392  1.0000
  H   H1896     1.0  0.19398  0.03006  0.54490  1.0000
  C   C1088     1.0  0.29291  0.03115  0.54445  1.0000
  C   C1089     1.0  0.30031  0.04046  0.54333  1.0000
  Fe  Fe152     1.0  0.36585  0.01357  0.54027  1.0000
  H   H1897     1.0  0.37880  0.43370  0.92149  1.0000
  H   H1898     1.0  0.28241  0.03434  0.54480  1.0000
  H   H1899     1.0  0.29552  0.05087  0.54266  1.0000
  S   S310      1.0  0.25655  0.99846  0.54900  1.0000
  H   H1900     1.0  0.33370  0.99588  0.52270  1.0000
  N   N76       1.0  0.21430  0.04633  0.50151  1.0000
  H   H1901     1.0  0.20065  0.03840  0.51904  1.0000
  H   H1902     1.0  0.29856  0.42093  0.94502  1.0000
  H   H1903     1.0  0.23716  0.46882  0.93039  1.0000
  C   C1090     1.0  0.23361  0.04758  0.51106  1.0000
  C   C1091     1.0  0.26096  0.45655  0.93435  1.0000
  H   H1904     1.0  0.31031  0.37590  0.96701  1.0000
  C   C1092     1.0  0.33111  0.03004  0.50110  1.0000
  H   H1905     1.0  0.20193  0.41073  0.87898  1.0000
  H   H1906     1.0  0.20488  0.45966  0.95430  1.0000
  H   H1907     1.0  0.32619  0.99370  0.56684  1.0000
  H   H1908     1.0  0.30775  0.47653  0.92334  1.0000
  C   C1093     1.0  0.34105  0.47149  0.93633  1.0000
  S   S311      1.0  0.35713  0.42080  0.91985  1.0000
  H   H1909     1.0  0.38096  0.29403  0.91976  1.0000
  C   C1094     1.0  0.31554  0.38124  0.95741  1.0000
  H   H1910     1.0  0.29621  0.40017  0.94054  1.0000
  C   C1095     1.0  0.29073  0.39853  0.95115  1.0000
  H   H1911     1.0  0.19083  0.44054  0.84727  1.0000
  H   H1912     1.0  0.34153  0.99824  0.56093  1.0000
  H   H1913     1.0  0.35741  0.98828  0.49537  1.0000
  H   H1914     1.0  0.22969  0.45595  0.94928  1.0000
  H   H1915     1.0  0.37080  0.36913  0.93195  1.0000
  H   H1916     1.0  0.36735  0.46579  0.92094  1.0000
  C   C1096     1.0  0.27620  0.40570  0.95123  1.0000
  H   H1917     1.0  0.37587  0.36937  0.95399  1.0000
  C   C1097     1.0  0.29582  0.99909  0.48481  1.0000
  H   H1918     1.0  0.28832  0.38808  0.97573  1.0000
  H   H1919     1.0  0.37609  0.01979  0.50313  1.0000
  C   C1098     1.0  0.29112  0.39772  0.97425  1.0000
  C   C1099     1.0  0.31538  0.01666  0.50368  1.0000
  C   C1100     1.0  0.35302  0.98459  0.58106  1.0000
  H   H1920     1.0  0.32196  0.99645  0.50058  1.0000
  H   H1921     1.0  0.31356  0.46431  0.90559  1.0000
  C   C1101     1.0  0.34972  0.99412  0.53180  1.0000
  C   C1102     1.0  0.27106  0.44670  0.94220  1.0000
  H   H1922     1.0  0.28172  0.40479  0.97735  1.0000
  C   C1103     1.0  0.24799  0.48317  0.91812  1.0000
  H   H1923     1.0  0.33036  0.01962  0.54428  1.0000
  H   H1924     1.0  0.34634  0.00404  0.53349  1.0000
  C   C1104     1.0  0.20757  0.47775  0.95725  1.0000
  H   H1925     1.0  0.29178  0.02896  0.51747  1.0000
  Fe  Fe153     1.0  0.34129  0.41115  0.93423  1.0000
  H   H1926     1.0  0.19157  0.47442  0.90437  1.0000
  C   C1105     1.0  0.24797  0.39836  0.97639  1.0000
  Fe  Fe154     1.0  0.34052  0.43611  0.91221  1.0000
  H   H1927     1.0  0.38579  0.01013  0.60260  1.0000
  C   C1106     1.0  0.37730  0.45605  0.90500  1.0000
  C   C1107     1.0  0.31998  0.02285  0.54419  1.0000
  C   C1108     1.0  0.20269  0.05604  0.52261  1.0000
  C   C1109     1.0  0.37568  0.37365  0.90220  1.0000
  S   S312      1.0  0.34366  0.40097  0.95495  1.0000
  H   H1928     1.0  0.20317  0.04306  0.48907  1.0000
  H   H1929     1.0  0.34486  0.04178  0.50034  1.0000
  C   C1110     1.0  0.20278  0.47041  0.95138  1.0000
  H   H1930     1.0  0.35593  0.39716  0.97669  1.0000
  C   C1111     1.0  0.24466  0.46261  0.95454  1.0000
  S   S313      1.0  0.34025  0.42517  0.89717  1.0000
  H   H1931     1.0  0.30537  0.01628  0.50329  1.0000
  H   H1932     1.0  0.20624  0.06420  0.48818  1.0000
  H   H1933     1.0  0.31745  0.39851  0.96230  1.0000
  Fe  Fe155     1.0  0.26510  0.01808  0.51227  1.0000
  H   H1934     1.0  0.32423  0.48309  0.89651  1.0000
  H   H1935     1.0  0.25046  0.37726  0.97873  1.0000
  H   H1936     1.0  0.25907  0.42325  0.91594  1.0000
  H   H1937     1.0  0.21560  0.38284  0.92609  1.0000
  C   C1112     1.0  0.19127  0.38150  0.94454  1.0000
  Fe  Fe156     1.0  0.26221  0.99104  0.53023  1.0000
  H   H1938     1.0  0.20015  0.02402  0.50816  1.0000
  H   H1939     1.0  0.26680  0.46055  0.92438  1.0000
  H   H1940     1.0  0.33078  0.98418  0.59863  1.0000
  Fe  Fe157     1.0  0.27301  0.00934  0.53904  1.0000
  H   H1941     1.0  0.26732  0.47934  0.93189  1.0000
  C   C1113     1.0  0.20993  0.02378  0.50114  1.0000
  S   S314      1.0  0.34110  0.39834  0.92114  1.0000
  H   H1942     1.0  0.21573  0.06707  0.49746  1.0000
  C   C1114     1.0  0.23595  0.41237  0.95952  1.0000
  H   H1943     1.0  0.22843  0.05801  0.51101  1.0000
  S   S315      1.0  0.27950  0.00060  0.52090  1.0000
  H   H1944     1.0  0.26625  0.44174  0.95225  1.0000
  C   C1115     1.0  0.28003  0.41782  0.91515  1.0000
  C   C1116     1.0  0.23690  0.45213  0.95573  1.0000
  C   C1117     1.0  0.19666  0.00239  0.53370  1.0000
  H   H1945     1.0  0.19075  0.98668  0.48896  1.0000
  H   H1946     1.0  0.37414  0.38674  0.94878  1.0000
  H   H1947     1.0  0.38384  0.46767  0.91432  1.0000
  C   C1118     1.0  0.21103  0.39193  0.91952  1.0000
  H   H1948     1.0  0.24447  0.41969  0.97111  1.0000
  H   H1949     1.0  0.33627  0.00963  0.58028  1.0000
  C   C1119     1.0  0.19851  0.39999  0.92729  1.0000
  C   C1120     1.0  0.19844  0.02068  0.54188  1.0000
  H   H1950     1.0  0.31345  0.37864  0.94897  1.0000
  H   H1951     1.0  0.36928  0.45070  0.90698  1.0000
  Fe  Fe158     1.0  0.32543  0.41561  0.91380  1.0000
  S   S316      1.0  0.22411  0.44174  0.93384  1.0000
  C   C1121     1.0  0.32506  0.00609  0.49627  1.0000
  H   H1952     1.0  0.19326  0.05303  0.50870  1.0000
  Fe  Fe159     1.0  0.35590  0.40905  0.90608  1.0000
  C   C1122     1.0  0.21191  0.03791  0.49358  1.0000
  H   H1953     1.0  0.35822  0.37931  0.94176  1.0000
  H   H1954     1.0  0.33798  0.45355  0.93331  1.0000
  C   C1123     1.0  0.37630  0.43729  0.93084  1.0000
  S   S317      1.0  0.32460  0.42769  0.92818  1.0000
  H   H1955     1.0  0.19205  0.46185  0.86045  1.0000
  H   H1956     1.0  0.30993  0.03883  0.51632  1.0000
  C   C1124     1.0  0.36815  0.01861  0.48727  1.0000
  H   H1957     1.0  0.27053  0.40664  0.96139  1.0000
  H   H1958     1.0  0.30037  0.43468  0.95847  1.0000
  H   H1959     1.0  0.20002  0.99977  0.48320  1.0000
  H   H1960     1.0  0.36942  0.31743  0.91306  1.0000
  C   C1125     1.0  0.19654  0.99209  0.49183  1.0000
  H   H1961     1.0  0.29699  0.46570  0.90555  1.0000
  H   H1962     1.0  0.37547  0.41723  0.94242  1.0000
  N   N77       1.0  0.31783  0.03057  0.49864  1.0000
  H   H1963     1.0  0.20401  0.06628  0.51774  1.0000
  H   H1964     1.0  0.21105  0.98826  0.50323  1.0000
  C   C1126     1.0  0.37273  0.07687  0.54359  1.0000
  H   H1965     1.0  0.19593  0.43619  0.97711  1.0000
  Fe  Fe160     1.0  0.24378  0.01599  0.53792  1.0000
  C   C1127     1.0  0.23395  0.40114  0.95685  1.0000
  C   C1128     1.0  0.32861  0.00655  0.57753  1.0000
  C   C1129     1.0  0.37757  0.46018  0.91762  1.0000
  N   N78       1.0  0.30427  0.48374  0.89547  1.0000
  H   H1966     1.0  0.29878  0.46376  0.92795  1.0000
  C   C1130     1.0  0.35389  0.40766  0.97208  1.0000
  C   C1131     1.0  0.34248  0.98944  0.52579  1.0000
  H   H1967     1.0  0.30126  0.02757  0.48440  1.0000
  S   S318      1.0  0.27027  0.02913  0.49079  1.0000
  C   C1132     1.0  0.24293  0.41098  0.96924  1.0000
  H   H1968     1.0  0.24115  0.00491  0.48545  1.0000
  H   H1969     1.0  0.33971  0.46809  0.94706  1.0000
  S   S319      1.0  0.34107  0.45785  0.90443  1.0000
  H   H1970     1.0  0.19102  0.38663  0.98082  1.0000
  C   C1133     1.0  0.38569  0.30031  0.91044  1.0000
  N   N79       1.0  0.25217  0.46777  0.94070  1.0000
  C   C1134     1.0  0.38036  0.31500  0.91152  1.0000
  C   C1135     1.0  0.25539  0.01485  0.48639  1.0000
  C   C1136     1.0  0.28441  0.47512  0.97035  1.0000
  C   C1137     1.0  0.31190  0.39644  0.95614  1.0000
  C   C1138     1.0  0.37601  0.45447  0.94175  1.0000
  C   C1139     1.0  0.38348  0.38314  0.89756  1.0000
  H   H1971     1.0  0.36529  0.44001  0.93334  1.0000
  H   H1972     1.0  0.28980  0.47194  0.96118  1.0000
  H   H1973     1.0  0.19546  0.40944  0.92015  1.0000
  C   C1140     1.0  0.36856  0.37823  0.93585  1.0000
  N   N80       1.0  0.38184  0.44928  0.92907  1.0000
  H   H1974     1.0  0.36929  0.08295  0.53451  1.0000
  C   C1141     1.0  0.31843  0.03563  0.48385  1.0000
  C   C1142     1.0  0.29526  0.41747  0.95604  1.0000
  H   H1975     1.0  0.22442  0.03095  0.51549  1.0000
  H   H1976     1.0  0.29037  0.48061  0.92298  1.0000
  H   H1977     1.0  0.27852  0.45149  0.94312  1.0000
  C   C1143     1.0  0.30746  0.47974  0.88226  1.0000
  H   H1978     1.0  0.37014  0.06703  0.54618  1.0000
  H   H1979     1.0  0.21327  0.47266  0.96479  1.0000
  H   H1980     1.0  0.22436  0.99622  0.48318  1.0000
  H   H1981     1.0  0.36502  0.37683  0.90454  1.0000
  H   H1982     1.0  0.32634  0.37763  0.95686  1.0000
  H   H1983     1.0  0.23420  0.03420  0.49915  1.0000
  H   H1984     1.0  0.35010  0.99145  0.58801  1.0000
  H   H1985     1.0  0.32398  0.01537  0.57066  1.0000
  C   C1144     1.0  0.37365  0.03846  0.48882  1.0000
  C   C1145     1.0  0.37296  0.02512  0.49394  1.0000
  H   H1986     1.0  0.38075  0.08161  0.51197  1.0000
  H   H1987     1.0  0.30015  0.98857  0.48898  1.0000
  N   N81       1.0  0.18706  0.39318  0.93374  1.0000
  H   H1988     1.0  0.26364  0.98724  0.50635  1.0000
  H   H1989     1.0  0.37440  0.47620  0.93390  1.0000
  C   C1146     1.0  0.36096  0.98577  0.53604  1.0000
  H   H1990     1.0  0.19308  0.05697  0.52997  1.0000
  C   C1147     1.0  0.38652  0.08862  0.51201  1.0000
  H   H1991     1.0  0.37988  0.09677  0.51678  1.0000
  H   H1992     1.0  0.29747  0.42274  0.97365  1.0000
  C   C1148     1.0  0.37867  0.46796  0.94150  1.0000
  C   C1149     1.0  0.38090  0.42498  0.94144  1.0000
  H   H1993     1.0  0.32904  0.47848  0.87575  1.0000
  C   C1150     1.0  0.27456  0.46873  0.97898  1.0000
  H   H1994     1.0  0.19090  0.37909  0.92120  1.0000
  C   C1151     1.0  0.32179  0.47224  0.87769  1.0000
  H   H1995     1.0  0.32275  0.46948  0.86813  1.0000
  H   H1996     1.0  0.37369  0.47058  0.95134  1.0000
  C   C1152     1.0  0.19802  0.41635  0.97331  1.0000
  H   H1997     1.0  0.38624  0.10730  0.89992  1.0000
  H   H1998     1.0  0.23411  0.48264  0.93732  1.0000
  H   H1999     1.0  0.21692  0.39274  0.98174  1.0000
  H   H2000     1.0  0.20730  0.37677  0.97789  1.0000
  C   C1153     1.0  0.20151  0.38719  0.97731  1.0000
  H   H2001     1.0  0.19259  0.41247  0.96844  1.0000
  H   H2002     1.0  0.18957  0.99735  0.49950  1.0000
  S   S320      1.0  0.18794  0.99437  0.52781  1.0000
  C   C1154     1.0  0.19090  0.43103  0.97304  1.0000
  H   H2003     1.0  0.19091  0.43641  0.96250  1.0000
  C   C1155     1.0  0.34380  0.48412  0.93024  1.0000
  H   H2004     1.0  0.18837  0.02518  0.48298  1.0000
  C   C1156     1.0  0.18702  0.52107  0.03583  1.0000
  H   H2005     1.0  0.33855  0.51444  0.05764  1.0000
  H   H2006     1.0  0.21482  0.88277  0.44509  1.0000
  H   H2007     1.0  0.30600  0.90892  0.36319  1.0000
  H   H2008     1.0  0.29170  0.93194  0.44216  1.0000
  H   H2009     1.0  0.37208  0.98071  0.41501  1.0000
  C   C1157     1.0  0.37220  0.95980  0.34347  1.0000
  H   H2010     1.0  0.26694  0.88148  0.39122  1.0000
  Fe  Fe161     1.0  0.24065  0.93512  0.39983  1.0000
  S   S321      1.0  0.24134  0.92860  0.42136  1.0000
  S   S322      1.0  0.25828  0.94210  0.38508  1.0000
  Fe  Fe162     1.0  0.21243  0.93055  0.40556  1.0000
  S   S323      1.0  0.21129  0.92334  0.42761  1.0000
  S   S324      1.0  0.19476  0.93493  0.39642  1.0000
  Fe  Fe163     1.0  0.22056  0.94033  0.42521  1.0000
  S   S325      1.0  0.21391  0.95422  0.43917  1.0000
  Fe  Fe164     1.0  0.23221  0.91227  0.42149  1.0000
  H   H2011     1.0  0.38436  0.96463  0.47865  1.0000
  S   S326      1.0  0.22039  0.94837  0.40355  1.0000
  S   S327      1.0  0.23275  0.91796  0.39950  1.0000
  S   S328      1.0  0.31620  0.91616  0.39451  1.0000
  S   S329      1.0  0.31981  0.94323  0.40785  1.0000
  C   C1158     1.0  0.35448  0.98094  0.47976  1.0000
  H   H2012     1.0  0.22886  0.96985  0.46121  1.0000
  H   H2013     1.0  0.35948  0.93212  0.43335  1.0000
  H   H2014     1.0  0.27364  0.95036  0.45193  1.0000
  H   H2015     1.0  0.24981  0.96998  0.44378  1.0000
  C   C1159     1.0  0.21137  0.89599  0.45843  1.0000
  H   H2016     1.0  0.24089  0.49093  0.00399  1.0000
  C   C1160     1.0  0.38655  0.96085  0.34213  1.0000
  H   H2017     1.0  0.35695  0.97803  0.40247  1.0000
  H   H2018     1.0  0.30131  0.51818  0.07472  1.0000
  C   C1161     1.0  0.31169  0.51533  0.07584  1.0000
  Fe  Fe165     1.0  0.36677  0.52945  0.01224  1.0000
  S   S330      1.0  0.36305  0.53596  0.03136  1.0000
  H   H2019     1.0  0.20758  0.48619  0.00142  1.0000
  C   C1162     1.0  0.30048  0.48630  0.01769  1.0000
  H   H2020     1.0  0.31728  0.52016  0.04907  1.0000
  Fe  Fe166     1.0  0.32968  0.92877  0.39482  1.0000
  N   N82       1.0  0.31950  0.89538  0.45108  1.0000
  H   H2021     1.0  0.22323  0.90877  0.46825  1.0000
  Fe  Fe167     1.0  0.34462  0.54929  0.02499  1.0000
  S   S331      1.0  0.32519  0.55108  0.04003  1.0000
  C   C1163     1.0  0.33968  0.96760  0.46981  1.0000
  S   S332      1.0  0.34773  0.54140  0.00677  1.0000
  C   C1164     1.0  0.31884  0.50143  0.07298  1.0000
  S   S333      1.0  0.24153  0.89166  0.43114  1.0000
  H   H2022     1.0  0.18804  0.90807  0.47277  1.0000
  H   H2023     1.0  0.29215  0.94443  0.41892  1.0000
  H   H2024     1.0  0.33025  0.48541  0.04703  1.0000
  H   H2025     1.0  0.28019  0.93012  0.42701  1.0000
  S   S334      1.0  0.24606  0.53631  0.02676  1.0000
  C   C1165     1.0  0.26312  0.91716  0.36501  1.0000
  C   C1166     1.0  0.38087  0.61491  0.00157  1.0000
  H   H2026     1.0  0.24372  0.97563  0.46763  1.0000
  H   H2027     1.0  0.37289  0.96371  0.41590  1.0000
  C   C1167     1.0  0.34190  0.93323  0.44906  1.0000
  H   H2028     1.0  0.25774  0.94914  0.44182  1.0000
  S   S335      1.0  0.22637  0.50770  0.03442  1.0000
  C   C1168     1.0  0.35022  0.97548  0.46101  1.0000
  N   N83       1.0  0.20832  0.89717  0.47280  1.0000
  Fe  Fe168     1.0  0.33097  0.95724  0.39240  1.0000
  H   H2029     1.0  0.32277  0.90657  0.42309  1.0000
  C   C1169     1.0  0.22522  0.96255  0.47016  1.0000
  C   C1170     1.0  0.26797  0.89561  0.45579  1.0000
  H   H2030     1.0  0.27136  0.92779  0.44430  1.0000
  S   S336      1.0  0.24531  0.56053  0.99166  1.0000
  H   H2031     1.0  0.30737  0.90100  0.42753  1.0000
  S   S337      1.0  0.26479  0.50635  0.02621  1.0000
  H   H2032     1.0  0.31718  0.53070  0.98288  1.0000
  C   C1171     1.0  0.34419  0.49253  0.02110  1.0000
  N   N84       1.0  0.22480  0.49523  0.99399  1.0000
  C   C1172     1.0  0.30409  0.49671  0.04591  1.0000
  N   N85       1.0  0.27542  0.95621  0.43050  1.0000
  C   C1173     1.0  0.35547  0.93209  0.44384  1.0000
  H   H2033     1.0  0.34029  0.52097  0.04014  1.0000
  Fe  Fe169     1.0  0.33762  0.93589  0.41679  1.0000
  C   C1174     1.0  0.36608  0.49735  0.01442  1.0000
  C   C1175     1.0  0.35232  0.50176  0.01723  1.0000
  H   H2034     1.0  0.27572  0.97719  0.42545  1.0000
  C   C1176     1.0  0.30284  0.97241  0.45714  1.0000
  H   H2035     1.0  0.30507  0.88412  0.45292  1.0000
  H   H2036     1.0  0.34795  0.51225  0.01638  1.0000
  H   H2037     1.0  0.26569  0.91415  0.38493  1.0000
  H   H2038     1.0  0.37191  0.91676  0.36864  1.0000
  C   C1177     1.0  0.31141  0.54595  0.03893  1.0000
  C   C1178     1.0  0.31100  0.54144  0.02792  1.0000
  C   C1179     1.0  0.30025  0.53608  0.02840  1.0000
  C   C1180     1.0  0.29006  0.53507  0.03994  1.0000
  C   C1181     1.0  0.29050  0.53976  0.05073  1.0000
  C   C1182     1.0  0.30096  0.54533  0.05015  1.0000
  H   H2039     1.0  0.31901  0.54190  0.01919  1.0000
  H   H2040     1.0  0.22046  0.95657  0.46671  1.0000
  H   H2041     1.0  0.28274  0.53894  0.05970  1.0000
  H   H2042     1.0  0.30118  0.54875  0.05868  1.0000
  H   H2043     1.0  0.20364  0.51505  0.00405  1.0000
  C   C1183     1.0  0.26845  0.97070  0.42859  1.0000
  C   C1184     1.0  0.37545  0.98113  0.44373  1.0000
  S   S338      1.0  0.27876  0.89750  0.46437  1.0000
  C   C1185     1.0  0.35883  0.93033  0.46600  1.0000
  Fe  Fe170     1.0  0.35625  0.93604  0.38908  1.0000
  H   H2044     1.0  0.38277  0.77346  0.02468  1.0000
  H   H2045     1.0  0.20751  0.97662  0.47496  1.0000
  C   C1186     1.0  0.31676  0.52475  0.99318  1.0000
  C   C1187     1.0  0.20158  0.50498  0.00680  1.0000
  H   H2046     1.0  0.33336  0.56304  0.98937  1.0000
  H   H2047     1.0  0.33830  0.48582  0.05908  1.0000
  H   H2048     1.0  0.35438  0.97119  0.45195  1.0000
  H   H2049     1.0  0.28077  0.87773  0.45021  1.0000
  C   C1188     1.0  0.25821  0.97496  0.44082  1.0000
  C   C1189     1.0  0.27903  0.88997  0.36665  1.0000
  S   S339      1.0  0.37798  0.54512  0.00056  1.0000
  H   H2050     1.0  0.29036  0.95636  0.39675  1.0000
  C   C1190     1.0  0.18679  0.97492  0.39537  1.0000
  H   H2051     1.0  0.33188  0.50929  0.00103  1.0000
  S   S340      1.0  0.34703  0.92012  0.40480  1.0000
  S   S341      1.0  0.28538  0.50200  0.98962  1.0000
  H   H2052     1.0  0.25955  0.95183  0.42464  1.0000
  H   H2053     1.0  0.20298  0.50019  0.01708  1.0000
  H   H2054     1.0  0.25307  0.91297  0.45990  1.0000
  H   H2055     1.0  0.21055  0.93063  0.46553  1.0000
  H   H2056     1.0  0.36950  0.97291  0.36979  1.0000
  C   C1191     1.0  0.32492  0.97504  0.41315  1.0000
  H   H2057     1.0  0.33220  0.96986  0.43107  1.0000
  H   H2058     1.0  0.32283  0.96539  0.41483  1.0000
  C   C1192     1.0  0.22283  0.96673  0.43154  1.0000
  C   C1193     1.0  0.23274  0.96546  0.42003  1.0000
  H   H2059     1.0  0.38605  0.90277  0.35264  1.0000
  C   C1194     1.0  0.33680  0.93318  0.46267  1.0000
  H   H2060     1.0  0.31859  0.86188  0.45550  1.0000
  H   H2061     1.0  0.38364  0.79212  0.03334  1.0000
  H   H2062     1.0  0.23512  0.95677  0.41597  1.0000
  H   H2063     1.0  0.22407  0.87599  0.45773  1.0000
  H   H2064     1.0  0.22011  0.90015  0.45246  1.0000
  H   H2065     1.0  0.30058  0.90849  0.44862  1.0000
  C   C1195     1.0  0.27408  0.93586  0.38889  1.0000
  C   C1196     1.0  0.28485  0.94084  0.38016  1.0000
  C   C1197     1.0  0.29773  0.93538  0.38232  1.0000
  C   C1198     1.0  0.29996  0.92477  0.39314  1.0000
  C   C1199     1.0  0.28915  0.92005  0.40213  1.0000
  C   C1200     1.0  0.27625  0.92563  0.40006  1.0000
  H   H2066     1.0  0.28326  0.94878  0.37153  1.0000
  H   H2067     1.0  0.30601  0.93901  0.37528  1.0000
  H   H2068     1.0  0.29081  0.91178  0.41047  1.0000
  H   H2069     1.0  0.26808  0.92162  0.40682  1.0000
  S   S342      1.0  0.37762  0.93668  0.37884  1.0000
  H   H2070     1.0  0.25633  0.90390  0.38299  1.0000
  C   C1201     1.0  0.22015  0.97797  0.43685  1.0000
  C   C1202     1.0  0.37524  0.97304  0.40897  1.0000
  H   H2071     1.0  0.31378  0.49418  0.08099  1.0000
  S   S343      1.0  0.34823  0.95093  0.40215  1.0000
  H   H2072     1.0  0.31827  0.50364  0.00050  1.0000
  H   H2073     1.0  0.33268  0.97300  0.47735  1.0000
  H   H2074     1.0  0.26987  0.88262  0.41254  1.0000
  H   H2075     1.0  0.20667  0.87621  0.46166  1.0000
  H   H2076     1.0  0.38590  0.93634  0.33644  1.0000
  C   C1203     1.0  0.30048  0.98181  0.46659  1.0000
  H   H2077     1.0  0.23870  0.91079  0.44667  1.0000
  C   C1204     1.0  0.28126  0.95271  0.44268  1.0000
  H   H2078     1.0  0.20632  0.56753  0.98426  1.0000
  C   C1205     1.0  0.26551  0.90779  0.37841  1.0000
  H   H2079     1.0  0.37738  0.57988  0.03203  1.0000
  H   H2080     1.0  0.29901  0.51012  0.05888  1.0000
  H   H2081     1.0  0.26597  0.87512  0.43750  1.0000
  S   S344      1.0  0.33101  0.93410  0.43914  1.0000
  H   H2082     1.0  0.28794  0.90634  0.38531  1.0000
  H   H2083     1.0  0.35350  0.97417  0.38112  1.0000
  C   C1206     1.0  0.38351  0.98403  0.31736  1.0000
  H   H2084     1.0  0.26011  0.91213  0.35894  1.0000
  S   S345      1.0  0.27316  0.95897  0.47467  1.0000
  C   C1207     1.0  0.29099  0.87818  0.36498  1.0000
  H   H2085     1.0  0.37444  0.92962  0.44829  1.0000
  H   H2086     1.0  0.25474  0.92564  0.36716  1.0000
  C   C1208     1.0  0.38495  0.60127  0.99772  1.0000
  C   C1209     1.0  0.28619  0.95475  0.41815  1.0000
  H   H2087     1.0  0.28398  0.87781  0.39157  1.0000
  H   H2088     1.0  0.30057  0.49330  0.06742  1.0000
  H   H2089     1.0  0.30493  0.48732  0.00687  1.0000
  H   H2090     1.0  0.31860  0.88262  0.43896  1.0000
  H   H2091     1.0  0.20046  0.50227  0.04101  1.0000
  H   H2092     1.0  0.29566  0.93887  0.45349  1.0000
  S   S346      1.0  0.32172  0.97911  0.38797  1.0000
  H   H2093     1.0  0.27989  0.89715  0.35687  1.0000
  C   C1210     1.0  0.27064  0.93290  0.43386  1.0000
  C   C1211     1.0  0.27162  0.89108  0.40394  1.0000
  C   C1212     1.0  0.29517  0.91035  0.36434  1.0000
  H   H2094     1.0  0.35280  0.88193  0.44745  1.0000
  H   H2095     1.0  0.34601  0.50357  0.04593  1.0000
  H   H2096     1.0  0.30005  0.53235  0.02008  1.0000
  H   H2097     1.0  0.20316  0.90218  0.45350  1.0000
  H   H2098     1.0  0.29056  0.92091  0.36477  1.0000
  H   H2099     1.0  0.37937  0.97033  0.44422  1.0000
  H   H2100     1.0  0.26270  0.97325  0.44946  1.0000
  H   H2101     1.0  0.31386  0.91672  0.44386  1.0000
  Fe  Fe171     1.0  0.26939  0.91186  0.47789  1.0000
  C   C1213     1.0  0.31238  0.90813  0.42880  1.0000
  H   H2102     1.0  0.22656  0.50126  0.01101  1.0000
  H   H2103     1.0  0.30336  0.96204  0.46315  1.0000
  H   H2104     1.0  0.19591  0.55093  0.02405  1.0000
  H   H2105     1.0  0.20637  0.49962  0.98766  1.0000
  S   S347      1.0  0.25613  0.93182  0.47230  1.0000
  H   H2106     1.0  0.30687  0.50430  0.03680  1.0000
  H   H2107     1.0  0.31084  0.91770  0.46509  1.0000
  S   S348      1.0  0.36969  0.92821  0.47644  1.0000
  H   H2108     1.0  0.32490  0.50905  0.03850  1.0000
  C   C1214     1.0  0.23216  0.48507  0.98565  1.0000
  S   S349      1.0  0.27421  0.53256  0.00449  1.0000
  C   C1215     1.0  0.29340  0.94109  0.44346  1.0000
  H   H2109     1.0  0.38316  0.67562  0.01301  1.0000
  C   C1216     1.0  0.21262  0.90925  0.47321  1.0000
  C   C1217     1.0  0.20507  0.92289  0.46659  1.0000
  H   H2110     1.0  0.20997  0.55639  0.99923  1.0000
  H   H2111     1.0  0.32900  0.49928  0.07471  1.0000
  H   H2112     1.0  0.29485  0.97465  0.45179  1.0000
  H   H2113     1.0  0.29006  0.86948  0.37346  1.0000
  C   C1218     1.0  0.32508  0.51029  0.99453  1.0000
  H   H2114     1.0  0.37955  0.61333  0.01255  1.0000
  C   C1219     1.0  0.33809  0.51227  0.04826  1.0000
  H   H2115     1.0  0.37062  0.95588  0.33568  1.0000
  H   H2116     1.0  0.37012  0.96783  0.39350  1.0000
  H   H2117     1.0  0.29334  0.96098  0.41695  1.0000
  C   C1220     1.0  0.36392  0.93066  0.45232  1.0000
  Fe  Fe172     1.0  0.25265  0.54064  0.00438  1.0000
  H   H2118     1.0  0.34920  0.49454  0.99128  1.0000
  C   C1221     1.0  0.33392  0.89542  0.44496  1.0000
  H   H2119     1.0  0.27468  0.95242  0.40516  1.0000
  H   H2120     1.0  0.21806  0.53632  0.02523  1.0000
  H   H2121     1.0  0.37137  0.62083  0.99901  1.0000
  H   H2122     1.0  0.32058  0.88739  0.47205  1.0000
  Fe  Fe173     1.0  0.27023  0.51333  0.00400  1.0000
  Fe  Fe174     1.0  0.26743  0.52627  0.02665  1.0000
  C   C1222     1.0  0.24785  0.90355  0.44741  1.0000
  C   C1223     1.0  0.21430  0.88188  0.45583  1.0000
  H   H2123     1.0  0.33357  0.49593  0.02303  1.0000
  H   H2124     1.0  0.37793  0.59521  0.00470  1.0000
  H   H2125     1.0  0.33705  0.89189  0.43545  1.0000
  H   H2126     1.0  0.36924  0.95563  0.46332  1.0000
  H   H2127     1.0  0.19413  0.56737  0.99987  1.0000
  C   C1224     1.0  0.36875  0.96124  0.47085  1.0000
  C   C1225     1.0  0.28976  0.90093  0.37732  1.0000
  H   H2128     1.0  0.29407  0.90838  0.35516  1.0000
  H   H2129     1.0  0.18809  0.95099  0.41663  1.0000
  H   H2130     1.0  0.23504  0.88463  0.46765  1.0000
  H   H2131     1.0  0.36351  0.95582  0.48042  1.0000
  S   S350      1.0  0.33955  0.94352  0.37820  1.0000
  H   H2132     1.0  0.20417  0.92307  0.45648  1.0000
  N   N86       1.0  0.31925  0.49958  0.05939  1.0000
  H   H2133     1.0  0.27164  0.92153  0.35909  1.0000
  H   H2134     1.0  0.30726  0.91819  0.42418  1.0000
  H   H2135     1.0  0.30228  0.94378  0.43605  1.0000
  H   H2136     1.0  0.30048  0.88105  0.36354  1.0000
  H   H2137     1.0  0.34045  0.87979  0.46240  1.0000
  H   H2138     1.0  0.26373  0.92882  0.43100  1.0000
  C   C1226     1.0  0.25599  0.90478  0.45495  1.0000
  H   H2139     1.0  0.30618  0.52468  0.99781  1.0000
  N   N87       1.0  0.27752  0.89642  0.37800  1.0000
  H   H2140     1.0  0.27976  0.89467  0.40519  1.0000
  H   H2141     1.0  0.27705  0.96916  0.40208  1.0000
  H   H2142     1.0  0.24674  0.98270  0.47947  1.0000
  H   H2143     1.0  0.26995  0.88636  0.36782  1.0000
  S   S351      1.0  0.24932  0.52187  0.00202  1.0000
  H   H2144     1.0  0.32630  0.93412  0.46675  1.0000
  C   C1227     1.0  0.23975  0.97546  0.41360  1.0000
  H   H2145     1.0  0.28453  0.96133  0.44358  1.0000
  C   C1228     1.0  0.21078  0.51829  0.03314  1.0000
  H   H2146     1.0  0.30962  0.97873  0.47060  1.0000
  C   C1229     1.0  0.28064  0.48961  0.98547  1.0000
  S   S352      1.0  0.27773  0.52620  0.04242  1.0000
  C   C1230     1.0  0.31124  0.90750  0.44367  1.0000
  C   C1231     1.0  0.31597  0.88330  0.44962  1.0000
  C   C1232     1.0  0.22996  0.49242  0.00645  1.0000
  C   C1233     1.0  0.31788  0.90847  0.46863  1.0000
  C   C1234     1.0  0.18718  0.88771  0.47963  1.0000
  C   C1235     1.0  0.34401  0.88732  0.45370  1.0000
  H   H2147     1.0  0.30983  0.48667  0.04458  1.0000
  H   H2148     1.0  0.22358  0.51635  0.99176  1.0000
  C   C1236     1.0  0.32259  0.86966  0.45708  1.0000
  C   C1237     1.0  0.20945  0.53202  0.02820  1.0000
  H   H2149     1.0  0.21252  0.97897  0.44578  1.0000
  C   C1238     1.0  0.21010  0.49607  0.99703  1.0000
  H   H2150     1.0  0.32812  0.90980  0.46423  1.0000
  Fe  Fe175     1.0  0.35863  0.55783  0.99682  1.0000
  C   C1239     1.0  0.25147  0.89293  0.44100  1.0000
  Fe  Fe176     1.0  0.37305  0.55273  0.01925  1.0000
  C   C1240     1.0  0.19690  0.54028  0.02749  1.0000
  C   C1241     1.0  0.36770  0.97679  0.39769  1.0000
  H   H2151     1.0  0.31695  0.52321  0.06943  1.0000
  H   H2152     1.0  0.19036  0.91481  0.42096  1.0000
  C   C1242     1.0  0.26320  0.88344  0.44229  1.0000
  S   S353      1.0  0.37659  0.50859  0.00964  1.0000
  C   C1243     1.0  0.33005  0.97766  0.42249  1.0000
  C   C1244     1.0  0.26541  0.94805  0.43252  1.0000
  C   C1245     1.0  0.27155  0.88491  0.44948  1.0000
  C   C1246     1.0  0.21544  0.88530  0.48159  1.0000
  C   C1247     1.0  0.32433  0.51051  0.04852  1.0000
  C   C1248     1.0  0.19951  0.51287  0.03707  1.0000
  Fe  Fe177     1.0  0.26783  0.93902  0.48193  1.0000
  H   H2153     1.0  0.31994  0.53027  0.99867  1.0000
  C   C1249     1.0  0.34523  0.93164  0.47113  1.0000
  H   H2154     1.0  0.31618  0.90720  0.47962  1.0000
  N   N88       1.0  0.36107  0.97537  0.46742  1.0000
  C   C1250     1.0  0.28160  0.95844  0.40490  1.0000
  H   H2155     1.0  0.29147  0.87483  0.35588  1.0000
  H   H2156     1.0  0.31142  0.51521  0.08634  1.0000
  S   S354      1.0  0.35427  0.56679  0.01460  1.0000
  Fe  Fe178     1.0  0.24402  0.51695  0.02436  1.0000
  C   C1251     1.0  0.27513  0.88610  0.39085  1.0000
  H   H2157     1.0  0.26236  0.89887  0.40484  1.0000
  H   H2158     1.0  0.23355  0.95552  0.47421  1.0000
  C   C1252     1.0  0.30540  0.50003  0.05857  1.0000
  H   H2159     1.0  0.38437  0.77178  0.00162  1.0000
  H   H2160     1.0  0.29801  0.89237  0.37973  1.0000
  H   H2161     1.0  0.33339  0.86728  0.45296  1.0000
  H   H2162     1.0  0.19575  0.96842  0.39869  1.0000
  H   H2163     1.0  0.34777  0.89413  0.45715  1.0000
  H   H2164     1.0  0.26308  0.97352  0.42043  1.0000
  C   C1253     1.0  0.36007  0.97979  0.37290  1.0000
  H   H2165     1.0  0.33544  0.90579  0.44202  1.0000
  H   H2166     1.0  0.29354  0.49688  0.04683  1.0000
  H   H2167     1.0  0.29576  0.49654  0.01927  1.0000
  H   H2168     1.0  0.35509  0.98343  0.36436  1.0000
  H   H2169     1.0  0.38580  0.57498  0.99922  1.0000
  H   H2170     1.0  0.36907  0.95296  0.35314  1.0000
  H   H2171     1.0  0.34413  0.95746  0.47484  1.0000
  C   C1254     1.0  0.38322  0.95918  0.47184  1.0000
  H   H2172     1.0  0.19096  0.50618  0.00705  1.0000
  H   H2173     1.0  0.33380  0.96642  0.46335  1.0000
  H   H2174     1.0  0.24731  0.97441  0.40460  1.0000
  H   H2175     1.0  0.37706  0.57722  0.98632  1.0000
  H   H2176     1.0  0.26516  0.48676  0.00311  1.0000
  H   H2177     1.0  0.29244  0.97911  0.47523  1.0000
  H   H2178     1.0  0.36525  0.96957  0.34403  1.0000
  C   C1255     1.0  0.38213  0.91738  0.36446  1.0000
  H   H2179     1.0  0.18856  0.97536  0.38451  1.0000
  C   C1256     1.0  0.31552  0.89618  0.46561  1.0000
  H   H2180     1.0  0.18974  0.94538  0.44031  1.0000
  H   H2181     1.0  0.18998  0.96430  0.42219  1.0000
  C   C1257     1.0  0.32839  0.48644  0.05748  1.0000
  H   H2182     1.0  0.19326  0.54396  0.00106  1.0000
  H   H2183     1.0  0.30481  0.89614  0.46960  1.0000
  H   H2184     1.0  0.19513  0.92587  0.47291  1.0000
  H   H2185     1.0  0.24857  0.50465  0.98571  1.0000
  C   C1258     1.0  0.21484  0.96960  0.48060  1.0000
  H   H2186     1.0  0.36548  0.59799  0.98968  1.0000
  H   H2187     1.0  0.32037  0.86873  0.46802  1.0000
  H   H2188     1.0  0.31247  0.97243  0.44988  1.0000
  H   H2189     1.0  0.36615  0.61490  0.98296  1.0000
  H   H2190     1.0  0.34121  0.93126  0.48164  1.0000
  C   C1259     1.0  0.22723  0.50865  0.98566  1.0000
  C   C1260     1.0  0.19700  0.55005  0.99107  1.0000
  H   H2191     1.0  0.38398  0.69104  0.00107  1.0000
  N   N89       1.0  0.38535  0.60163  0.98339  1.0000
  H   H2192     1.0  0.38609  0.97112  0.40508  1.0000
  H   H2193     1.0  0.38551  0.59864  0.03402  1.0000
  H   H2194     1.0  0.34412  0.52481  0.98665  1.0000
  C   C1261     1.0  0.20198  0.56111  0.99362  1.0000
  C   C1262     1.0  0.23062  0.88344  0.47849  1.0000
  H   H2195     1.0  0.23749  0.54045  0.98365  1.0000
  H   H2196     1.0  0.38107  0.96511  0.31661  1.0000
  H   H2197     1.0  0.38565  0.97008  0.34545  1.0000
  H   H2198     1.0  0.20600  0.54352  0.98632  1.0000
  C   C1263     1.0  0.19365  0.89911  0.47868  1.0000
  H   H2199     1.0  0.21341  0.87586  0.48122  1.0000
  H   H2200     1.0  0.31820  0.49529  0.98201  1.0000
  C   C1264     1.0  0.34291  0.49313  0.98535  1.0000
  H   H2201     1.0  0.38634  0.94349  0.31869  1.0000
  H   H2202     1.0  0.20018  0.52747  0.98236  1.0000
  H   H2203     1.0  0.35807  0.56703  0.94985  1.0000
  C   C1265     1.0  0.27681  0.54210  0.96306  1.0000
  C   C1266     1.0  0.26680  0.53328  0.95047  1.0000
  H   H2204     1.0  0.19031  0.91364  0.54203  1.0000
  S   S355      1.0  0.25458  0.93528  0.50228  1.0000
  H   H2205     1.0  0.36785  0.97262  0.49366  1.0000
  H   H2206     1.0  0.22169  0.51226  0.97750  1.0000
  S   S356      1.0  0.25642  0.90586  0.49801  1.0000
  H   H2207     1.0  0.21102  0.89125  0.51956  1.0000
  Fe  Fe179     1.0  0.24395  0.92645  0.49304  1.0000
  S   S357      1.0  0.22194  0.93438  0.49569  1.0000
  Fe  Fe180     1.0  0.26854  0.91538  0.50517  1.0000
  S   S358      1.0  0.27541  0.90635  0.52449  1.0000
  H   H2208     1.0  0.23853  0.96236  0.48920  1.0000
  H   H2209     1.0  0.31412  0.98292  0.58329  1.0000
  Fe  Fe181     1.0  0.34289  0.92171  0.52431  1.0000
  S   S359      1.0  0.33970  0.93796  0.50633  1.0000
  S   S360      1.0  0.32858  0.90903  0.53715  1.0000
  Fe  Fe182     1.0  0.36962  0.92653  0.52412  1.0000
  S   S361      1.0  0.36878  0.94308  0.50589  1.0000
  H   H2210     1.0  0.38652  0.55003  0.97149  1.0000
  Fe  Fe183     1.0  0.34752  0.94942  0.51576  1.0000
  S   S362      1.0  0.33757  0.97054  0.51640  1.0000
  Fe  Fe184     1.0  0.36114  0.93011  0.49787  1.0000
  C   C1267     1.0  0.26703  0.97736  0.50460  1.0000
  S   S363      1.0  0.34890  0.93393  0.53463  1.0000
  S   S364      1.0  0.36383  0.91281  0.51526  1.0000
  H   H2211     1.0  0.34833  0.96129  0.57714  1.0000
  C   C1268     1.0  0.22933  0.96667  0.49580  1.0000
  H   H2212     1.0  0.28917  0.49785  0.90568  1.0000
  Fe  Fe185     1.0  0.24479  0.52389  0.92454  1.0000
  S   S365      1.0  0.23529  0.52569  0.94566  1.0000
  S   S366      1.0  0.26641  0.51327  0.92112  1.0000
  Fe  Fe186     1.0  0.21816  0.53479  0.91597  1.0000
  S   S367      1.0  0.20666  0.53745  0.93641  1.0000
  S   S368      1.0  0.20918  0.53920  0.89808  1.0000
  Fe  Fe187     1.0  0.22378  0.54539  0.93658  1.0000
  S   S369      1.0  0.22080  0.56427  0.94326  1.0000
  Fe  Fe188     1.0  0.21926  0.51754  0.94349  1.0000
  S   S370      1.0  0.21253  0.50059  0.95942  1.0000
  S   S371      1.0  0.23448  0.54433  0.91547  1.0000
  S   S372      1.0  0.22949  0.51418  0.92305  1.0000
  H   H2213     1.0  0.36841  0.61064  0.87191  1.0000
  H   H2214     1.0  0.28057  0.92414  0.56045  1.0000
  H   H2215     1.0  0.26853  0.53902  0.97132  1.0000
  H   H2216     1.0  0.19531  0.93695  0.49461  1.0000
  Fe  Fe189     1.0  0.32840  0.53846  0.91219  1.0000
  S   S373      1.0  0.32252  0.52736  0.93316  1.0000
  S   S374      1.0  0.31344  0.54387  0.89932  1.0000
  Fe  Fe190     1.0  0.35468  0.54046  0.91646  1.0000
  S   S375      1.0  0.35060  0.52933  0.93778  1.0000
  H   H2217     1.0  0.35664  0.56965  0.89677  1.0000
  Fe  Fe191     1.0  0.34337  0.51570  0.93030  1.0000
  H   H2218     1.0  0.36976  0.58495  0.89418  1.0000
  Fe  Fe192     1.0  0.33014  0.54195  0.93858  1.0000
  S   S376      1.0  0.31868  0.55013  0.95654  1.0000
  S   S377      1.0  0.34900  0.52574  0.90868  1.0000
  S   S378      1.0  0.33456  0.55424  0.91779  1.0000
  H   H2219     1.0  0.36759  0.96549  0.58011  1.0000
  C   C1269     1.0  0.29345  0.55433  0.93428  1.0000
  H   H2220     1.0  0.31751  0.52229  0.96206  1.0000
  C   C1270     1.0  0.34649  0.97638  0.52402  1.0000
  H   H2221     1.0  0.19947  0.50389  0.86964  1.0000
  H   H2222     1.0  0.31763  0.55540  0.98178  1.0000
  H   H2223     1.0  0.31293  0.96249  0.51932  1.0000
  H   H2224     1.0  0.27013  0.56182  0.96813  1.0000
  C   C1271     1.0  0.20938  0.50319  0.90723  1.0000
  H   H2225     1.0  0.25382  0.49003  0.91842  1.0000
  H   H2226     1.0  0.38618  0.87499  0.53403  1.0000
  C   C1272     1.0  0.19200  0.54548  0.89949  1.0000
  H   H2227     1.0  0.23577  0.98192  0.50140  1.0000
  C   C1273     1.0  0.34358  0.59207  0.90672  1.0000
  H   H2228     1.0  0.34758  0.49826  0.91161  1.0000
  N   N90       1.0  0.35493  0.58864  0.88274  1.0000
  H   H2229     1.0  0.28349  0.93057  0.54291  1.0000
  H   H2230     1.0  0.37269  0.87866  0.57149  1.0000
  C   C1274     1.0  0.32926  0.55640  0.96166  1.0000
  C   C1275     1.0  0.34067  0.55969  0.95266  1.0000
  N   N91       1.0  0.19598  0.50149  0.89107  1.0000
  H   H2231     1.0  0.34790  0.97460  0.48703  1.0000
  C   C1276     1.0  0.34956  0.52032  0.97794  1.0000
  H   H2232     1.0  0.28564  0.53383  0.96426  1.0000
  H   H2233     1.0  0.34269  0.55879  0.94242  1.0000
  N   N92       1.0  0.21982  0.97669  0.48791  1.0000
  H   H2234     1.0  0.31713  0.93357  0.56459  1.0000
  H   H2235     1.0  0.38537  0.52953  0.93420  1.0000
  C   C1277     1.0  0.20320  0.49461  0.90228  1.0000
  H   H2236     1.0  0.34364  0.58143  0.91133  1.0000
  C   C1278     1.0  0.37050  0.56799  0.91848  1.0000
  H   H2237     1.0  0.26844  0.51189  0.95493  1.0000
  H   H2238     1.0  0.27502  0.94163  0.55427  1.0000
  H   H2239     1.0  0.30987  0.51195  0.88903  1.0000
  H   H2240     1.0  0.36724  0.58611  0.92521  1.0000
  H   H2241     1.0  0.36061  0.56647  0.92312  1.0000
  H   H2242     1.0  0.20150  0.92884  0.54070  1.0000
  H   H2243     1.0  0.23088  0.48908  0.97522  1.0000
  H   H2244     1.0  0.29643  0.93343  0.56378  1.0000
  H   H2245     1.0  0.25313  0.57067  0.93198  1.0000
  C   C1279     1.0  0.34535  0.48861  0.91641  1.0000
  H   H2246     1.0  0.20288  0.95803  0.52807  1.0000
  H   H2247     1.0  0.25680  0.53471  0.95723  1.0000
  C   C1280     1.0  0.20535  0.49162  0.95306  1.0000
  H   H2248     1.0  0.37391  0.61094  0.95968  1.0000
  C   C1281     1.0  0.36775  0.59041  0.88424  1.0000
  C   C1282     1.0  0.22682  0.56294  0.95730  1.0000
  C   C1283     1.0  0.22863  0.57441  0.95966  1.0000
  C   C1284     1.0  0.23403  0.57356  0.97044  1.0000
  C   C1285     1.0  0.23753  0.56126  0.97899  1.0000
  C   C1286     1.0  0.23517  0.54986  0.97695  1.0000
  C   C1287     1.0  0.22984  0.55069  0.96610  1.0000
  H   H2249     1.0  0.22617  0.58394  0.95296  1.0000
  H   H2250     1.0  0.23573  0.58243  0.97201  1.0000
  N   N93       1.0  0.34101  0.98202  0.57841  1.0000
  H   H2251     1.0  0.22803  0.54190  0.96460  1.0000
  C   C1288     1.0  0.27905  0.52231  0.91559  1.0000
  C   C1289     1.0  0.29141  0.51613  0.91878  1.0000
  C   C1290     1.0  0.30195  0.52270  0.91390  1.0000
  C   C1291     1.0  0.30028  0.53547  0.90564  1.0000
  C   C1292     1.0  0.28793  0.54162  0.90240  1.0000
  C   C1293     1.0  0.27728  0.53514  0.90750  1.0000
  H   H2252     1.0  0.29288  0.50619  0.92501  1.0000
  H   H2253     1.0  0.31147  0.51775  0.91629  1.0000
  H   H2254     1.0  0.28656  0.55148  0.89600  1.0000
  H   H2255     1.0  0.26783  0.53995  0.90488  1.0000
  H   H2256     1.0  0.36066  0.90062  0.57365  1.0000
  H   H2257     1.0  0.30430  0.97327  0.53895  1.0000
  C   C1294     1.0  0.19744  0.49824  0.94381  1.0000
  H   H2258     1.0  0.38652  0.70389  0.89694  1.0000
  H   H2259     1.0  0.29148  0.50239  0.88820  1.0000
  H   H2260     1.0  0.36623  0.87098  0.54334  1.0000
  C   C1295     1.0  0.26394  0.55723  0.94668  1.0000
  H   H2261     1.0  0.37904  0.52716  0.97969  1.0000
  H   H2262     1.0  0.19465  0.53417  0.96683  1.0000
  H   H2263     1.0  0.34166  0.60655  0.88837  1.0000
  C   C1296     1.0  0.38350  0.53562  0.94169  1.0000
  H   H2264     1.0  0.37599  0.54653  0.96383  1.0000
  C   C1297     1.0  0.30268  0.96168  0.52049  1.0000
  H   H2265     1.0  0.28889  0.94970  0.53068  1.0000
  H   H2266     1.0  0.36308  0.55598  0.87857  1.0000
  C   C1298     1.0  0.34697  0.56514  0.97020  1.0000
  C   C1299     1.0  0.33219  0.97756  0.59173  1.0000
  C   C1300     1.0  0.31783  0.94377  0.55871  1.0000
  C   C1301     1.0  0.23354  0.97190  0.50569  1.0000
  H   H2267     1.0  0.28008  0.48462  0.88851  1.0000
  H   H2268     1.0  0.32095  0.93781  0.54020  1.0000
  H   H2269     1.0  0.23507  0.87328  0.48357  1.0000
  H   H2270     1.0  0.28298  0.55080  0.97575  1.0000
  H   H2271     1.0  0.36552  0.91199  0.55805  1.0000
  C   C1302     1.0  0.31331  0.51424  0.96951  1.0000
  C   C1303     1.0  0.37813  0.93593  0.55218  1.0000
  C   C1304     1.0  0.37933  0.94082  0.56262  1.0000
  H   H2272     1.0  0.36926  0.93960  0.54827  1.0000
  H   H2273     1.0  0.38053  0.89375  0.55291  1.0000
  H   H2274     1.0  0.21191  0.90952  0.48369  1.0000
  C   C1305     1.0  0.35760  0.96794  0.52845  1.0000
  C   C1306     1.0  0.35756  0.90685  0.56440  1.0000
  H   H2275     1.0  0.32816  0.94459  0.55735  1.0000
  C   C1307     1.0  0.20701  0.94746  0.53208  1.0000
  H   H2276     1.0  0.19719  0.52156  0.89049  1.0000
  H   H2277     1.0  0.36070  0.95779  0.52726  1.0000
  H   H2278     1.0  0.37324  0.96595  0.53809  1.0000
  C   C1308     1.0  0.36478  0.97260  0.53453  1.0000
  H   H2279     1.0  0.25498  0.55755  0.95485  1.0000
  H   H2280     1.0  0.35803  0.88719  0.53614  1.0000
  H   H2281     1.0  0.29823  0.97377  0.55632  1.0000
  H   H2282     1.0  0.32703  0.50394  0.88398  1.0000
  C   C1309     1.0  0.26860  0.96659  0.51539  1.0000
  C   C1310     1.0  0.27310  0.95367  0.51327  1.0000
  C   C1311     1.0  0.27593  0.95158  0.50035  1.0000
  H   H2283     1.0  0.34371  0.89741  0.56171  1.0000
  H   H2284     1.0  0.37076  0.97552  0.58902  1.0000
  H   H2285     1.0  0.27414  0.94522  0.52158  1.0000
  H   H2286     1.0  0.27954  0.94156  0.49877  1.0000
  C   C1312     1.0  0.29050  0.90754  0.52700  1.0000
  C   C1313     1.0  0.29383  0.90071  0.53924  1.0000
  C   C1314     1.0  0.30559  0.90118  0.54197  1.0000
  C   C1315     1.0  0.31424  0.90857  0.53254  1.0000
  C   C1316     1.0  0.31101  0.91551  0.52021  1.0000
  C   C1317     1.0  0.29911  0.91501  0.51743  1.0000
  H   H2287     1.0  0.28724  0.89495  0.54667  1.0000
  H   H2288     1.0  0.30795  0.89581  0.55151  1.0000
  H   H2289     1.0  0.31763  0.92125  0.51283  1.0000
  H   H2290     1.0  0.29660  0.92036  0.50796  1.0000
  C   C1318     1.0  0.26902  0.97520  0.49179  1.0000
  C   C1319     1.0  0.35361  0.59467  0.86849  1.0000
  H   H2291     1.0  0.36308  0.59195  0.86129  1.0000
  C   C1320     1.0  0.29919  0.94922  0.53082  1.0000
  S   S379      1.0  0.34617  0.49380  0.93985  1.0000
  H   H2292     1.0  0.19082  0.56769  0.94817  1.0000
  C   C1321     1.0  0.31667  0.50300  0.88571  1.0000
  H   H2293     1.0  0.28933  0.95566  0.56224  1.0000
  H   H2294     1.0  0.19639  0.49032  0.91137  1.0000
  H   H2295     1.0  0.23971  0.48972  0.91358  1.0000
  H   H2296     1.0  0.38606  0.58129  0.94480  1.0000
  C   C1322     1.0  0.21170  0.92296  0.50200  1.0000
  C   C1323     1.0  0.21619  0.91003  0.50889  1.0000
  C   C1324     1.0  0.20757  0.90124  0.51415  1.0000
  H   H2297     1.0  0.22623  0.90684  0.51030  1.0000
  H   H2298     1.0  0.34470  0.58041  0.86439  1.0000
  H   H2299     1.0  0.34539  0.57195  0.88700  1.0000
  C   C1325     1.0  0.19311  0.56027  0.96864  1.0000
  H   H2300     1.0  0.28717  0.56430  0.93486  1.0000
  C   C1326     1.0  0.19817  0.93793  0.53329  1.0000
  H   H2301     1.0  0.24825  0.48618  0.95771  1.0000
  N   N94       1.0  0.36344  0.88597  0.55455  1.0000
  H   H2302     1.0  0.31530  0.50293  0.87586  1.0000
  C   C1327     1.0  0.34319  0.59554  0.89179  1.0000
  C   C1328     1.0  0.34037  0.51573  0.97221  1.0000
  H   H2303     1.0  0.30564  0.51827  0.97757  1.0000
  H   H2304     1.0  0.24533  0.50421  0.97022  1.0000
  H   H2305     1.0  0.28704  0.55868  0.95860  1.0000
  C   C1329     1.0  0.25941  0.56043  0.93344  1.0000
  H   H2306     1.0  0.37700  0.54521  0.93817  1.0000
  H   H2307     1.0  0.24257  0.51969  0.97470  1.0000
  H   H2308     1.0  0.37626  0.58584  0.87703  1.0000
  S   S380      1.0  0.37474  0.54591  0.90785  1.0000
  H   H2309     1.0  0.20992  0.48976  0.87747  1.0000
  H   H2310     1.0  0.37806  0.53037  0.95124  1.0000
  C   C1330     1.0  0.18968  0.51580  0.89180  1.0000
  H   H2311     1.0  0.35258  0.90552  0.54678  1.0000
  C   C1331     1.0  0.27939  0.55415  0.96631  1.0000
  C   C1332     1.0  0.32655  0.55776  0.97485  1.0000
  H   H2312     1.0  0.37134  0.94825  0.56666  1.0000
  H   H2313     1.0  0.30118  0.55220  0.94002  1.0000
  H   H2314     1.0  0.20954  0.96206  0.48785  1.0000
  H   H2315     1.0  0.38144  0.72081  0.88887  1.0000
  H   H2316     1.0  0.29550  0.97084  0.52276  1.0000
  C   C1333     1.0  0.34939  0.56430  0.95687  1.0000
  H   H2317     1.0  0.38528  0.57084  0.96108  1.0000
  H   H2318     1.0  0.20935  0.94643  0.54185  1.0000
  N   N95       1.0  0.30046  0.94762  0.54491  1.0000
  C   C1334     1.0  0.37654  0.88946  0.54691  1.0000
  H   H2319     1.0  0.35365  0.86482  0.58458  1.0000
  H   H2320     1.0  0.19311  0.95306  0.50934  1.0000
  H   H2321     1.0  0.28397  0.54151  0.92970  1.0000
  H   H2322     1.0  0.29840  0.55518  0.92355  1.0000
  C   C1335     1.0  0.35513  0.57397  0.88643  1.0000
  H   H2323     1.0  0.37377  0.59345  0.96628  1.0000
  H   H2324     1.0  0.31867  0.95497  0.53854  1.0000
  S   S381      1.0  0.28250  0.91968  0.48540  1.0000
  H   H2325     1.0  0.33487  0.97882  0.55422  1.0000
  C   C1336     1.0  0.29122  0.49362  0.89678  1.0000
  H   H2326     1.0  0.26667  0.98345  0.48373  1.0000
  C   C1337     1.0  0.35890  0.88001  0.54586  1.0000
  H   H2327     1.0  0.24259  0.96497  0.50859  1.0000
  H   H2328     1.0  0.34223  0.59665  0.85389  1.0000
  H   H2329     1.0  0.35891  0.60574  0.96841  1.0000
  C   C1338     1.0  0.33548  0.56200  0.97916  1.0000
  C   C1339     1.0  0.37941  0.55914  0.91095  1.0000
  H   H2330     1.0  0.19542  0.50900  0.94079  1.0000
  H   H2331     1.0  0.28146  0.96112  0.54873  1.0000
  H   H2332     1.0  0.22497  0.95798  0.50172  1.0000
  H   H2333     1.0  0.30183  0.96102  0.51058  1.0000
  C   C1340     1.0  0.28596  0.54296  0.93876  1.0000
  H   H2334     1.0  0.32993  0.49793  0.96654  1.0000
  H   H2335     1.0  0.33393  0.59316  0.89142  1.0000
  C   C1341     1.0  0.28312  0.93286  0.55255  1.0000
  H   H2336     1.0  0.33276  0.59412  0.87066  1.0000
  C   C1342     1.0  0.21647  0.50774  0.87333  1.0000
  H   H2337     1.0  0.34345  0.87873  0.57609  1.0000
  C   C1343     1.0  0.34265  0.59115  0.86431  1.0000
  C   C1344     1.0  0.18762  0.55480  0.88864  1.0000
  H   H2338     1.0  0.27482  0.51694  0.96593  1.0000
  C   C1345     1.0  0.27325  0.96225  0.48973  1.0000
  C   C1346     1.0  0.24179  0.50916  0.97878  1.0000
  H   H2339     1.0  0.37530  0.89732  0.53773  1.0000
  H   H2340     1.0  0.34653  0.51157  0.96343  1.0000
  C   C1347     1.0  0.31457  0.49021  0.89640  1.0000
  C   C1348     1.0  0.29666  0.93469  0.55303  1.0000
  C   C1349     1.0  0.20512  0.50034  0.87768  1.0000
  H   H2341     1.0  0.26774  0.56581  0.94664  1.0000
  C   C1350     1.0  0.28759  0.48537  0.97369  1.0000
  C   C1351     1.0  0.29588  0.97208  0.54754  1.0000
  H   H2342     1.0  0.29547  0.49002  0.96712  1.0000
  C   C1352     1.0  0.31473  0.94622  0.54487  1.0000
  H   H2343     1.0  0.21645  0.94490  0.52481  1.0000
  H   H2344     1.0  0.19200  0.87798  0.48510  1.0000
  H   H2345     1.0  0.25314  0.55374  0.93365  1.0000
  H   H2346     1.0  0.36983  0.86597  0.56565  1.0000
  H   H2347     1.0  0.26785  0.56015  0.92468  1.0000
  H   H2348     1.0  0.35204  0.59480  0.90841  1.0000
  H   H2349     1.0  0.33387  0.52489  0.96785  1.0000
  H   H2350     1.0  0.34109  0.96138  0.55779  1.0000
  H   H2351     1.0  0.30523  0.48849  0.87406  1.0000
  C   C1353     1.0  0.35304  0.87536  0.57907  1.0000
  H   H2352     1.0  0.22578  0.97222  0.51502  1.0000
  H   H2353     1.0  0.30417  0.92602  0.54986  1.0000
  S   S382      1.0  0.35870  0.56932  0.97580  1.0000
  C   C1354     1.0  0.36610  0.56534  0.87768  1.0000
  H   H2354     1.0  0.20185  0.55279  0.96496  1.0000
  H   H2355     1.0  0.20400  0.97443  0.50563  1.0000
  H   H2356     1.0  0.30811  0.51042  0.96426  1.0000
  H   H2357     1.0  0.28410  0.51630  0.94901  1.0000
  C   C1355     1.0  0.27412  0.51887  0.95538  1.0000
  C   C1356     1.0  0.36886  0.60489  0.88222  1.0000
  C   C1357     1.0  0.37132  0.60465  0.98172  1.0000
  H   H2358     1.0  0.33733  0.88352  0.55472  1.0000
  H   H2359     1.0  0.29329  0.53374  0.94179  1.0000
  H   H2360     1.0  0.19474  0.55874  0.88013  1.0000
  C   C1358     1.0  0.36963  0.60359  0.96819  1.0000
  H   H2361     1.0  0.26514  0.53363  0.94054  1.0000
  C   C1359     1.0  0.36541  0.87618  0.56748  1.0000
  C   C1360     1.0  0.29131  0.95881  0.55114  1.0000
  H   H2362     1.0  0.30531  0.94038  0.52678  1.0000
  H   H2363     1.0  0.21289  0.51860  0.87271  1.0000
  C   C1361     1.0  0.35380  0.89884  0.55662  1.0000
  C   C1362     1.0  0.37429  0.57908  0.91970  1.0000
  N   N96       1.0  0.27359  0.54414  0.94964  1.0000
  H   H2364     1.0  0.35505  0.97263  0.56303  1.0000
  H   H2365     1.0  0.31134  0.95121  0.56448  1.0000
  H   H2366     1.0  0.37863  0.60476  0.88386  1.0000
  S   S383      1.0  0.26463  0.96936  0.53150  1.0000
  H   H2367     1.0  0.35297  0.88086  0.58649  1.0000
  C   C1363     1.0  0.19146  0.53126  0.97785  1.0000
  H   H2368     1.0  0.21175  0.88598  0.49229  1.0000
  H   H2369     1.0  0.34888  0.91478  0.56726  1.0000
  C   C1364     1.0  0.32388  0.50263  0.97503  1.0000
  H   H2370     1.0  0.35791  0.51215  0.98067  1.0000
  C   C1365     1.0  0.33638  0.97005  0.56254  1.0000
  C   C1366     1.0  0.19868  0.92705  0.50024  1.0000
  H   H2371     1.0  0.35153  0.60573  0.86651  1.0000
  H   H2372     1.0  0.21111  0.48595  0.89964  1.0000
  H   H2373     1.0  0.28751  0.98039  0.54508  1.0000
  H   H2374     1.0  0.26050  0.49456  0.94673  1.0000
  H   H2375     1.0  0.34983  0.49033  0.97613  1.0000
  C   C1367     1.0  0.19193  0.49095  0.93861  1.0000
  H   H2376     1.0  0.33705  0.96770  0.59704  1.0000
  C   C1368     1.0  0.27913  0.48832  0.89750  1.0000
  H   H2377     1.0  0.27027  0.49665  0.89802  1.0000
  H   H2378     1.0  0.31864  0.96568  0.59159  1.0000
  H   H2379     1.0  0.36780  0.57005  0.86691  1.0000
  H   H2380     1.0  0.35390  0.52821  0.97016  1.0000
  H   H2381     1.0  0.22357  0.50349  0.87995  1.0000
  H   H2382     1.0  0.37560  0.56278  0.88091  1.0000
  H   H2383     1.0  0.34657  0.86668  0.56012  1.0000
  H   H2384     1.0  0.36129  0.61013  0.88955  1.0000
  H   H2385     1.0  0.31202  0.49319  0.90614  1.0000
  H   H2386     1.0  0.19140  0.90093  0.48892  1.0000
  C   C1369     1.0  0.38642  0.54359  0.96502  1.0000
  H   H2387     1.0  0.22208  0.50649  0.86316  1.0000
  H   H2388     1.0  0.23348  0.89056  0.48238  1.0000
  C   C1370     1.0  0.19012  0.91825  0.50540  1.0000
  H   H2389     1.0  0.32672  0.96834  0.56881  1.0000
  H   H2390     1.0  0.38659  0.62243  0.97499  1.0000
  H   H2391     1.0  0.33448  0.59786  0.91220  1.0000
  C   C1371     1.0  0.19450  0.90538  0.51251  1.0000
  H   H2392     1.0  0.20110  0.93434  0.52386  1.0000
  C   C1372     1.0  0.34574  0.97125  0.57050  1.0000
  C   C1373     1.0  0.36271  0.97223  0.58711  1.0000
  C   C1374     1.0  0.20809  0.98249  0.49779  1.0000
  H   H2393     1.0  0.38056  0.56172  0.94363  1.0000
  C   C1375     1.0  0.31840  0.97609  0.59163  1.0000
  H   H2394     1.0  0.21533  0.49658  0.91449  1.0000
  H   H2395     1.0  0.19699  0.56901  0.96810  1.0000
  H   H2396     1.0  0.24607  0.49545  0.94117  1.0000
  C   C1376     1.0  0.34572  0.87548  0.55170  1.0000
  H   H2397     1.0  0.18951  0.96012  0.54993  1.0000
  H   H2398     1.0  0.20163  0.51028  0.91266  1.0000
  H   H2399     1.0  0.31126  0.97863  0.60080  1.0000
  C   C1377     1.0  0.25324  0.48883  0.94711  1.0000
  H   H2400     1.0  0.35793  0.96660  0.59679  1.0000
  C   C1378     1.0  0.36353  0.98241  0.48785  1.0000
  H   H2401     1.0  0.21594  0.50887  0.89919  1.0000
  H   H2402     1.0  0.34317  0.87234  0.54384  1.0000
  N   N97       1.0  0.33277  0.50578  0.98184  1.0000
  H   H2403     1.0  0.54412  0.00006  0.42890  1.0000
  H   H2404     1.0  0.50512  0.30858  0.98348  1.0000
  H   H2405     1.0  0.58089  0.98727  0.07794  1.0000
  H   H2406     1.0  0.38950  0.04682  0.13637  1.0000
  S   S384      1.0  0.53577  0.00740  0.35804  1.0000
  Fe  Fe193     1.0  0.54003  0.03829  0.32946  1.0000
  S   S385      1.0  0.52453  0.02728  0.33189  1.0000
  S   S386      1.0  0.54335  0.05502  0.31170  1.0000
  Fe  Fe194     1.0  0.52099  0.02662  0.35363  1.0000
  S   S387      1.0  0.49947  0.02948  0.36408  1.0000
  Fe  Fe195     1.0  0.54020  0.00907  0.33588  1.0000
  S   S388      1.0  0.53529  0.03947  0.35106  1.0000
  Fe  Fe196     1.0  0.44972  0.02527  0.32686  1.0000
  S   S389      1.0  0.45167  0.01544  0.31027  1.0000
  S   S390      1.0  0.46210  0.04007  0.32411  1.0000
  Fe  Fe197     1.0  0.42740  0.01244  0.34534  1.0000
  S   S391      1.0  0.44646  0.15978  0.99317  1.0000
  S   S392      1.0  0.41620  0.00650  0.36672  1.0000
  C   C1379     1.0  0.45849  0.02886  0.38331  1.0000
  H   H2407     1.0  0.40973  0.17179  0.00008  1.0000
  Fe  Fe198     1.0  0.42953  0.02040  0.31485  1.0000
  S   S393      1.0  0.41911  0.02786  0.29756  1.0000
  S   S394      1.0  0.44950  0.00654  0.34274  1.0000
  S   S395      1.0  0.42753  0.03195  0.33028  1.0000
  Fe  Fe199     1.0  0.45183  0.01024  0.10098  1.0000
  S   S396      1.0  0.45262  0.01786  0.11826  1.0000
  Fe  Fe200     1.0  0.43579  0.03704  0.08856  1.0000
  S   S397      1.0  0.43518  0.04660  0.10490  1.0000
  S   S398      1.0  0.42662  0.04823  0.07090  1.0000
  Fe  Fe201     1.0  0.45650  0.03619  0.10273  1.0000
  S   S399      1.0  0.47216  0.04681  0.10127  1.0000
  Fe  Fe202     1.0  0.43129  0.02741  0.11879  1.0000
  S   S400      1.0  0.41422  0.02720  0.13670  1.0000
  S   S401      1.0  0.45747  0.02789  0.08539  1.0000
  S   S402      1.0  0.43009  0.01854  0.10252  1.0000
  C   C1380     1.0  0.48752  0.02189  0.10049  1.0000
  S   S403      1.0  0.53342  0.02466  0.12522  1.0000
  H   H2408     1.0  0.43128  0.99442  0.12432  1.0000
  Fe  Fe203     1.0  0.44060  0.11423  0.02511  1.0000
  S   S404      1.0  0.45722  0.12488  0.01951  1.0000
  S   S405      1.0  0.43229  0.10808  0.04722  1.0000
  C   C1381     1.0  0.40101  0.39933  0.02120  1.0000
  H   H2409     1.0  0.47940  0.99047  0.13758  1.0000
  Fe  Fe204     1.0  0.46677  0.11098  0.00562  1.0000
  S   S406      1.0  0.48805  0.10086  0.00490  1.0000
  Fe  Fe205     1.0  0.44764  0.13798  0.00290  1.0000
  H   H2410     1.0  0.41237  0.28438  0.00226  1.0000
  S   S407      1.0  0.45082  0.09942  0.01223  1.0000
  S   S408      1.0  0.42995  0.12876  0.00974  1.0000
  C   C1382     1.0  0.52500  0.31063  0.98290  1.0000
  H   H2411     1.0  0.48859  0.05688  0.18704  1.0000
  H   H2412     1.0  0.48331  0.19083  0.99434  1.0000
  S   S409      1.0  0.53858  0.22325  0.03844  1.0000
  H   H2413     1.0  0.43656  0.06493  0.28291  1.0000
  H   H2414     1.0  0.46448  0.07549  0.25598  1.0000
  Fe  Fe206     1.0  0.45629  0.03362  0.20746  1.0000
  S   S410      1.0  0.43593  0.03197  0.21966  1.0000
  S   S411      1.0  0.46415  0.05158  0.20549  1.0000
  H   H2415     1.0  0.43732  0.02431  0.17183  1.0000
  H   H2416     1.0  0.57110  0.08915  0.00682  1.0000
  Fe  Fe207     1.0  0.43427  0.02451  0.20256  1.0000
  S   S412      1.0  0.41561  0.02989  0.19490  1.0000
  H   H2417     1.0  0.45618  0.06937  0.07639  1.0000
  S   S413      1.0  0.45374  0.02817  0.18962  1.0000
  Fe  Fe208     1.0  0.51757  0.03592  0.24289  1.0000
  S   S414      1.0  0.53477  0.04552  0.23262  1.0000
  S   S415      1.0  0.49720  0.04874  0.24687  1.0000
  H   H2418     1.0  0.42009  0.18752  0.01245  1.0000
  S   S416      1.0  0.55045  0.20478  0.01618  1.0000
  Fe  Fe209     1.0  0.44603  0.22470  0.01038  1.0000
  H   H2419     1.0  0.56574  0.99504  0.07245  1.0000
  S   S417      1.0  0.44789  0.20333  0.02213  1.0000
  Fe  Fe210     1.0  0.43740  0.25395  0.01242  1.0000
  H   H2420     1.0  0.43581  0.05165  0.29744  1.0000
  S   S418      1.0  0.42770  0.26743  0.02682  1.0000
  C   C1383     1.0  0.54437  0.28704  0.99288  1.0000
  H   H2421     1.0  0.55732  0.99469  0.40815  1.0000
  C   C1384     1.0  0.55116  0.02961  0.17457  1.0000
  S   S419      1.0  0.42653  0.23941  0.01123  1.0000
  S   S420      1.0  0.45621  0.23872  0.01381  1.0000
  H   H2422     1.0  0.40180  0.17667  0.01949  1.0000
  S   S421      1.0  0.56773  0.35304  0.01318  1.0000
  H   H2423     1.0  0.51843  0.02921  0.16611  1.0000
  S   S422      1.0  0.56105  0.32749  0.00675  1.0000
  C   C1385     1.0  0.50995  0.01499  0.10375  1.0000
  Fe  Fe211     1.0  0.57248  0.34328  0.99590  1.0000
  Fe  Fe212     1.0  0.55795  0.33599  0.02450  1.0000
  S   S423      1.0  0.53816  0.33758  0.03894  1.0000
  H   H2424     1.0  0.51799  0.04503  0.20299  1.0000
  H   H2425     1.0  0.47167  0.04184  0.04277  1.0000
  H   H2426     1.0  0.53992  0.33689  0.99184  1.0000
  H   H2427     1.0  0.42101  0.99042  0.17083  1.0000
  C   C1386     1.0  0.48726  0.22722  0.99928  1.0000
  Fe  Fe213     1.0  0.45897  0.32374  0.02411  1.0000
  S   S424      1.0  0.45471  0.34475  0.02705  1.0000
  S   S425      1.0  0.45568  0.30538  0.03994  1.0000
  S   S426      1.0  0.54745  0.13665  0.01750  1.0000
  H   H2428     1.0  0.49153  0.02801  0.23846  1.0000
  S   S427      1.0  0.38976  0.41164  0.02932  1.0000
  Fe  Fe214     1.0  0.47429  0.34561  0.01227  1.0000
  S   S428      1.0  0.49066  0.35623  0.00912  1.0000
  Fe  Fe215     1.0  0.44574  0.35043  0.00899  1.0000
  S   S429      1.0  0.42678  0.36379  0.00351  1.0000
  S   S430      1.0  0.47914  0.32421  0.01096  1.0000
  S   S431      1.0  0.44857  0.32932  0.00740  1.0000
  C   C1387     1.0  0.41758  0.37779  0.01013  1.0000
  C   C1388     1.0  0.41994  0.38039  0.02127  1.0000
  H   H2429     1.0  0.54122  0.99085  0.27734  1.0000
  C   C1389     1.0  0.40714  0.38618  0.00437  1.0000
  H   H2430     1.0  0.42797  0.37397  0.02577  1.0000
  H   H2431     1.0  0.40246  0.36496  0.04766  1.0000
  H   H2432     1.0  0.55115  0.02631  0.15554  1.0000
  C   C1390     1.0  0.52488  0.34257  0.03078  1.0000
  C   C1391     1.0  0.52628  0.35035  0.01777  1.0000
  C   C1392     1.0  0.51559  0.35464  0.01144  1.0000
  C   C1393     1.0  0.50362  0.35065  0.01775  1.0000
  C   C1394     1.0  0.50223  0.34270  0.03071  1.0000
  C   C1395     1.0  0.51279  0.33884  0.03729  1.0000
  H   H2433     1.0  0.53551  0.35336  0.01270  1.0000
  H   H2434     1.0  0.51667  0.36094  0.00149  1.0000
  H   H2435     1.0  0.49296  0.33977  0.03574  1.0000
  H   H2436     1.0  0.51164  0.33287  0.04738  1.0000
  C   C1396     1.0  0.55281  0.04154  0.27238  1.0000
  H   H2437     1.0  0.43656  0.03350  0.39949  1.0000
  C   C1397     1.0  0.47762  0.19723  0.04165  1.0000
  H   H2438     1.0  0.50578  0.09340  0.02268  1.0000
  C   C1398     1.0  0.51410  0.31313  0.00569  1.0000
  H   H2439     1.0  0.53458  0.36574  0.07618  1.0000
  C   C1399     1.0  0.50303  0.10414  0.02002  1.0000
  H   H2440     1.0  0.43304  0.04717  0.38610  1.0000
  C   C1400     1.0  0.44811  0.29496  0.03579  1.0000
  C   C1401     1.0  0.44965  0.29425  0.02250  1.0000
  C   C1402     1.0  0.44408  0.28525  0.01960  1.0000
  C   C1403     1.0  0.43651  0.27735  0.02997  1.0000
  C   C1404     1.0  0.43496  0.27816  0.04318  1.0000
  C   C1405     1.0  0.44097  0.28669  0.04609  1.0000
  H   H2441     1.0  0.45530  0.30048  0.01450  1.0000
  H   H2442     1.0  0.44528  0.28472  0.00938  1.0000
  H   H2443     1.0  0.42903  0.27219  0.05122  1.0000
  H   H2444     1.0  0.43979  0.28713  0.05637  1.0000
  C   C1406     1.0  0.47380  0.05044  0.21672  1.0000
  C   C1407     1.0  0.47953  0.03813  0.22395  1.0000
  C   C1408     1.0  0.48724  0.03754  0.23280  1.0000
  C   C1409     1.0  0.48904  0.04928  0.23461  1.0000
  C   C1410     1.0  0.48347  0.06157  0.22726  1.0000
  C   C1411     1.0  0.47595  0.06214  0.21827  1.0000
  H   H2445     1.0  0.47812  0.02905  0.22272  1.0000
  H   H2446     1.0  0.57786  0.24258  0.06626  1.0000
  H   H2447     1.0  0.48486  0.07067  0.22863  1.0000
  H   H2448     1.0  0.47163  0.07168  0.21264  1.0000
  H   H2449     1.0  0.47818  0.07421  0.09917  1.0000
  C   C1412     1.0  0.50766  0.11179  0.02566  1.0000
  H   H2450     1.0  0.51853  0.05209  0.17930  1.0000
  H   H2451     1.0  0.49134  0.07172  0.10708  1.0000
  H   H2452     1.0  0.44829  0.02907  0.26192  1.0000
  H   H2453     1.0  0.49335  0.17517  0.00045  1.0000
  S   S432      1.0  0.54719  0.99286  0.12984  1.0000
  H   H2454     1.0  0.47826  0.16020  0.02089  1.0000
  Fe  Fe216     1.0  0.54501  0.00963  0.13947  1.0000
  Fe  Fe217     1.0  0.54852  0.23885  0.02343  1.0000
  C   C1413     1.0  0.46027  0.05628  0.25845  1.0000
  N   N98       1.0  0.45022  0.04774  0.26433  1.0000
  H   H2455     1.0  0.45305  0.04761  0.39048  1.0000
  S   S433      1.0  0.44309  0.26142  0.99032  1.0000
  H   H2456     1.0  0.47662  0.19669  0.01602  1.0000
  C   C1414     1.0  0.44750  0.17137  0.00146  1.0000
  C   C1415     1.0  0.40204  0.19377  0.99572  1.0000
  C   C1416     1.0  0.44875  0.19401  0.00024  1.0000
  C   C1417     1.0  0.44775  0.19113  0.01403  1.0000
  C   C1418     1.0  0.44665  0.17828  0.02152  1.0000
  C   C1419     1.0  0.44657  0.16839  0.01525  1.0000
  H   H2457     1.0  0.57240  0.04379  0.34921  1.0000
  H   H2458     1.0  0.55774  0.07538  0.08747  1.0000
  H   H2459     1.0  0.44568  0.17601  0.03222  1.0000
  H   H2460     1.0  0.44558  0.15855  0.02109  1.0000
  H   H2461     1.0  0.47909  0.01943  0.09902  1.0000
  H   H2462     1.0  0.45559  0.03369  0.35883  1.0000
  C   C1420     1.0  0.44530  0.98494  0.08832  1.0000
  C   C1421     1.0  0.54921  0.03277  0.28456  1.0000
  Fe  Fe218     1.0  0.44172  0.11481  0.99625  1.0000
  C   C1422     1.0  0.49074  0.12431  0.00805  1.0000
  C   C1423     1.0  0.49452  0.11040  0.01126  1.0000
  C   C1424     1.0  0.43475  0.03801  0.35921  1.0000
  H   H2463     1.0  0.54122  0.28614  0.98423  1.0000
  H   H2464     1.0  0.49403  0.18068  0.04465  1.0000
  C   C1425     1.0  0.55229  0.05578  0.06481  1.0000
  C   C1426     1.0  0.55333  0.04948  0.07806  1.0000
  H   H2465     1.0  0.55073  0.05029  0.05853  1.0000
  H   H2466     1.0  0.55248  0.03924  0.08192  1.0000
  H   H2467     1.0  0.51168  0.05712  0.11051  1.0000
  C   C1427     1.0  0.42795  0.06495  0.06442  1.0000
  C   C1428     1.0  0.43036  0.07219  0.07218  1.0000
  C   C1429     1.0  0.43147  0.08546  0.06684  1.0000
  C   C1430     1.0  0.43068  0.09146  0.05355  1.0000
  C   C1431     1.0  0.42844  0.08420  0.04569  1.0000
  C   C1432     1.0  0.42684  0.07104  0.05120  1.0000
  H   H2468     1.0  0.43127  0.06765  0.08233  1.0000
  H   H2469     1.0  0.43313  0.09107  0.07297  1.0000
  H   H2470     1.0  0.42769  0.08880  0.03546  1.0000
  H   H2471     1.0  0.42500  0.06550  0.04512  1.0000
  C   C1433     1.0  0.41613  0.02951  0.17833  1.0000
  C   C1434     1.0  0.42798  0.02632  0.16904  1.0000
  C   C1435     1.0  0.42768  0.02578  0.15605  1.0000
  C   C1436     1.0  0.41553  0.02825  0.15246  1.0000
  C   C1437     1.0  0.40379  0.03135  0.16182  1.0000
  C   C1438     1.0  0.40409  0.03213  0.17458  1.0000
  C   C1439     1.0  0.56543  0.17554  0.00121  1.0000
  S   S434      1.0  0.55323  0.01539  0.23544  1.0000
  C   C1440     1.0  0.50950  0.04432  0.19948  1.0000
  S   S435      1.0  0.57076  0.21844  0.98283  1.0000
  C   C1441     1.0  0.48685  0.03472  0.10173  1.0000
  C   C1442     1.0  0.49788  0.03779  0.10354  1.0000
  C   C1443     1.0  0.50945  0.02793  0.10454  1.0000
  H   H2472     1.0  0.48011  0.26732  0.99471  1.0000
  H   H2473     1.0  0.49730  0.04765  0.10458  1.0000
  H   H2474     1.0  0.51793  0.03031  0.10602  1.0000
  C   C1444     1.0  0.42622  0.02016  0.28378  1.0000
  C   C1445     1.0  0.42057  0.02433  0.27253  1.0000
  C   C1446     1.0  0.42629  0.01832  0.26147  1.0000
  H   H2475     1.0  0.47339  0.08434  0.03001  1.0000
  C   C1447     1.0  0.56429  0.99607  0.43187  1.0000
  C   C1448     1.0  0.55600  0.08505  0.99973  1.0000
  H   H2476     1.0  0.41176  0.03221  0.27238  1.0000
  H   H2477     1.0  0.42185  0.02153  0.25287  1.0000
  H   H2478     1.0  0.45576  0.06938  0.27239  1.0000
  C   C1449     1.0  0.56464  0.98856  0.28372  1.0000
  H   H2479     1.0  0.47595  0.17075  0.04556  1.0000
  H   H2480     1.0  0.57200  0.06315  0.98998  1.0000
  C   C1450     1.0  0.39902  0.03072  0.36933  1.0000
  C   C1451     1.0  0.40366  0.01750  0.37544  1.0000
  C   C1452     1.0  0.39819  0.01271  0.38893  1.0000
  C   C1453     1.0  0.55625  0.17520  0.99261  1.0000
  H   H2481     1.0  0.40320  0.03451  0.35893  1.0000
  H   H2482     1.0  0.40187  0.00255  0.39377  1.0000
  H   H2483     1.0  0.55581  0.08650  0.06412  1.0000
  C   C1454     1.0  0.48961  0.03209  0.35254  1.0000
  C   C1455     1.0  0.48403  0.04508  0.34662  1.0000
  C   C1456     1.0  0.47574  0.04734  0.33782  1.0000
  C   C1457     1.0  0.47283  0.03664  0.33498  1.0000
  C   C1458     1.0  0.47840  0.02360  0.34088  1.0000
  C   C1459     1.0  0.48682  0.02133  0.34964  1.0000
  H   H2484     1.0  0.48610  0.05342  0.34886  1.0000
  H   H2485     1.0  0.47142  0.05743  0.33333  1.0000
  H   H2486     1.0  0.47631  0.01527  0.33864  1.0000
  H   H2487     1.0  0.49113  0.01125  0.35418  1.0000
  C   C1460     1.0  0.54641  0.03681  0.29667  1.0000
  C   C1461     1.0  0.51699  0.06523  0.10512  1.0000
  H   H2488     1.0  0.54405  0.02984  0.30602  1.0000
  H   H2489     1.0  0.54903  0.02272  0.28471  1.0000
  N   N99       1.0  0.39219  0.05750  0.10797  1.0000
  H   H2490     1.0  0.39058  0.98803  0.38712  1.0000
  H   H2491     1.0  0.45915  0.02222  0.39332  1.0000
  H   H2492     1.0  0.48948  0.21430  0.01815  1.0000
  H   H2493     1.0  0.40278  0.08255  0.09600  1.0000
  S   S436      1.0  0.56462  0.01423  0.12786  1.0000
  H   H2494     1.0  0.48024  0.03232  0.06101  1.0000
  H   H2495     1.0  0.50504  0.02260  0.19148  1.0000
  H   H2496     1.0  0.49284  0.14268  0.01078  1.0000
  H   H2497     1.0  0.49954  0.00215  0.10051  1.0000
  H   H2498     1.0  0.46722  0.02453  0.37612  1.0000
  C   C1462     1.0  0.51466  0.31322  0.01991  1.0000
  C   C1463     1.0  0.46767  0.02534  0.26574  1.0000
  S   S437      1.0  0.55652  0.01271  0.10085  1.0000
  Fe  Fe219     1.0  0.54147  0.02951  0.22088  1.0000
  H   H2499     1.0  0.52509  0.28833  0.00613  1.0000
  H   H2500     1.0  0.39242  0.06089  0.13971  1.0000
  H   H2501     1.0  0.38706  0.08369  0.09218  1.0000
  H   H2502     1.0  0.40532  0.38427  0.99571  1.0000
  C   C1464     1.0  0.39711  0.00319  0.20744  1.0000
  Fe  Fe220     1.0  0.53763  0.00824  0.11442  1.0000
  H   H2503     1.0  0.44581  0.06274  0.23817  1.0000
  H   H2504     1.0  0.49886  0.06380  0.17259  1.0000
  C   C1465     1.0  0.51155  0.23243  0.99789  1.0000
  H   H2505     1.0  0.48991  0.03418  0.19540  1.0000
  H   H2506     1.0  0.56181  0.20057  0.07156  1.0000
  S   S438      1.0  0.52384  0.00225  0.10618  1.0000
  H   H2507     1.0  0.51895  0.30324  0.02542  1.0000
  H   H2508     1.0  0.50444  0.31631  0.02566  1.0000
  H   H2509     1.0  0.44001  0.99505  0.08867  1.0000
  N   N100      1.0  0.56740  0.35760  0.05853  1.0000
  H   H2510     1.0  0.47034  0.19194  0.04921  1.0000
  H   H2511     1.0  0.56576  0.98793  0.09002  1.0000
  H   H2512     1.0  0.40422  0.99854  0.17041  1.0000
  H   H2513     1.0  0.44248  0.00728  0.29197  1.0000
  H   H2514     1.0  0.45640  0.05438  0.06525  1.0000
  S   S439      1.0  0.57622  0.32264  0.03098  1.0000
  H   H2515     1.0  0.57546  0.98485  0.28291  1.0000
  H   H2516     1.0  0.39237  0.19292  0.99460  1.0000
  H   H2517     1.0  0.47576  0.04998  0.07305  1.0000
  C   C1466     1.0  0.46107  0.05777  0.05456  1.0000
  H   H2518     1.0  0.40537  0.14099  0.98241  1.0000
  H   H2519     1.0  0.41754  0.03457  0.38223  1.0000
  C   C1467     1.0  0.58383  0.33463  0.05917  1.0000
  H   H2520     1.0  0.53904  0.01133  0.20494  1.0000
  H   H2521     1.0  0.56132  0.21958  0.05079  1.0000
  N   N101      1.0  0.44572  0.02934  0.37980  1.0000
  H   H2522     1.0  0.39437  0.03319  0.15920  1.0000
  H   H2523     1.0  0.42766  0.30406  0.99557  1.0000
  H   H2524     1.0  0.54586  0.98608  0.08921  1.0000
  H   H2525     1.0  0.40510  0.20176  0.98719  1.0000
  H   H2526     1.0  0.42237  0.18149  0.99280  1.0000
  C   C1468     1.0  0.51422  0.04325  0.18470  1.0000
  H   H2527     1.0  0.55897  0.35003  0.04672  1.0000
  S   S440      1.0  0.52710  0.02230  0.25939  1.0000
  C   C1469     1.0  0.46171  0.04698  0.04720  1.0000
  H   H2528     1.0  0.47642  0.02979  0.26301  1.0000
  C   C1470     1.0  0.54760  0.02554  0.18854  1.0000
  C   C1471     1.0  0.42636  0.98611  0.12597  1.0000
  H   H2529     1.0  0.41981  0.19787  0.02823  1.0000
  H   H2530     1.0  0.58367  0.33446  0.04892  1.0000
  H   H2531     1.0  0.53992  0.98863  0.29476  1.0000
  H   H2532     1.0  0.42897  0.06161  0.24189  1.0000
  H   H2533     1.0  0.42613  0.05356  0.28574  1.0000
  H   H2534     1.0  0.55961  0.98990  0.34508  1.0000
  S   S441      1.0  0.45241  0.22998  0.98807  1.0000
  H   H2535     1.0  0.44450  0.03487  0.28364  1.0000
  C   C1472     1.0  0.43877  0.05638  0.24420  1.0000
  H   H2536     1.0  0.41953  0.20266  0.00047  1.0000
  H   H2537     1.0  0.40763  0.03974  0.11042  1.0000
  Fe  Fe221     1.0  0.53161  0.12540  0.02883  1.0000
  S   S442      1.0  0.44431  0.99921  0.24875  1.0000
  H   H2538     1.0  0.48134  0.07374  0.01858  1.0000
  H   H2539     1.0  0.44727  0.07627  0.25860  1.0000
  C   C1473     1.0  0.57526  0.02020  0.42797  1.0000
  H   H2540     1.0  0.45626  0.04374  0.28310  1.0000
  H   H2541     1.0  0.56150  0.06958  0.33750  1.0000
  H   H2542     1.0  0.38744  0.21301  0.01873  1.0000
  H   H2543     1.0  0.41796  0.98715  0.13466  1.0000
  S   S443      1.0  0.51049  0.13529  0.02869  1.0000
  C   C1474     1.0  0.57508  0.28437  0.01509  1.0000
  C   C1475     1.0  0.42072  0.03297  0.39160  1.0000
  H   H2544     1.0  0.48548  0.05433  0.03556  1.0000
  H   H2545     1.0  0.45606  0.05136  0.03917  1.0000
  H   H2546     1.0  0.48444  0.98604  0.25696  1.0000
  H   H2547     1.0  0.46965  0.05125  0.26176  1.0000
  H   H2548     1.0  0.43018  0.04782  0.26445  1.0000
  H   H2549     1.0  0.39101  0.40338  0.00523  1.0000
  C   C1476     1.0  0.55315  0.06916  0.05971  1.0000
  H   H2550     1.0  0.55041  0.06863  0.28436  1.0000
  C   C1477     1.0  0.54172  0.01458  0.19419  1.0000
  N   N102      1.0  0.51028  0.07879  0.08257  1.0000
  C   C1478     1.0  0.51626  0.08053  0.06774  1.0000
  C   C1479     1.0  0.50921  0.09174  0.08616  1.0000
  C   C1480     1.0  0.49672  0.07611  0.08492  1.0000
  C   C1481     1.0  0.51915  0.06716  0.08982  1.0000
  C   C1482     1.0  0.51709  0.06896  0.06141  1.0000
  C   C1483     1.0  0.52247  0.09546  0.08460  1.0000
  C   C1484     1.0  0.48716  0.07775  0.09839  1.0000
  H   H2551     1.0  0.51072  0.08972  0.06198  1.0000
  H   H2552     1.0  0.52654  0.08192  0.06543  1.0000
  H   H2553     1.0  0.50375  0.09198  0.09657  1.0000
  H   H2554     1.0  0.50323  0.10013  0.07997  1.0000
  H   H2555     1.0  0.49146  0.08285  0.07707  1.0000
  H   H2556     1.0  0.49749  0.06580  0.08405  1.0000
  H   H2557     1.0  0.51851  0.05761  0.08813  1.0000
  H   H2558     1.0  0.52966  0.06759  0.08550  1.0000
  H   H2559     1.0  0.52302  0.05945  0.06610  1.0000
  H   H2560     1.0  0.50717  0.06773  0.06166  1.0000
  H   H2561     1.0  0.52221  0.07127  0.05072  1.0000
  H   H2562     1.0  0.52908  0.08758  0.09044  1.0000
  H   H2563     1.0  0.52774  0.09780  0.07400  1.0000
  H   H2564     1.0  0.52048  0.10461  0.08842  1.0000
  H   H2565     1.0  0.48373  0.08835  0.09909  1.0000
  S   S444      1.0  0.54971  0.03489  0.19862  1.0000
  S   S445      1.0  0.54060  0.11530  0.04666  1.0000
  S   S446      1.0  0.55096  0.07695  0.04330  1.0000
  H   H2566     1.0  0.48392  0.15164  0.03602  1.0000
  C   C1485     1.0  0.49911  0.01207  0.10139  1.0000
  C   C1486     1.0  0.51886  0.04924  0.15492  1.0000
  H   H2567     1.0  0.52194  0.16506  0.01687  1.0000
  H   H2568     1.0  0.40317  0.03795  0.09017  1.0000
  C   C1487     1.0  0.57710  0.16490  0.04970  1.0000
  C   C1488     1.0  0.54856  0.02296  0.16629  1.0000
  H   H2569     1.0  0.41306  0.99075  0.21683  1.0000
  H   H2570     1.0  0.51593  0.29297  0.98882  1.0000
  H   H2571     1.0  0.39213  0.03730  0.11997  1.0000
  C   C1489     1.0  0.44302  0.00365  0.27306  1.0000
  H   H2572     1.0  0.54373  0.34902  0.07702  1.0000
  H   H2573     1.0  0.51388  0.10691  0.03276  1.0000
  H   H2574     1.0  0.53684  0.98545  0.05446  1.0000
  H   H2575     1.0  0.46721  0.18034  0.03302  1.0000
  H   H2576     1.0  0.54622  0.01057  0.43808  1.0000
  C   C1490     1.0  0.41431  0.20494  0.02079  1.0000
  S   S447      1.0  0.54406  0.25890  0.02862  1.0000
  Fe  Fe222     1.0  0.53270  0.22071  0.02097  1.0000
  C   C1491     1.0  0.41157  0.29510  0.99730  1.0000
  Fe  Fe223     1.0  0.55069  0.09898  0.03549  1.0000
  C   C1492     1.0  0.55513  0.07619  0.06793  1.0000
  H   H2577     1.0  0.40628  0.05892  0.11819  1.0000
  H   H2578     1.0  0.58312  0.01646  0.43374  1.0000
  C   C1493     1.0  0.55326  0.05445  0.27240  1.0000
  S   S448      1.0  0.47606  0.99187  0.18953  1.0000
  C   C1494     1.0  0.56125  0.06345  0.99252  1.0000
  C   C1495     1.0  0.47496  0.07407  0.02870  1.0000
  C   C1496     1.0  0.49201  0.23714  0.98898  1.0000
  H   H2579     1.0  0.48406  0.03119  0.17443  1.0000
  H   H2580     1.0  0.54713  0.18307  0.99425  1.0000
  S   S449      1.0  0.54027  0.10845  0.01860  1.0000
  C   C1497     1.0  0.39532  0.22264  0.99881  1.0000
  C   C1498     1.0  0.39503  0.18658  0.01979  1.0000
  H   H2581     1.0  0.49768  0.19349  0.03045  1.0000
  H   H2582     1.0  0.42274  0.98749  0.11683  1.0000
  H   H2583     1.0  0.47912  0.07942  0.05456  1.0000
  H   H2584     1.0  0.57348  0.25012  0.04452  1.0000
  C   C1499     1.0  0.40003  0.06342  0.09456  1.0000
  C   C1500     1.0  0.44616  0.03716  0.36561  1.0000
  H   H2585     1.0  0.39701  0.01146  0.19845  1.0000
  H   H2586     1.0  0.45667  0.03919  0.05428  1.0000
  H   H2587     1.0  0.54913  0.05057  0.00782  1.0000
  H   H2588     1.0  0.48326  0.98807  0.27325  1.0000
  H   H2589     1.0  0.46485  0.02192  0.27675  1.0000
  S   S450      1.0  0.54107  0.23745  0.00641  1.0000
  H   H2590     1.0  0.55981  0.05866  0.98517  1.0000
  C   C1501     1.0  0.50596  0.22361  0.00905  1.0000
  C   C1502     1.0  0.56726  0.17548  0.04523  1.0000
  S   S451      1.0  0.54248  0.99333  0.32488  1.0000
  C   C1503     1.0  0.45649  0.00652  0.37350  1.0000
  H   H2591     1.0  0.45977  0.03664  0.24870  1.0000
  H   H2592     1.0  0.56245  0.21195  0.08069  1.0000
  Fe  Fe224     1.0  0.53446  0.00833  0.24546  1.0000
  C   C1504     1.0  0.53282  0.29430  0.00237  1.0000
  C   C1505     1.0  0.55624  0.06987  0.08116  1.0000
  H   H2593     1.0  0.50452  0.03747  0.15933  1.0000
  H   H2594     1.0  0.51345  0.18036  0.00814  1.0000
  C   C1506     1.0  0.57024  0.08173  0.00185  1.0000
  C   C1507     1.0  0.50404  0.12570  0.02230  1.0000
  C   C1508     1.0  0.50075  0.16895  0.02489  1.0000
  Fe  Fe225     1.0  0.44558  0.01083  0.22743  1.0000
  C   C1509     1.0  0.49119  0.02409  0.18012  1.0000
  H   H2595     1.0  0.50220  0.16201  0.03458  1.0000
  C   C1510     1.0  0.48793  0.03783  0.05974  1.0000
  S   S452      1.0  0.56741  0.19166  0.04606  1.0000
  H   H2596     1.0  0.52100  0.23432  0.99720  1.0000
  H   H2597     1.0  0.50003  0.16266  0.01859  1.0000
  H   H2598     1.0  0.48676  0.28172  0.98702  1.0000
  Fe  Fe226     1.0  0.55055  0.02017  0.35352  1.0000
  H   H2599     1.0  0.49388  0.03193  0.06726  1.0000
  C   C1511     1.0  0.49555  0.13195  0.01352  1.0000
  C   C1512     1.0  0.55623  0.26844  0.02338  1.0000
  Fe  Fe227     1.0  0.55744  0.12509  0.03433  1.0000
  N   N103      1.0  0.48830  0.17953  0.02717  1.0000
  H   H2600     1.0  0.51256  0.25783  0.03342  1.0000
  H   H2601     1.0  0.49115  0.06668  0.03877  1.0000
  H   H2602     1.0  0.49994  0.24819  0.03991  1.0000
  C   C1513     1.0  0.53267  0.33192  0.99076  1.0000
  C   C1514     1.0  0.57777  0.99292  0.40941  1.0000
  H   H2603     1.0  0.54980  0.18098  0.03715  1.0000
  H   H2604     1.0  0.54386  0.28381  0.03359  1.0000
  H   H2605     1.0  0.57198  0.34265  0.07612  1.0000
  C   C1515     1.0  0.57919  0.05115  0.31478  1.0000
  H   H2606     1.0  0.40205  0.08184  0.07981  1.0000
  S   S453      1.0  0.45871  0.12490  0.98843  1.0000
  C   C1516     1.0  0.50444  0.23942  0.98792  1.0000
  H   H2607     1.0  0.38781  0.17976  0.04105  1.0000
  H   H2608     1.0  0.47035  0.04046  0.38663  1.0000
  H   H2609     1.0  0.41313  0.03964  0.39766  1.0000
  H   H2610     1.0  0.50495  0.34329  0.98257  1.0000
  H   H2611     1.0  0.41082  0.05950  0.09402  1.0000
  H   H2612     1.0  0.41328  0.39288  0.03564  1.0000
  H   H2613     1.0  0.57639  0.18582  0.01537  1.0000
  H   H2614     1.0  0.47546  0.99208  0.12160  1.0000
  H   H2615     1.0  0.57399  0.35471  0.03829  1.0000
  H   H2616     1.0  0.56757  0.99774  0.26200  1.0000
  C   C1517     1.0  0.41163  0.39111  0.02682  1.0000
  C   C1518     1.0  0.55819  0.05421  0.00645  1.0000
  H   H2617     1.0  0.57258  0.07187  0.00862  1.0000
  H   H2618     1.0  0.56405  0.07011  0.31413  1.0000
  H   H2619     1.0  0.55390  0.26155  0.05236  1.0000
  C   C1519     1.0  0.52397  0.15548  0.98458  1.0000
  H   H2620     1.0  0.55346  0.09595  0.99556  1.0000
  H   H2621     1.0  0.54850  0.21463  0.07324  1.0000
  H   H2622     1.0  0.56349  0.37491  0.02843  1.0000
  H   H2623     1.0  0.52343  0.99273  0.35026  1.0000
  H   H2624     1.0  0.55296  0.37522  0.06385  1.0000
  H   H2625     1.0  0.53059  0.09765  0.99804  1.0000
  H   H2626     1.0  0.50891  0.32324  0.00120  1.0000
  H   H2627     1.0  0.53948  0.31498  0.00570  1.0000
  H   H2628     1.0  0.56613  0.04861  0.38552  1.0000
  H   H2629     1.0  0.55942  0.98550  0.17901  1.0000
  C   C1520     1.0  0.39548  0.03623  0.09948  1.0000
  S   S454      1.0  0.55860  0.03606  0.25728  1.0000
  H   H2630     1.0  0.39851  0.36489  0.03268  1.0000
  C   C1521     1.0  0.48449  0.18283  0.00342  1.0000
  H   H2631     1.0  0.55717  0.25670  0.06900  1.0000
  Fe  Fe228     1.0  0.55324  0.02812  0.11262  1.0000
  H   H2632     1.0  0.56834  0.15119  0.01492  1.0000
  C   C1522     1.0  0.56459  0.35775  0.04542  1.0000
  C   C1523     1.0  0.43439  0.03615  0.38935  1.0000
  H   H2633     1.0  0.45537  0.00449  0.17486  1.0000
  H   H2634     1.0  0.46672  0.15746  0.03642  1.0000
  C   C1524     1.0  0.57041  0.98668  0.07965  1.0000
  H   H2635     1.0  0.43294  0.06388  0.26207  1.0000
  C   C1525     1.0  0.57703  0.37892  0.05093  1.0000
  C   C1526     1.0  0.56858  0.26424  0.01536  1.0000
  C   C1527     1.0  0.55562  0.36434  0.06765  1.0000
  C   C1528     1.0  0.40929  0.14883  0.98392  1.0000
  H   H2636     1.0  0.46231  0.04888  0.37325  1.0000
  H   H2637     1.0  0.39151  0.98960  0.31437  1.0000
  C   C1529     1.0  0.46421  0.07489  0.07223  1.0000
  H   H2638     1.0  0.41800  0.00032  0.20052  1.0000
  H   H2639     1.0  0.55188  0.01370  0.42036  1.0000
  S   S455      1.0  0.53799  0.00434  0.16196  1.0000
  H   H2640     1.0  0.56645  0.04531  0.00735  1.0000
  C   C1530     1.0  0.41150  0.99495  0.17689  1.0000
  H   H2641     1.0  0.44389  0.00996  0.39228  1.0000
  H   H2642     1.0  0.44408  0.99523  0.16341  1.0000
  H   H2643     1.0  0.52131  0.15873  0.99417  1.0000
  H   H2644     1.0  0.47813  0.22479  0.99963  1.0000
  C   C1531     1.0  0.49393  0.22090  0.00956  1.0000
  H   H2645     1.0  0.43570  0.01457  0.37905  1.0000
  H   H2646     1.0  0.55713  0.03763  0.37349  1.0000
  C   C1532     1.0  0.55529  0.05651  0.08631  1.0000
  H   H2647     1.0  0.58462  0.21371  0.07944  1.0000
  H   H2648     1.0  0.42053  0.02262  0.39733  1.0000
  C   C1533     1.0  0.57420  0.02148  0.37185  1.0000
  C   C1534     1.0  0.53905  0.00801  0.18592  1.0000
  H   H2649     1.0  0.52677  0.06224  0.10788  1.0000
  H   H2650     1.0  0.40472  0.22392  1.00000  1.0000
  H   H2651     1.0  0.48359  0.29217  0.02580  1.0000
  H   H2652     1.0  0.48561  0.01717  0.18794  1.0000
  H   H2653     1.0  0.56037  0.29794  0.02607  1.0000
  C   C1535     1.0  0.48321  0.05690  0.16940  1.0000
  H   H2654     1.0  0.49879  0.01799  0.17352  1.0000
  C   C1536     1.0  0.56822  0.14931  0.04390  1.0000
  C   C1537     1.0  0.55336  0.28056  0.02729  1.0000
  C   C1538     1.0  0.49402  0.05517  0.17695  1.0000
  C   C1539     1.0  0.55769  0.17293  0.04024  1.0000
  N   N104      1.0  0.40058  0.19728  0.00889  1.0000
  H   H2655     1.0  0.51627  0.17897  0.02452  1.0000
  H   H2656     1.0  0.51461  0.24280  0.02855  1.0000
  C   C1540     1.0  0.47652  0.15995  0.03161  1.0000
  C   C1541     1.0  0.51370  0.17386  0.01820  1.0000
  S   S456      1.0  0.46607  0.01294  0.21628  1.0000
  H   H2657     1.0  0.47304  0.23706  0.03317  1.0000
  H   H2658     1.0  0.47564  0.24629  0.04326  1.0000
  Fe  Fe229     1.0  0.55727  0.20871  0.03217  1.0000
  C   C1542     1.0  0.51121  0.03893  0.16471  1.0000
  Fe  Fe230     1.0  0.55947  0.22159  0.00305  1.0000
  C   C1543     1.0  0.47664  0.17321  0.03457  1.0000
  C   C1544     1.0  0.43740  0.00777  0.26184  1.0000
  H   H2659     1.0  0.49385  0.19452  0.00961  1.0000
  H   H2660     1.0  0.48954  0.23682  0.03297  1.0000
  H   H2661     1.0  0.48054  0.20330  0.04677  1.0000
  H   H2662     1.0  0.43682  0.02329  0.14891  1.0000
  H   H2663     1.0  0.55074  0.15785  0.03586  1.0000
  H   H2664     1.0  0.54928  0.99062  0.06547  1.0000
  H   H2665     1.0  0.47263  0.20430  0.03386  1.0000
  H   H2666     1.0  0.38888  0.99832  0.20905  1.0000
  Fe  Fe231     1.0  0.54492  0.03064  0.24808  1.0000
  Fe  Fe232     1.0  0.46153  0.00726  0.19977  1.0000
  S   S457      1.0  0.55562  0.04932  0.10331  1.0000
  H   H2667     1.0  0.48672  0.05249  0.16052  1.0000
  C   C1545     1.0  0.57317  0.23976  0.04486  1.0000
  H   H2668     1.0  0.58251  0.36147  0.06573  1.0000
  H   H2669     1.0  0.58379  0.13067  0.01052  1.0000
  H   H2670     1.0  0.44099  0.99074  0.30909  1.0000
  H   H2671     1.0  0.51177  0.07417  0.10913  1.0000
  C   C1546     1.0  0.54677  0.04977  0.29664  1.0000
  S   S458      1.0  0.44195  0.00311  0.21162  1.0000
  H   H2672     1.0  0.51809  0.14802  0.98596  1.0000
  C   C1547     1.0  0.56626  0.99839  0.40212  1.0000
  H   H2673     1.0  0.54330  0.21663  0.99164  1.0000
  C   C1548     1.0  0.56682  0.03331  0.37568  1.0000
  H   H2674     1.0  0.53435  0.99968  0.19042  1.0000
  C   C1549     1.0  0.45604  0.03480  0.25974  1.0000
  C   C1550     1.0  0.41396  0.19778  0.01020  1.0000
  H   H2675     1.0  0.47469  0.05284  0.17619  1.0000
  H   H2676     1.0  0.52292  0.04619  0.14518  1.0000
  S   S459      1.0  0.52328  0.02118  0.22989  1.0000
  H   H2677     1.0  0.40212  0.15854  0.98303  1.0000
  H   H2678     1.0  0.58097  0.07051  0.32597  1.0000
  H   H2679     1.0  0.54082  0.25950  0.06658  1.0000
  C   C1551     1.0  0.49014  0.18747  0.03593  1.0000
  Fe  Fe233     1.0  0.46833  0.33158  0.99444  1.0000
  C   C1552     1.0  0.44866  0.18417  0.99399  1.0000
  H   H2680     1.0  0.55693  0.05915  0.01470  1.0000
  H   H2681     1.0  0.49950  0.98656  0.12208  1.0000
  S   S460      1.0  0.51304  0.21650  0.02300  1.0000
  S   S461      1.0  0.42711  0.00160  0.33032  1.0000
  S   S462      1.0  0.56829  0.10788  0.02447  1.0000
  C   C1553     1.0  0.39697  0.04258  0.11012  1.0000
  S   S463      1.0  0.57005  0.13279  0.04273  1.0000
  H   H2682     1.0  0.51240  0.05930  0.15299  1.0000
  H   H2683     1.0  0.48427  0.28509  0.04280  1.0000
  N   N105      1.0  0.55317  0.07753  0.99121  1.0000
  Fe  Fe234     1.0  0.56590  0.99844  0.11715  1.0000
  H   H2684     1.0  0.55625  0.06120  0.26304  1.0000
  H   H2685     1.0  0.49838  0.28045  0.03006  1.0000
  H   H2686     1.0  0.40446  0.29768  0.99084  1.0000
  C   C1554     1.0  0.54287  0.35919  0.07059  1.0000
  S   S464      1.0  0.46485  0.35302  0.99454  1.0000
  S   S465      1.0  0.56795  0.22448  0.01866  1.0000
  Fe  Fe235     1.0  0.44922  0.99730  0.32653  1.0000
  H   H2687     1.0  0.55278  0.05922  0.35068  1.0000
  H   H2688     1.0  0.47082  0.01627  0.26155  1.0000
  H   H2689     1.0  0.55802  0.36334  0.07743  1.0000
  H   H2690     1.0  0.56558  0.03989  0.33828  1.0000
  H   H2691     1.0  0.52020  0.32053  0.01982  1.0000
  H   H2692     1.0  0.47959  0.06768  0.16544  1.0000
  C   C1555     1.0  0.39899  0.39699  0.00978  1.0000
  H   H2693     1.0  0.41246  0.17989  0.98291  1.0000
  N   N106      1.0  0.47376  0.06175  0.05333  1.0000
  H   H2694     1.0  0.44957  0.20381  0.99435  1.0000
  C   C1556     1.0  0.57313  0.06535  0.30781  1.0000
  H   H2695     1.0  0.42622  0.04617  0.36180  1.0000
  H   H2696     1.0  0.46301  0.08243  0.05173  1.0000
  S   S466      1.0  0.55616  0.02006  0.33159  1.0000
  H   H2697     1.0  0.46296  0.99184  0.13654  1.0000
  H   H2698     1.0  0.54813  0.23607  0.07261  1.0000
  H   H2699     1.0  0.56805  0.23237  0.07887  1.0000
  H   H2700     1.0  0.54960  0.08348  0.00998  1.0000
  H   H2701     1.0  0.49013  0.05578  0.06318  1.0000
  H   H2702     1.0  0.49475  0.03800  0.04982  1.0000
  C   C1557     1.0  0.43768  0.01009  0.28376  1.0000
  H   H2703     1.0  0.45377  0.06662  0.05072  1.0000
  C   C1558     1.0  0.55940  0.21127  0.07188  1.0000
  H   H2704     1.0  0.50730  0.30657  0.00688  1.0000
  C   C1559     1.0  0.47026  0.07502  0.05729  1.0000
  N   N107      1.0  0.58204  0.04937  0.32833  1.0000
  H   H2705     1.0  0.45163  0.99556  0.27342  1.0000
  H   H2706     1.0  0.53651  0.29344  0.01134  1.0000
  C   C1560     1.0  0.55140  0.25540  0.06255  1.0000
  Fe  Fe236     1.0  0.55685  0.11877  0.00857  1.0000
  H   H2707     1.0  0.52295  0.33621  0.99651  1.0000
  C   C1561     1.0  0.43585  0.05441  0.28659  1.0000
  C   C1562     1.0  0.45648  0.07012  0.26168  1.0000
  H   H2708     1.0  0.55572  0.03808  0.17017  1.0000
  C   C1563     1.0  0.43761  0.05409  0.25939  1.0000
  H   H2709     1.0  0.45992  0.08528  0.07349  1.0000
  H   H2710     1.0  0.46540  0.07211  0.02875  1.0000
  H   H2711     1.0  0.44146  0.04688  0.24085  1.0000
  H   H2712     1.0  0.50606  0.03538  0.20608  1.0000
  C   C1564     1.0  0.48582  0.18897  0.01423  1.0000
  H   H2713     1.0  0.47187  0.07058  0.07826  1.0000
  C   C1565     1.0  0.48186  0.05178  0.06271  1.0000
  N   N108      1.0  0.57663  0.99826  0.42142  1.0000
  H   H2714     1.0  0.55304  0.16565  0.99547  1.0000
  C   C1566     1.0  0.44728  0.04469  0.27944  1.0000
  H   H2715     1.0  0.41278  0.00371  0.17951  1.0000
  C   C1567     1.0  0.56268  0.28858  0.02303  1.0000
  C   C1568     1.0  0.38820  0.05775  0.13303  1.0000
  C   C1569     1.0  0.49761  0.03083  0.18688  1.0000
  N   N109      1.0  0.52721  0.30870  0.99668  1.0000
  C   C1570     1.0  0.48194  0.06365  0.03923  1.0000
  N   N110      1.0  0.50401  0.04212  0.17813  1.0000
  H   H2716     1.0  0.55982  0.17415  0.01180  1.0000
  C   C1571     1.0  0.55815  0.15982  0.03961  1.0000
  C   C1572     1.0  0.39070  0.21043  0.00884  1.0000
  H   H2717     1.0  0.39491  0.03462  0.18166  1.0000
  S   S467      1.0  0.56810  0.01301  0.36361  1.0000
  H   H2718     1.0  0.46281  0.05779  0.24743  1.0000
  C   C1573     1.0  0.54237  0.01224  0.17196  1.0000
  H   H2719     1.0  0.47550  0.17874  0.00655  1.0000
  N   N111      1.0  0.50420  0.04800  0.29095  1.0000
  C   C1574     1.0  0.51263  0.05765  0.28209  1.0000
  C   C1575     1.0  0.49499  0.05457  0.30192  1.0000
  C   C1576     1.0  0.49639  0.04544  0.28255  1.0000
  C   C1577     1.0  0.51333  0.03536  0.29634  1.0000
  C   C1578     1.0  0.52068  0.05441  0.26852  1.0000
  C   C1579     1.0  0.50170  0.05787  0.31120  1.0000
  C   C1580     1.0  0.48351  0.04061  0.28989  1.0000
  C   C1581     1.0  0.50696  0.02427  0.30644  1.0000
  H   H2720     1.0  0.50643  0.06789  0.27978  1.0000
  H   H2721     1.0  0.51998  0.05840  0.28721  1.0000
  H   H2722     1.0  0.48797  0.04843  0.30853  1.0000
  H   H2723     1.0  0.48859  0.06400  0.29755  1.0000
  H   H2724     1.0  0.49327  0.05471  0.27518  1.0000
  H   H2725     1.0  0.50267  0.03809  0.27648  1.0000
  H   H2726     1.0  0.51990  0.03068  0.28806  1.0000
  H   H2727     1.0  0.52038  0.03743  0.30092  1.0000
  H   H2728     1.0  0.52732  0.04445  0.26970  1.0000
  H   H2729     1.0  0.51429  0.05527  0.26167  1.0000
  H   H2730     1.0  0.52707  0.06169  0.26343  1.0000
  H   H2731     1.0  0.50717  0.04873  0.31693  1.0000
  H   H2732     1.0  0.50835  0.06480  0.30580  1.0000
  H   H2733     1.0  0.49398  0.06288  0.31863  1.0000
  H   H2734     1.0  0.47997  0.03745  0.28272  1.0000
  H   H2735     1.0  0.47560  0.04879  0.29351  1.0000
  H   H2736     1.0  0.48472  0.03200  0.29835  1.0000
  H   H2737     1.0  0.50458  0.01792  0.30124  1.0000
  H   H2738     1.0  0.49811  0.02801  0.31370  1.0000
  H   H2739     1.0  0.51404  0.01789  0.31269  1.0000
  H   H2740     1.0  0.51860  0.08864  0.99903  1.0000
  C   C1582     1.0  0.44478  0.01515  0.38156  1.0000
  C   C1583     1.0  0.41223  0.18094  0.99301  1.0000
  H   H2741     1.0  0.57550  0.03080  0.42324  1.0000
  H   H2742     1.0  0.45262  0.29231  0.98357  1.0000
  C   C1584     1.0  0.46094  0.04234  0.38340  1.0000
  C   C1585     1.0  0.46865  0.98581  0.18055  1.0000
  C   C1586     1.0  0.56989  0.04774  0.33925  1.0000
  H   H2743     1.0  0.57635  0.21272  0.05575  1.0000
  H   H2744     1.0  0.57028  0.06480  0.29879  1.0000
  C   C1587     1.0  0.47346  0.98751  0.13242  1.0000
  Fe  Fe237     1.0  0.43372  0.24575  0.98917  1.0000
  C   C1588     1.0  0.58668  0.01588  0.37500  1.0000
  H   H2745     1.0  0.56987  0.38459  0.05815  1.0000
  H   H2746     1.0  0.56670  0.18592  0.99853  1.0000
  H   H2747     1.0  0.43144  0.02861  0.36157  1.0000
  H   H2748     1.0  0.56689  0.24059  0.03788  1.0000
  H   H2749     1.0  0.49859  0.99980  0.20284  1.0000
  C   C1589     1.0  0.57194  0.03950  0.38252  1.0000
  H   H2750     1.0  0.56082  0.99254  0.29302  1.0000
  H   H2751     1.0  0.39497  0.00811  0.21591  1.0000
  H   H2752     1.0  0.51311  0.98930  0.20792  1.0000
  H   H2753     1.0  0.52260  0.03451  0.18427  1.0000
  C   C1590     1.0  0.57550  0.15186  0.00509  1.0000
  H   H2754     1.0  0.48417  0.12916  0.00127  1.0000
  H   H2755     1.0  0.57073  0.14967  0.99820  1.0000
  H   H2756     1.0  0.51352  0.99739  0.24110  1.0000
  C   C1591     1.0  0.58440  0.03388  0.38571  1.0000
  C   C1592     1.0  0.57905  0.36374  0.05627  1.0000
  N   N112      1.0  0.48681  0.26541  0.02056  1.0000
  C   C1593     1.0  0.48423  0.27657  0.00865  1.0000
  C   C1594     1.0  0.48149  0.27133  0.03278  1.0000
  C   C1595     1.0  0.47913  0.25527  0.02152  1.0000
  C   C1596     1.0  0.50148  0.25945  0.01839  1.0000
  C   C1597     1.0  0.48745  0.27257  0.99512  1.0000
  C   C1598     1.0  0.48744  0.28288  0.03267  1.0000
  C   C1599     1.0  0.47951  0.24332  0.03353  1.0000
  C   C1600     1.0  0.50712  0.25179  0.03091  1.0000
  H   H2757     1.0  0.47369  0.28190  0.01038  1.0000
  H   H2758     1.0  0.49002  0.28419  0.00707  1.0000
  H   H2759     1.0  0.48273  0.26386  0.04211  1.0000
  H   H2760     1.0  0.47059  0.27508  0.03424  1.0000
  H   H2761     1.0  0.46850  0.26016  0.02172  1.0000
  H   H2762     1.0  0.48278  0.25080  0.01258  1.0000
  H   H2763     1.0  0.50433  0.25259  0.01146  1.0000
  H   H2764     1.0  0.50713  0.26740  0.01332  1.0000
  H   H2765     1.0  0.57088  0.25491  0.01229  1.0000
  H   H2766     1.0  0.50173  0.05340  0.20085  1.0000
  H   H2767     1.0  0.43836  0.04016  0.34820  1.0000
  C   C1601     1.0  0.53694  0.31675  0.99586  1.0000
  C   C1602     1.0  0.45208  0.98883  0.16799  1.0000
  C   C1603     1.0  0.55315  0.24064  0.06242  1.0000
  Fe  Fe238     1.0  0.58640  0.33913  0.01817  1.0000
  C   C1604     1.0  0.57470  0.23298  0.06874  1.0000
  C   C1605     1.0  0.55005  0.05862  0.28447  1.0000
  H   H2768     1.0  0.52748  0.04959  0.15840  1.0000
  H   H2769     1.0  0.38778  0.23180  0.00060  1.0000
  C   C1606     1.0  0.38797  0.02098  0.39623  1.0000
  H   H2770     1.0  0.55301  0.37909  0.04346  1.0000
  H   H2771     1.0  0.58180  0.05996  0.35035  1.0000
  C   C1607     1.0  0.45842  0.99408  0.17449  1.0000
  H   H2772     1.0  0.52821  0.09450  0.98310  1.0000
  H   H2773     1.0  0.41985  0.21296  0.01592  1.0000
  C   C1608     1.0  0.53875  0.07685  0.99559  1.0000
  H   H2774     1.0  0.46531  0.00350  0.37794  1.0000
  H   H2775     1.0  0.56919  0.99456  0.39282  1.0000
  H   H2776     1.0  0.54001  0.35936  0.06135  1.0000
  H   H2777     1.0  0.54721  0.24035  0.05552  1.0000
  C   C1609     1.0  0.56319  0.00058  0.27178  1.0000
  H   H2778     1.0  0.53817  0.12134  0.99159  1.0000
  H   H2779     1.0  0.58041  0.07179  0.30429  1.0000
  H   H2780     1.0  0.39627  0.22236  0.98828  1.0000
  H   H2781     1.0  0.44626  0.04769  0.36483  1.0000
  H   H2782     1.0  0.58105  0.02125  0.33630  1.0000
  H   H2783     1.0  0.58482  0.32418  0.06500  1.0000
  H   H2784     1.0  0.53621  0.07215  0.00642  1.0000
  H   H2785     1.0  0.39795  0.06043  0.08632  1.0000
  H   H2786     1.0  0.41038  0.14586  0.99444  1.0000
  Fe  Fe239     1.0  0.46114  0.24505  0.99134  1.0000
  Fe  Fe240     1.0  0.58009  0.31543  0.01216  1.0000
  C   C1610     1.0  0.39547  0.06219  0.11848  1.0000
  H   H2787     1.0  0.56549  0.02011  0.43487  1.0000
  H   H2788     1.0  0.40463  0.20943  0.02642  1.0000
  C   C1611     1.0  0.56649  0.21911  0.05863  1.0000
  H   H2789     1.0  0.56386  0.00936  0.39896  1.0000
  H   H2790     1.0  0.43262  0.28804  0.99227  1.0000
  H   H2791     1.0  0.57789  0.08217  0.99249  1.0000
  C   C1612     1.0  0.55106  0.00571  0.42949  1.0000
  C   C1613     1.0  0.57802  0.27214  0.01133  1.0000
  S   S468      1.0  0.56613  0.12096  0.98654  1.0000
  H   H2792     1.0  0.40718  0.30067  0.00541  1.0000
  H   H2793     1.0  0.39581  0.98813  0.19242  1.0000
  C   C1614     1.0  0.57099  0.34325  0.06584  1.0000
  C   C1615     1.0  0.39257  0.18790  0.03432  1.0000
  H   H2794     1.0  0.51776  0.99456  0.18356  1.0000
  H   H2795     1.0  0.54846  0.36918  0.03541  1.0000
  H   H2796     1.0  0.58660  0.38177  0.04927  1.0000
  C   C1616     1.0  0.55699  0.37101  0.03799  1.0000
  C   C1617     1.0  0.38883  0.03904  0.37669  1.0000
  C   C1618     1.0  0.57762  0.01267  0.41684  1.0000
  C   C1619     1.0  0.41099  0.99385  0.20663  1.0000
  H   H2797     1.0  0.41034  0.32274  0.99010  1.0000
  H   H2798     1.0  0.44939  0.18651  0.98331  1.0000
  H   H2799     1.0  0.39703  0.02527  0.10327  1.0000
  H   H2800     1.0  0.49757  0.26642  0.99281  1.0000
  H   H2801     1.0  0.57078  0.01864  0.41027  1.0000
  H   H2802     1.0  0.45371  0.99723  0.37372  1.0000
  H   H2803     1.0  0.53656  0.07046  0.99021  1.0000
  H   H2804     1.0  0.55280  0.00605  0.27209  1.0000
  N   N113      1.0  0.56721  0.23292  0.05877  1.0000
  H   H2805     1.0  0.57432  0.38218  0.04110  1.0000
  C   C1620     1.0  0.42553  0.29767  0.99016  1.0000
  S   S469      1.0  0.46295  0.98907  0.10027  1.0000
  H   H2806     1.0  0.56537  0.99652  0.44180  1.0000
  H   H2807     1.0  0.55153  0.06062  0.33387  1.0000
  C   C1621     1.0  0.57761  0.15193  0.04897  1.0000
  C   C1622     1.0  0.55839  0.06005  0.34014  1.0000
  H   H2808     1.0  0.56305  0.33796  0.06714  1.0000
  C   C1623     1.0  0.52864  0.09028  0.99375  1.0000
  H   H2809     1.0  0.43045  0.22277  0.98451  1.0000
  C   C1624     1.0  0.39768  0.07876  0.09063  1.0000
  H   H2810     1.0  0.45919  0.01160  0.36291  1.0000
  H   H2811     1.0  0.40197  0.18648  0.03735  1.0000
  H   H2812     1.0  0.39315  0.07323  0.11656  1.0000
  H   H2813     1.0  0.57243  0.04472  0.31537  1.0000
  H   H2814     1.0  0.51267  0.99211  0.16106  1.0000
  H   H2815     1.0  0.54790  0.27675  0.99836  1.0000
  H   H2816     1.0  0.58538  0.14386  0.05236  1.0000
  N   N114      1.0  0.57850  0.16558  0.00007  1.0000
  C   C1625     1.0  0.54747  0.21310  0.98254  1.0000
  C   C1626     1.0  0.58650  0.16706  0.00893  1.0000
  H   H2817     1.0  0.56300  0.98579  0.43318  1.0000
  H   H2818     1.0  0.54651  0.31349  0.98912  1.0000
  H   H2819     1.0  0.56865  0.00777  0.27218  1.0000
  C   C1627     1.0  0.50515  0.98976  0.20302  1.0000
  H   H2820     1.0  0.50252  0.99171  0.18347  1.0000
  H   H2821     1.0  0.58309  0.16192  0.01947  1.0000
  C   C1628     1.0  0.51087  0.98776  0.18860  1.0000
  H   H2822     1.0  0.55291  0.29190  0.98938  1.0000
  H   H2823     1.0  0.57172  0.25606  0.98633  1.0000
  H   H2824     1.0  0.57490  0.98707  0.16794  1.0000
  C   C1629     1.0  0.39441  0.36416  0.04354  1.0000
  C   C1630     1.0  0.58626  0.16660  0.98584  1.0000
  H   H2825     1.0  0.39219  0.35422  0.04837  1.0000
  H   H2826     1.0  0.43183  0.98622  0.18817  1.0000
  H   H2827     1.0  0.53465  0.15068  0.98302  1.0000
  H   H2828     1.0  0.58446  0.16673  0.05364  1.0000
  H   H2829     1.0  0.58487  0.00694  0.47759  1.0000
  C   C1631     1.0  0.51664  0.98684  0.24153  1.0000
  S   S470      1.0  0.53575  0.98656  0.25406  1.0000
  C   C1632     1.0  0.52380  0.98435  0.34642  1.0000
  H   H2830     1.0  0.50141  0.98643  0.23233  1.0000
  C   C1633     1.0  0.58615  0.18130  0.00973  1.0000
  C   C1634     1.0  0.40664  0.98465  0.18939  1.0000
  H   H2831     1.0  0.56959  0.98567  0.35690  1.0000
  H   H2832     1.0  0.40068  0.02864  0.61913  1.0000
  H   H2833     1.0  0.51762  0.09558  0.83456  1.0000
  H   H2834     1.0  0.48030  0.05049  0.74939  1.0000
  H   H2835     1.0  0.39850  0.16865  0.94681  1.0000
  S   S471      1.0  0.47231  0.05561  0.59709  1.0000
  H   H2836     1.0  0.49992  0.07165  0.88091  1.0000
  H   H2837     1.0  0.49371  0.08933  0.84473  1.0000
  H   H2838     1.0  0.41729  0.15400  0.93586  1.0000
  C   C1635     1.0  0.41519  0.16704  0.95557  1.0000
  Fe  Fe241     1.0  0.57165  0.01992  0.60734  1.0000
  S   S472      1.0  0.56619  0.00119  0.62108  1.0000
  H   H2839     1.0  0.48787  0.34807  0.97274  1.0000
  Fe  Fe242     1.0  0.54300  0.03505  0.60972  1.0000
  S   S473      1.0  0.53521  0.01774  0.62331  1.0000
  S   S474      1.0  0.52958  0.05449  0.60275  1.0000
  Fe  Fe243     1.0  0.55153  0.01477  0.63377  1.0000
  S   S475      1.0  0.54450  0.00939  0.65628  1.0000
  Fe  Fe244     1.0  0.55043  0.00582  0.60958  1.0000
  H   H2840     1.0  0.38844  0.27668  0.90266  1.0000
  S   S476      1.0  0.55831  0.03323  0.62107  1.0000
  S   S477      1.0  0.55687  0.02350  0.59499  1.0000
  H   H2841     1.0  0.44118  0.99706  0.67557  1.0000
  H   H2842     1.0  0.40419  0.07992  0.87586  1.0000
  Fe  Fe245     1.0  0.51807  0.05694  0.72183  1.0000
  S   S478      1.0  0.53884  0.05882  0.71871  1.0000
  S   S479      1.0  0.50358  0.07487  0.71378  1.0000
  Fe  Fe246     1.0  0.52358  0.02851  0.73772  1.0000
  S   S480      1.0  0.54478  0.02830  0.73631  1.0000
  S   S481      1.0  0.51555  0.01046  0.74944  1.0000
  Fe  Fe247     1.0  0.53671  0.04885  0.74049  1.0000
  S   S482      1.0  0.53999  0.05949  0.75436  1.0000
  Fe  Fe248     1.0  0.54463  0.03822  0.71471  1.0000
  S   S483      1.0  0.56031  0.03250  0.69685  1.0000
  S   S484      1.0  0.51552  0.04811  0.74373  1.0000
  S   S485      1.0  0.52395  0.03724  0.71602  1.0000
  N   N115      1.0  0.43060  0.98834  0.78178  1.0000
  C   C1636     1.0  0.40592  0.30226  0.89326  1.0000
  C   C1637     1.0  0.41314  0.99641  0.82812  1.0000
  C   C1638     1.0  0.46449  0.06168  0.73154  1.0000
  H   H2843     1.0  0.40314  0.27891  0.88971  1.0000
  C   C1639     1.0  0.39652  0.38439  0.95664  1.0000
  H   H2844     1.0  0.47260  0.06593  0.76672  1.0000
  C   C1640     1.0  0.45965  0.98740  0.64082  1.0000
  H   H2845     1.0  0.46136  0.30385  0.97154  1.0000
  H   H2846     1.0  0.43969  0.07489  0.76389  1.0000
  H   H2847     1.0  0.51834  0.30066  0.97162  1.0000
  Fe  Fe249     1.0  0.53422  0.03908  0.84667  1.0000
  S   S486      1.0  0.54373  0.05362  0.82986  1.0000
  S   S487      1.0  0.51217  0.04276  0.85201  1.0000
  Fe  Fe250     1.0  0.56039  0.02180  0.85200  1.0000
  S   S488      1.0  0.57212  0.03536  0.83607  1.0000
  S   S489      1.0  0.57001  0.00108  0.86144  1.0000
  Fe  Fe251     1.0  0.55641  0.05196  0.84407  1.0000
  S   S490      1.0  0.55831  0.07201  0.84577  1.0000
  Fe  Fe252     1.0  0.55834  0.03588  0.82352  1.0000
  S   S491      1.0  0.56488  0.02853  0.80435  1.0000
  S   S492      1.0  0.54597  0.03825  0.86121  1.0000
  S   S493      1.0  0.54748  0.02163  0.83906  1.0000
  H   H2848     1.0  0.46185  0.06491  0.65717  1.0000
  S   S494      1.0  0.45479  0.02431  0.83799  1.0000
  H   H2849     1.0  0.54044  0.14913  0.96185  1.0000
  C   C1641     1.0  0.41580  0.07347  0.53958  1.0000
  S   S495      1.0  0.46582  0.00890  0.81264  1.0000
  N   N116      1.0  0.51101  0.08012  0.86150  1.0000
  Fe  Fe253     1.0  0.47425  0.01474  0.82652  1.0000
  S   S496      1.0  0.49085  0.00187  0.83601  1.0000
  S   S497      1.0  0.47837  0.03358  0.81236  1.0000
  Fe  Fe254     1.0  0.45825  0.08949  0.89003  1.0000
  S   S498      1.0  0.47698  0.09222  0.89316  1.0000
  S   S499      1.0  0.45751  0.07067  0.88459  1.0000
  Fe  Fe255     1.0  0.44259  0.11596  0.89723  1.0000
  S   S500      1.0  0.45998  0.12098  0.90051  1.0000
  S   S501      1.0  0.42255  0.12976  0.89891  1.0000
  Fe  Fe256     1.0  0.47092  0.11325  0.88213  1.0000
  S   S502      1.0  0.48419  0.12460  0.86554  1.0000
  Fe  Fe257     1.0  0.46435  0.09966  0.91137  1.0000
  S   S503      1.0  0.47223  0.09502  0.92999  1.0000
  S   S504      1.0  0.45311  0.11009  0.87772  1.0000
  S   S505      1.0  0.44604  0.09503  0.90943  1.0000
  Fe  Fe258     1.0  0.53884  0.12241  0.92691  1.0000
  Fe  Fe259     1.0  0.53151  0.13483  0.90004  1.0000
  S   S506      1.0  0.55138  0.12650  0.88843  1.0000
  S   S507      1.0  0.51635  0.14919  0.88939  1.0000
  Fe  Fe260     1.0  0.54999  0.10767  0.90401  1.0000
  S   S508      1.0  0.52931  0.11557  0.91455  1.0000
  S   S509      1.0  0.53924  0.14238  0.91314  1.0000
  Fe  Fe261     1.0  0.42795  0.20295  0.93527  1.0000
  S   S510      1.0  0.41834  0.21478  0.91825  1.0000
  S   S511      1.0  0.41881  0.20025  0.95707  1.0000
  Fe  Fe262     1.0  0.45453  0.19539  0.91763  1.0000
  S   S512      1.0  0.44756  0.20640  0.89882  1.0000
  S   S513      1.0  0.47506  0.18427  0.91945  1.0000
  Fe  Fe263     1.0  0.43690  0.22264  0.91002  1.0000
  S   S514      1.0  0.43791  0.24391  0.89953  1.0000
  Fe  Fe264     1.0  0.42974  0.19756  0.90859  1.0000
  S   S515      1.0  0.42025  0.19002  0.89676  1.0000
  S   S516      1.0  0.44546  0.21230  0.92799  1.0000
  S   S517      1.0  0.43775  0.18510  0.92637  1.0000
  Fe  Fe265     1.0  0.52366  0.22574  0.91279  1.0000
  S   S518      1.0  0.50568  0.23020  0.90456  1.0000
  S   S519      1.0  0.50344  0.35682  0.91245  1.0000
  Fe  Fe266     1.0  0.43455  0.33247  0.92969  1.0000
  S   S520      1.0  0.43635  0.34348  0.90838  1.0000
  S   S521      1.0  0.43008  0.34421  0.94537  1.0000
  Fe  Fe267     1.0  0.43685  0.30566  0.92328  1.0000
  S   S522      1.0  0.43890  0.31463  0.90140  1.0000
  S   S523      1.0  0.43593  0.28442  0.93368  1.0000
  Fe  Fe268     1.0  0.45250  0.32555  0.90449  1.0000
  S   S524      1.0  0.47320  0.32597  0.89232  1.0000
  Fe  Fe269     1.0  0.42255  0.33154  0.90774  1.0000
  S   S525      1.0  0.40286  0.33868  0.90169  1.0000
  S   S526      1.0  0.45151  0.31524  0.92599  1.0000
  S   S527      1.0  0.41972  0.32173  0.92948  1.0000
  H   H2850     1.0  0.55755  0.12248  0.94342  1.0000
  H   H2851     1.0  0.57649  0.98566  0.52131  1.0000
  C   C1642     1.0  0.43007  0.29339  0.96728  1.0000
  H   H2852     1.0  0.40467  0.03438  0.67280  1.0000
  H   H2853     1.0  0.39572  0.01311  0.72211  1.0000
  H   H2854     1.0  0.55852  0.28372  0.96366  1.0000
  H   H2855     1.0  0.48324  0.34579  0.95326  1.0000
  C   C1643     1.0  0.41710  0.01035  0.78902  1.0000
  C   C1644     1.0  0.55021  0.08839  0.57097  1.0000
  H   H2856     1.0  0.43477  0.05947  0.76745  1.0000
  H   H2857     1.0  0.52432  0.12096  0.97684  1.0000
  H   H2858     1.0  0.45563  0.99611  0.63337  1.0000
  H   H2859     1.0  0.40015  0.30172  0.88636  1.0000
  H   H2860     1.0  0.38932  0.46754  0.94005  1.0000
  H   H2861     1.0  0.39278  0.36581  0.92303  1.0000
  H   H2862     1.0  0.51698  0.32499  0.95266  1.0000
  H   H2863     1.0  0.47693  0.99813  0.72910  1.0000
  H   H2864     1.0  0.51947  0.14486  0.96530  1.0000
  C   C1645     1.0  0.56682  0.98849  0.79663  1.0000
  C   C1646     1.0  0.39553  0.35580  0.90029  1.0000
  H   H2865     1.0  0.44173  0.99980  0.76430  1.0000
  H   H2866     1.0  0.57501  0.00118  0.80252  1.0000
  C   C1647     1.0  0.44390  0.34117  0.95216  1.0000
  C   C1648     1.0  0.45615  0.33404  0.94638  1.0000
  C   C1649     1.0  0.46635  0.32911  0.95336  1.0000
  C   C1650     1.0  0.46437  0.33168  0.96597  1.0000
  H   H2867     1.0  0.56976  0.33866  0.88146  1.0000
  C   C1651     1.0  0.44233  0.34464  0.96424  1.0000
  H   H2868     1.0  0.45773  0.33216  0.93663  1.0000
  H   H2869     1.0  0.47562  0.32314  0.94911  1.0000
  H   H2870     1.0  0.52635  0.98767  0.68465  1.0000
  H   H2871     1.0  0.58158  0.24802  0.97326  1.0000
  C   C1652     1.0  0.49524  0.34800  0.90692  1.0000
  C   C1653     1.0  0.48170  0.34858  0.91222  1.0000
  C   C1654     1.0  0.47487  0.34190  0.90774  1.0000
  C   C1655     1.0  0.48147  0.33486  0.89769  1.0000
  C   C1656     1.0  0.49499  0.33436  0.89231  1.0000
  C   C1657     1.0  0.50193  0.34071  0.89707  1.0000
  H   H2872     1.0  0.47644  0.35422  0.91981  1.0000
  H   H2873     1.0  0.46445  0.34236  0.91195  1.0000
  H   H2874     1.0  0.50012  0.32905  0.88443  1.0000
  H   H2875     1.0  0.51234  0.34030  0.89285  1.0000
  H   H2876     1.0  0.44605  0.07463  0.72601  1.0000
  C   C1658     1.0  0.43771  0.25484  0.90921  1.0000
  C   C1659     1.0  0.43283  0.25218  0.92304  1.0000
  C   C1660     1.0  0.43230  0.26136  0.93044  1.0000
  C   C1661     1.0  0.43671  0.27317  0.92408  1.0000
  C   C1662     1.0  0.44170  0.27576  0.91027  1.0000
  C   C1663     1.0  0.44212  0.26665  0.90285  1.0000
  H   H2877     1.0  0.42933  0.24314  0.92803  1.0000
  H   H2878     1.0  0.42844  0.25931  0.94114  1.0000
  H   H2879     1.0  0.44536  0.28471  0.90532  1.0000
  H   H2880     1.0  0.44595  0.26872  0.89215  1.0000
  C   C1664     1.0  0.48408  0.19663  0.91502  1.0000
  C   C1665     1.0  0.47973  0.20883  0.90676  1.0000
  C   C1666     1.0  0.48655  0.21901  0.90347  1.0000
  C   C1667     1.0  0.49765  0.21710  0.90859  1.0000
  C   C1668     1.0  0.50195  0.20494  0.91699  1.0000
  C   C1669     1.0  0.49521  0.19465  0.92016  1.0000
  H   H2881     1.0  0.47108  0.21049  0.90285  1.0000
  H   H2882     1.0  0.48310  0.22845  0.89708  1.0000
  H   H2883     1.0  0.51033  0.20353  0.92117  1.0000
  H   H2884     1.0  0.49844  0.18528  0.92672  1.0000
  C   C1670     1.0  0.42196  0.14628  0.89921  1.0000
  C   C1671     1.0  0.41320  0.15657  0.89270  1.0000
  C   C1672     1.0  0.41275  0.16986  0.89223  1.0000
  C   C1673     1.0  0.42076  0.17304  0.89859  1.0000
  C   C1674     1.0  0.42927  0.16276  0.90555  1.0000
  C   C1675     1.0  0.42997  0.14936  0.90573  1.0000
  H   H2885     1.0  0.40693  0.15428  0.88772  1.0000
  H   H2886     1.0  0.40614  0.17774  0.88686  1.0000
  H   H2887     1.0  0.43549  0.16513  0.91051  1.0000
  H   H2888     1.0  0.43663  0.14142  0.91094  1.0000
  C   C1676     1.0  0.49456  0.13008  0.87179  1.0000
  C   C1677     1.0  0.49615  0.12480  0.88494  1.0000
  C   C1678     1.0  0.50362  0.13009  0.89014  1.0000
  C   C1679     1.0  0.50901  0.14098  0.88238  1.0000
  C   C1680     1.0  0.50770  0.14599  0.86914  1.0000
  C   C1681     1.0  0.50067  0.14039  0.86378  1.0000
  H   H2889     1.0  0.49157  0.11670  0.89111  1.0000
  H   H2890     1.0  0.50483  0.12599  0.90028  1.0000
  H   H2891     1.0  0.51203  0.15429  0.86308  1.0000
  H   H2892     1.0  0.49961  0.14434  0.85355  1.0000
  C   C1682     1.0  0.45742  0.06499  0.84338  1.0000
  H   H2893     1.0  0.40182  0.00265  0.57674  1.0000
  H   H2894     1.0  0.49598  0.09566  0.86941  1.0000
  C   C1683     1.0  0.45798  0.06874  0.86846  1.0000
  C   C1684     1.0  0.45820  0.07936  0.85729  1.0000
  C   C1685     1.0  0.45786  0.07749  0.84484  1.0000
  C   C1686     1.0  0.51776  0.07585  0.84849  1.0000
  H   H2895     1.0  0.45848  0.08904  0.85827  1.0000
  H   H2896     1.0  0.45791  0.08578  0.83628  1.0000
  C   C1687     1.0  0.55648  0.07598  0.86128  1.0000
  C   C1688     1.0  0.55376  0.08942  0.86195  1.0000
  C   C1689     1.0  0.54249  0.12144  0.98115  1.0000
  C   C1690     1.0  0.55521  0.08302  0.88529  1.0000
  C   C1691     1.0  0.55767  0.06961  0.88468  1.0000
  C   C1692     1.0  0.55815  0.06609  0.87278  1.0000
  H   H2897     1.0  0.55235  0.09713  0.85312  1.0000
  H   H2898     1.0  0.55942  0.06186  0.89341  1.0000
  H   H2899     1.0  0.56025  0.05571  0.87240  1.0000
  C   C1693     1.0  0.50576  0.03039  0.84980  1.0000
  C   C1694     1.0  0.51344  0.01755  0.84928  1.0000
  C   C1695     1.0  0.50864  0.00845  0.84569  1.0000
  C   C1696     1.0  0.49619  0.01226  0.84253  1.0000
  C   C1697     1.0  0.48827  0.02483  0.84377  1.0000
  C   C1698     1.0  0.49297  0.03378  0.84758  1.0000
  H   H2900     1.0  0.52308  0.01465  0.85158  1.0000
  H   H2901     1.0  0.51468  0.99862  0.84508  1.0000
  H   H2902     1.0  0.47855  0.02779  0.84168  1.0000
  H   H2903     1.0  0.48680  0.04350  0.84845  1.0000
  H   H2904     1.0  0.44213  0.31408  0.96059  1.0000
  C   C1699     1.0  0.51701  0.99561  0.71815  1.0000
  H   H2905     1.0  0.58164  0.18879  0.98078  1.0000
  C   C1700     1.0  0.41972  0.21430  0.96168  1.0000
  C   C1701     1.0  0.41425  0.22702  0.95505  1.0000
  H   H2906     1.0  0.52713  0.17472  0.97265  1.0000
  H   H2907     1.0  0.45115  0.98615  0.64946  1.0000
  C   C1702     1.0  0.39666  0.44584  0.92718  1.0000
  H   H2908     1.0  0.41172  0.04828  0.51757  1.0000
  H   H2909     1.0  0.56376  0.31482  0.96812  1.0000
  C   C1703     1.0  0.44314  0.10663  0.96739  1.0000
  C   C1704     1.0  0.45656  0.10156  0.96736  1.0000
  C   C1705     1.0  0.46531  0.09756  0.95601  1.0000
  C   C1706     1.0  0.46083  0.09918  0.94441  1.0000
  C   C1707     1.0  0.44742  0.10432  0.94441  1.0000
  C   C1708     1.0  0.43855  0.10775  0.95598  1.0000
  H   H2910     1.0  0.49799  0.18393  0.95830  1.0000
  H   H2911     1.0  0.47556  0.09311  0.95628  1.0000
  H   H2912     1.0  0.44384  0.10543  0.93558  1.0000
  H   H2913     1.0  0.42813  0.11132  0.95606  1.0000
  C   C1709     1.0  0.56124  0.12206  0.96240  1.0000
  H   H2914     1.0  0.41397  0.36216  0.89345  1.0000
  H   H2915     1.0  0.46281  0.20196  0.95415  1.0000
  C   C1710     1.0  0.51752  0.08407  0.88156  1.0000
  H   H2916     1.0  0.52536  0.06646  0.85027  1.0000
  H   H2917     1.0  0.56245  0.08076  0.58518  1.0000
  H   H2918     1.0  0.38820  0.02410  0.61451  1.0000
  C   C1711     1.0  0.54661  0.05065  0.76837  1.0000
  C   C1712     1.0  0.55038  0.03676  0.77122  1.0000
  C   C1713     1.0  0.55592  0.03005  0.78237  1.0000
  C   C1714     1.0  0.55741  0.03718  0.79084  1.0000
  C   C1715     1.0  0.55344  0.05104  0.78810  1.0000
  C   C1716     1.0  0.54811  0.05776  0.77684  1.0000
  H   H2919     1.0  0.54930  0.03125  0.76468  1.0000
  H   H2920     1.0  0.55917  0.01935  0.78435  1.0000
  H   H2921     1.0  0.55483  0.05659  0.79446  1.0000
  H   H2922     1.0  0.54535  0.06852  0.77454  1.0000
  C   C1717     1.0  0.51592  0.99971  0.73965  1.0000
  C   C1718     1.0  0.40885  0.38913  0.92194  1.0000
  H   H2923     1.0  0.41013  0.01955  0.71202  1.0000
  C   C1719     1.0  0.39285  0.05963  0.52758  1.0000
  C   C1720     1.0  0.51531  0.00450  0.72620  1.0000
  C   C1721     1.0  0.41113  0.98456  0.82682  1.0000
  S   S528      1.0  0.42028  0.25078  0.97508  1.0000
  H   H2924     1.0  0.51347  0.01504  0.72201  1.0000
  Fe  Fe270     1.0  0.55905  0.13252  0.90280  1.0000
  H   H2925     1.0  0.48790  0.05966  0.87365  1.0000
  H   H2926     1.0  0.58162  0.04859  0.60132  1.0000
  H   H2927     1.0  0.54874  0.30291  0.91784  1.0000
  H   H2928     1.0  0.39604  0.16004  0.96419  1.0000
  H   H2929     1.0  0.50942  0.99513  0.68466  1.0000
  H   H2930     1.0  0.41972  0.31986  0.96059  1.0000
  C   C1722     1.0  0.42061  0.29680  0.88737  1.0000
  C   C1723     1.0  0.54472  0.28379  0.92029  1.0000
  C   C1724     1.0  0.50698  0.18799  0.95422  1.0000
  H   H2931     1.0  0.55385  0.36412  0.95616  1.0000
  H   H2932     1.0  0.39100  0.99146  0.71880  1.0000
  C   C1725     1.0  0.54911  0.01598  0.66726  1.0000
  C   C1726     1.0  0.54185  0.01482  0.68051  1.0000
  C   C1727     1.0  0.54504  0.02008  0.68955  1.0000
  C   C1728     1.0  0.55568  0.02637  0.68549  1.0000
  C   C1729     1.0  0.56307  0.02737  0.67226  1.0000
  C   C1730     1.0  0.55971  0.02233  0.66311  1.0000
  H   H2933     1.0  0.53370  0.00983  0.68384  1.0000
  H   H2934     1.0  0.53950  0.01889  0.69977  1.0000
  H   H2935     1.0  0.57140  0.03212  0.66908  1.0000
  H   H2936     1.0  0.56543  0.02321  0.65294  1.0000
  H   H2937     1.0  0.54945  0.09488  0.97528  1.0000
  C   C1731     1.0  0.40468  0.43905  0.91553  1.0000
  H   H2938     1.0  0.47014  0.04318  0.65155  1.0000
  H   H2939     1.0  0.39133  0.98519  0.69888  1.0000
  H   H2940     1.0  0.53017  0.99339  0.62657  1.0000
  C   C1732     1.0  0.42580  0.21280  0.97211  1.0000
  H   H2941     1.0  0.51815  0.17547  0.94049  1.0000
  H   H2942     1.0  0.39979  0.43960  0.93651  1.0000
  C   C1733     1.0  0.49496  0.07046  0.70475  1.0000
  C   C1734     1.0  0.49398  0.05726  0.70721  1.0000
  C   C1735     1.0  0.48726  0.05365  0.69984  1.0000
  C   C1736     1.0  0.48149  0.06322  0.69002  1.0000
  C   C1737     1.0  0.48238  0.07648  0.68759  1.0000
  C   C1738     1.0  0.48904  0.08013  0.69505  1.0000
  H   H2943     1.0  0.49806  0.04988  0.71505  1.0000
  H   H2944     1.0  0.48681  0.04340  0.70162  1.0000
  H   H2945     1.0  0.47793  0.08391  0.67996  1.0000
  H   H2946     1.0  0.48978  0.09038  0.69319  1.0000
  C   C1739     1.0  0.48856  0.05437  0.59836  1.0000
  C   C1740     1.0  0.49290  0.06620  0.59541  1.0000
  C   C1741     1.0  0.50547  0.06602  0.59678  1.0000
  C   C1742     1.0  0.51388  0.05400  0.60117  1.0000
  C   C1743     1.0  0.50958  0.04207  0.60424  1.0000
  C   C1744     1.0  0.49687  0.04227  0.60291  1.0000
  H   H2947     1.0  0.48649  0.07560  0.59203  1.0000
  H   H2948     1.0  0.50866  0.07527  0.59443  1.0000
  H   H2949     1.0  0.51596  0.03274  0.60771  1.0000
  H   H2950     1.0  0.49341  0.03315  0.60560  1.0000
  H   H2951     1.0  0.53211  0.24734  0.96041  1.0000
  H   H2952     1.0  0.42510  0.02663  0.55038  1.0000
  H   H2953     1.0  0.38968  0.06807  0.55189  1.0000
  H   H2954     1.0  0.42629  0.98525  0.75554  1.0000
  C   C1745     1.0  0.54606  0.99506  0.86517  1.0000
  H   H2955     1.0  0.41583  0.17400  0.96122  1.0000
  C   C1746     1.0  0.51157  0.37426  0.94830  1.0000
  H   H2956     1.0  0.54173  0.00510  0.86657  1.0000
  H   H2957     1.0  0.50145  0.00392  0.77573  1.0000
  N   N117      1.0  0.51155  0.99575  0.79218  1.0000
  H   H2958     1.0  0.40578  0.99268  0.50851  1.0000
  H   H2959     1.0  0.42999  0.14050  0.97750  1.0000
  H   H2960     1.0  0.52888  0.07033  0.86902  1.0000
  S   S529      1.0  0.42745  0.01361  0.82783  1.0000
  C   C1747     1.0  0.56398  0.34655  0.96798  1.0000
  N   N118      1.0  0.46426  0.16720  0.87377  1.0000
  C   C1748     1.0  0.45981  0.15425  0.88004  1.0000
  C   C1749     1.0  0.47432  0.16758  0.88095  1.0000
  C   C1750     1.0  0.47047  0.16727  0.85916  1.0000
  C   C1751     1.0  0.45229  0.17843  0.87534  1.0000
  C   C1752     1.0  0.45064  0.15102  0.87313  1.0000
  C   C1753     1.0  0.46936  0.16777  0.89593  1.0000
  C   C1754     1.0  0.48148  0.17512  0.85227  1.0000
  C   C1755     1.0  0.45473  0.19259  0.86981  1.0000
  H   H2961     1.0  0.46852  0.14573  0.88043  1.0000
  H   H2962     1.0  0.45439  0.15396  0.89055  1.0000
  H   H2963     1.0  0.47870  0.17645  0.87636  1.0000
  H   H2964     1.0  0.48275  0.15885  0.88010  1.0000
  H   H2965     1.0  0.47520  0.15694  0.85772  1.0000
  H   H2966     1.0  0.46275  0.17101  0.85312  1.0000
  H   H2967     1.0  0.44478  0.17789  0.87035  1.0000
  H   H2968     1.0  0.44731  0.17764  0.88605  1.0000
  H   H2969     1.0  0.44095  0.15817  0.87370  1.0000
  H   H2970     1.0  0.45527  0.15035  0.86261  1.0000
  H   H2971     1.0  0.44846  0.14112  0.87844  1.0000
  H   H2972     1.0  0.46203  0.17706  0.89758  1.0000
  H   H2973     1.0  0.46526  0.15903  0.90191  1.0000
  H   H2974     1.0  0.47789  0.16746  0.89997  1.0000
  H   H2975     1.0  0.47871  0.18545  0.85363  1.0000
  H   H2976     1.0  0.48391  0.17556  0.84136  1.0000
  H   H2977     1.0  0.49068  0.16995  0.85590  1.0000
  H   H2978     1.0  0.46209  0.19438  0.87416  1.0000
  H   H2979     1.0  0.44531  0.19981  0.87252  1.0000
  H   H2980     1.0  0.45770  0.19484  0.85877  1.0000
  N   N119      1.0  0.51899  0.05091  0.65927  1.0000
  C   C1756     1.0  0.52860  0.05198  0.66664  1.0000
  C   C1757     1.0  0.52699  0.04814  0.64589  1.0000
  C   C1758     1.0  0.51287  0.03924  0.66727  1.0000
  C   C1759     1.0  0.50862  0.06371  0.65812  1.0000
  C   C1760     1.0  0.52288  0.05357  0.68119  1.0000
  C   C1761     1.0  0.53445  0.05895  0.63690  1.0000
  C   C1762     1.0  0.50346  0.03546  0.66120  1.0000
  C   C1763     1.0  0.50077  0.06698  0.64707  1.0000
  H   H2981     1.0  0.53695  0.04313  0.66685  1.0000
  H   H2982     1.0  0.53318  0.06068  0.66143  1.0000
  H   H2983     1.0  0.52095  0.04657  0.63989  1.0000
  H   H2984     1.0  0.53445  0.03857  0.64732  1.0000
  H   H2985     1.0  0.52074  0.03017  0.66931  1.0000
  H   H2986     1.0  0.50692  0.04107  0.67719  1.0000
  H   H2987     1.0  0.50133  0.06389  0.66777  1.0000
  H   H2988     1.0  0.51316  0.07236  0.65635  1.0000
  H   H2989     1.0  0.53067  0.05528  0.68505  1.0000
  H   H2990     1.0  0.51447  0.06224  0.68196  1.0000
  H   H2991     1.0  0.51998  0.04441  0.68788  1.0000
  H   H2992     1.0  0.52820  0.06913  0.63639  1.0000
  H   H2993     1.0  0.54349  0.05830  0.64029  1.0000
  H   H2994     1.0  0.53775  0.05734  0.62655  1.0000
  H   H2995     1.0  0.49430  0.04329  0.66065  1.0000
  H   H2996     1.0  0.50028  0.02642  0.66799  1.0000
  H   H2997     1.0  0.50827  0.03281  0.65140  1.0000
  H   H2998     1.0  0.49011  0.07053  0.65136  1.0000
  H   H2999     1.0  0.50146  0.05863  0.64262  1.0000
  H   H3000     1.0  0.50378  0.07535  0.63894  1.0000
  N   N120      1.0  0.53113  0.19157  0.88126  1.0000
  C   C1764     1.0  0.53441  0.20199  0.88599  1.0000
  C   C1765     1.0  0.52193  0.18443  0.89261  1.0000
  C   C1766     1.0  0.52438  0.19777  0.86969  1.0000
  C   C1767     1.0  0.54385  0.18208  0.87668  1.0000
  C   C1768     1.0  0.54239  0.21143  0.87517  1.0000
  C   C1769     1.0  0.52735  0.17727  0.90527  1.0000
  C   C1770     1.0  0.51184  0.20887  0.87209  1.0000
  C   C1771     1.0  0.54237  0.16897  0.87448  1.0000
  H   H3001     1.0  0.52533  0.20816  0.89113  1.0000
  H   H3002     1.0  0.54045  0.19723  0.89366  1.0000
  H   H3003     1.0  0.51870  0.17706  0.88941  1.0000
  H   H3004     1.0  0.51266  0.19150  0.89590  1.0000
  H   H3005     1.0  0.53133  0.20193  0.86062  1.0000
  H   H3006     1.0  0.52133  0.19012  0.86676  1.0000
  H   H3007     1.0  0.54976  0.18699  0.86719  1.0000
  H   H3008     1.0  0.55019  0.17925  0.88405  1.0000
  H   H3009     1.0  0.54442  0.21837  0.87997  1.0000
  H   H3010     1.0  0.55216  0.20596  0.87048  1.0000
  H   H3011     1.0  0.49688  0.00551  0.57734  1.0000
  H   H3012     1.0  0.53706  0.17047  0.90305  1.0000
  H   H3013     1.0  0.52812  0.18446  0.91055  1.0000
  H   H3014     1.0  0.52037  0.17122  0.91226  1.0000
  H   H3015     1.0  0.50360  0.20497  0.87961  1.0000
  H   H3016     1.0  0.50833  0.21318  0.86263  1.0000
  H   H3017     1.0  0.51364  0.21720  0.87507  1.0000
  H   H3018     1.0  0.55070  0.16567  0.86642  1.0000
  H   H3019     1.0  0.53313  0.16972  0.87149  1.0000
  H   H3020     1.0  0.54340  0.16084  0.88350  1.0000
  H   H3021     1.0  0.58516  0.35565  0.90399  1.0000
  C   C1772     1.0  0.54547  0.27362  0.91410  1.0000
  H   H3022     1.0  0.48611  0.02563  0.75098  1.0000
  H   H3023     1.0  0.50812  0.10160  0.85603  1.0000
  C   C1773     1.0  0.41989  0.03771  0.56579  1.0000
  C   C1774     1.0  0.40170  0.98759  0.71884  1.0000
  H   H3024     1.0  0.40708  0.44658  0.90621  1.0000
  C   C1775     1.0  0.42156  0.14385  0.94104  1.0000
  H   H3025     1.0  0.40044  0.45496  0.92538  1.0000
  H   H3026     1.0  0.57530  0.37040  0.93845  1.0000
  H   H3027     1.0  0.47470  0.98669  0.61701  1.0000
  H   H3028     1.0  0.54571  0.09690  0.57598  1.0000
  H   H3029     1.0  0.39029  0.38838  0.91907  1.0000
  C   C1776     1.0  0.50365  0.06975  0.87069  1.0000
  H   H3030     1.0  0.46926  0.21014  0.93756  1.0000
  H   H3031     1.0  0.48189  0.24715  0.91571  1.0000
  C   C1777     1.0  0.50008  0.37048  0.94538  1.0000
  S   S530      1.0  0.47764  0.03056  0.77754  1.0000
  C   C1778     1.0  0.44942  0.02322  0.76414  1.0000
  H   H3032     1.0  0.43809  0.00324  0.78597  1.0000
  C   C1779     1.0  0.54216  0.15687  0.94088  1.0000
  C   C1780     1.0  0.55325  0.29739  0.89897  1.0000
  H   H3033     1.0  0.45946  0.00654  0.57154  1.0000
  H   H3034     1.0  0.40000  0.34642  0.94860  1.0000
  H   H3035     1.0  0.50913  0.37596  0.95856  1.0000
  H   H3036     1.0  0.51338  0.07631  0.88966  1.0000
  C   C1781     1.0  0.49135  0.06858  0.86689  1.0000
  C   C1782     1.0  0.52187  0.08024  0.86782  1.0000
  H   H3037     1.0  0.44668  0.98899  0.82224  1.0000
  N   N121      1.0  0.48918  0.12751  0.93828  1.0000
  C   C1783     1.0  0.49438  0.11339  0.93631  1.0000
  C   C1784     1.0  0.47605  0.13258  0.93423  1.0000
  C   C1785     1.0  0.48730  0.12720  0.95292  1.0000
  C   C1786     1.0  0.49931  0.13544  0.92975  1.0000
  C   C1787     1.0  0.50550  0.10471  0.94345  1.0000
  C   C1788     1.0  0.47650  0.13317  0.91954  1.0000
  C   C1789     1.0  0.47802  0.13933  0.95818  1.0000
  C   C1790     1.0  0.49565  0.15063  0.92853  1.0000
  H   H3038     1.0  0.48634  0.10787  0.93976  1.0000
  H   H3039     1.0  0.49813  0.11319  0.92552  1.0000
  H   H3040     1.0  0.47113  0.14268  0.93596  1.0000
  H   H3041     1.0  0.46902  0.12620  0.94059  1.0000
  H   H3042     1.0  0.48305  0.11851  0.95923  1.0000
  H   H3043     1.0  0.49701  0.12574  0.95548  1.0000
  H   H3044     1.0  0.50859  0.13178  0.93349  1.0000
  H   H3045     1.0  0.50253  0.13376  0.91941  1.0000
  H   H3046     1.0  0.50176  0.10179  0.95440  1.0000
  H   H3047     1.0  0.50959  0.09535  0.93975  1.0000
  H   H3048     1.0  0.51373  0.10968  0.94146  1.0000
  H   H3049     1.0  0.48276  0.13993  0.91254  1.0000
  H   H3050     1.0  0.47991  0.12316  0.91717  1.0000
  H   H3051     1.0  0.46633  0.13709  0.91776  1.0000
  H   H3052     1.0  0.46755  0.13946  0.95887  1.0000
  H   H3053     1.0  0.48029  0.14895  0.95225  1.0000
  H   H3054     1.0  0.47898  0.13846  0.96848  1.0000
  H   H3055     1.0  0.49878  0.15328  0.93631  1.0000
  H   H3056     1.0  0.48508  0.15513  0.92884  1.0000
  H   H3057     1.0  0.50082  0.15552  0.91857  1.0000
  H   H3058     1.0  0.44411  0.14314  0.95487  1.0000
  H   H3059     1.0  0.45368  0.16382  0.94904  1.0000
  C   C1791     1.0  0.41050  0.00755  0.59055  1.0000
  H   H3060     1.0  0.40271  0.06132  0.50622  1.0000
  C   C1792     1.0  0.55761  0.20494  0.95835  1.0000
  H   H3061     1.0  0.50828  0.24691  0.97976  1.0000
  H   H3062     1.0  0.49703  0.14840  0.97052  1.0000
  C   C1793     1.0  0.41703  0.31523  0.97144  1.0000
  C   C1794     1.0  0.44045  0.30886  0.97133  1.0000
  H   H3063     1.0  0.43962  0.31638  0.97704  1.0000
  H   H3064     1.0  0.41541  0.06614  0.89227  1.0000
  H   H3065     1.0  0.48891  0.98491  0.73605  1.0000
  H   H3066     1.0  0.56101  0.05077  0.59325  1.0000
  H   H3067     1.0  0.41080  0.37077  0.94492  1.0000
  C   C1795     1.0  0.55952  0.38288  0.92937  1.0000
  H   H3068     1.0  0.51840  0.02761  0.78036  1.0000
  C   C1796     1.0  0.54438  0.20510  0.96482  1.0000
  H   H3069     1.0  0.55910  0.99239  0.83654  1.0000
  H   H3070     1.0  0.39598  0.99143  0.54454  1.0000
  S   S531      1.0  0.53391  0.20124  0.95728  1.0000
  H   H3071     1.0  0.39434  0.02716  0.70838  1.0000
  H   H3072     1.0  0.38836  0.05006  0.58105  1.0000
  H   H3073     1.0  0.40323  0.99024  0.72757  1.0000
  N   N122      1.0  0.39710  0.07061  0.53045  1.0000
  H   H3074     1.0  0.40471  0.00440  0.83028  1.0000
  C   C1797     1.0  0.41441  0.23824  0.95922  1.0000
  H   H3075     1.0  0.42493  0.00309  0.76468  1.0000
  C   C1798     1.0  0.50780  0.00363  0.57368  1.0000
  H   H3076     1.0  0.58224  0.41525  0.93685  1.0000
  N   N123      1.0  0.51363  0.01182  0.57892  1.0000
  S   S532      1.0  0.55719  0.31270  0.88954  1.0000
  C   C1799     1.0  0.52822  0.00999  0.57269  1.0000
  H   H3077     1.0  0.55340  0.34867  0.86328  1.0000
  C   C1800     1.0  0.50654  0.02619  0.57556  1.0000
  C   C1801     1.0  0.41116  0.08672  0.87294  1.0000
  C   C1802     1.0  0.53518  0.01986  0.57458  1.0000
  H   H3078     1.0  0.44486  0.05758  0.73465  1.0000
  C   C1803     1.0  0.50717  0.03249  0.56057  1.0000
  H   H3079     1.0  0.40085  0.09028  0.52129  1.0000
  H   H3080     1.0  0.51476  0.01457  0.59788  1.0000
  H   H3081     1.0  0.39283  0.00909  0.70068  1.0000
  N   N124      1.0  0.40053  0.29567  0.90749  1.0000
  H   H3082     1.0  0.50514  0.19619  0.94549  1.0000
  C   C1804     1.0  0.55687  0.07651  0.58070  1.0000
  H   H3083     1.0  0.49584  0.02745  0.58031  1.0000
  H   H3084     1.0  0.50986  0.03263  0.57994  1.0000
  H   H3085     1.0  0.41781  0.01055  0.61127  1.0000
  H   H3086     1.0  0.40789  0.36189  0.92802  1.0000
  H   H3087     1.0  0.40943  0.29374  0.96710  1.0000
  H   H3088     1.0  0.53199  0.03007  0.56876  1.0000
  H   H3089     1.0  0.53355  0.02004  0.58525  1.0000
  H   H3090     1.0  0.54601  0.01669  0.57087  1.0000
  H   H3091     1.0  0.41908  0.17128  0.94488  1.0000
  C   C1805     1.0  0.47224  0.36571  0.95209  1.0000
  H   H3092     1.0  0.57067  0.39761  0.89063  1.0000
  H   H3093     1.0  0.49872  0.03115  0.55746  1.0000
  H   H3094     1.0  0.51646  0.02843  0.55399  1.0000
  H   H3095     1.0  0.50672  0.04332  0.55873  1.0000
  N   N125      1.0  0.51068  0.05630  0.80419  1.0000
  C   C1806     1.0  0.51087  0.04992  0.79319  1.0000
  C   C1807     1.0  0.52080  0.04725  0.81190  1.0000
  C   C1808     1.0  0.51430  0.06966  0.79777  1.0000
  C   C1809     1.0  0.49697  0.05789  0.81301  1.0000
  C   C1810     1.0  0.50298  0.05848  0.78253  1.0000
  C   C1811     1.0  0.52050  0.03234  0.81598  1.0000
  C   C1812     1.0  0.52094  0.07508  0.80557  1.0000
  C   C1813     1.0  0.49410  0.06551  0.82412  1.0000
  H   H3096     1.0  0.52126  0.04677  0.78769  1.0000
  H   H3097     1.0  0.50684  0.04076  0.79743  1.0000
  H   H3098     1.0  0.52010  0.05041  0.82114  1.0000
  H   H3099     1.0  0.53093  0.04774  0.80589  1.0000
  H   H3100     1.0  0.52147  0.06930  0.78800  1.0000
  H   H3101     1.0  0.50544  0.07740  0.79540  1.0000
  H   H3102     1.0  0.48944  0.06342  0.80702  1.0000
  H   H3103     1.0  0.49409  0.04819  0.81768  1.0000
  H   H3104     1.0  0.50434  0.05254  0.77505  1.0000
  H   H3105     1.0  0.49222  0.06105  0.78675  1.0000
  H   H3106     1.0  0.50663  0.06762  0.77692  1.0000
  H   H3107     1.0  0.52449  0.02759  0.80725  1.0000
  H   H3108     1.0  0.52703  0.02715  0.82310  1.0000
  H   H3109     1.0  0.51047  0.03062  0.82092  1.0000
  H   H3110     1.0  0.52165  0.08548  0.80039  1.0000
  H   H3111     1.0  0.53121  0.06932  0.80567  1.0000
  H   H3112     1.0  0.51543  0.07527  0.81593  1.0000
  H   H3113     1.0  0.49237  0.07643  0.82008  1.0000
  H   H3114     1.0  0.50183  0.06224  0.82996  1.0000
  H   H3115     1.0  0.48509  0.06321  0.83156  1.0000
  H   H3116     1.0  0.42347  0.11750  0.87580  1.0000
  C   C1814     1.0  0.49631  0.98517  0.78525  1.0000
  C   C1815     1.0  0.40389  0.03209  0.55723  1.0000
  C   C1816     1.0  0.40402  0.28073  0.90960  1.0000
  H   H3117     1.0  0.40535  0.38434  0.96006  1.0000
  H   H3118     1.0  0.43853  0.28504  0.96936  1.0000
  C   C1817     1.0  0.56986  0.05408  0.58626  1.0000
  S   S533      1.0  0.47656  0.99181  0.58968  1.0000
  C   C1818     1.0  0.57727  0.05778  0.59465  1.0000
  H   H3119     1.0  0.41041  0.05524  0.54136  1.0000
  H   H3120     1.0  0.55262  0.26394  0.97656  1.0000
  H   H3121     1.0  0.43117  0.06952  0.88394  1.0000
  H   H3122     1.0  0.44888  0.98720  0.85832  1.0000
  H   H3123     1.0  0.50043  0.32902  0.95058  1.0000
  H   H3124     1.0  0.56184  0.39941  0.96892  1.0000
  C   C1819     1.0  0.44433  0.16264  0.95652  1.0000
  H   H3125     1.0  0.46429  0.04024  0.62593  1.0000
  H   H3126     1.0  0.40488  0.02953  0.65146  1.0000
  H   H3127     1.0  0.41689  0.08310  0.53257  1.0000
  H   H3128     1.0  0.41292  0.11255  0.86899  1.0000
  S   S534      1.0  0.52971  0.12200  0.94882  1.0000
  H   H3129     1.0  0.50930  0.00672  0.56261  1.0000
  H   H3130     1.0  0.52132  0.99704  0.66926  1.0000
  H   H3131     1.0  0.42592  0.15768  0.97765  1.0000
  H   H3132     1.0  0.41853  0.99245  0.68552  1.0000
  H   H3133     1.0  0.43987  0.06758  0.67074  1.0000
  Fe  Fe271     1.0  0.46637  0.04011  0.69202  1.0000
  Fe  Fe272     1.0  0.45413  0.02366  0.71824  1.0000
  H   H3134     1.0  0.43022  0.20296  0.97704  1.0000
  H   H3135     1.0  0.58596  0.18677  0.87686  1.0000
  H   H3136     1.0  0.41751  0.01709  0.79505  1.0000
  H   H3137     1.0  0.57322  0.10338  0.87536  1.0000
  C   C1820     1.0  0.45259  0.33995  0.97111  1.0000
  H   H3138     1.0  0.40724  0.07929  0.51053  1.0000
  C   C1821     1.0  0.40745  0.00949  0.61351  1.0000
  H   H3139     1.0  0.55735  0.09183  0.56176  1.0000
  H   H3140     1.0  0.51515  0.35205  0.96849  1.0000
  H   H3141     1.0  0.57733  0.40163  0.95834  1.0000
  H   H3142     1.0  0.42579  0.06807  0.54134  1.0000
  N   N126      1.0  0.39225  0.37557  0.93842  1.0000
  H   H3143     1.0  0.42710  0.07136  0.86424  1.0000
  H   H3144     1.0  0.45874  0.98503  0.77194  1.0000
  H   H3145     1.0  0.48856  0.98776  0.71860  1.0000
  H   H3146     1.0  0.39821  0.36410  0.95675  1.0000
  N   N127      1.0  0.58023  0.35043  0.86372  1.0000
  C   C1822     1.0  0.56672  0.33262  0.97138  1.0000
  C   C1823     1.0  0.51344  0.98846  0.57690  1.0000
  C   C1824     1.0  0.55974  0.99027  0.86323  1.0000
  H   H3147     1.0  0.40914  0.39804  0.91357  1.0000
  H   H3148     1.0  0.46443  0.36282  0.94931  1.0000
  C   C1825     1.0  0.56977  0.08629  0.96985  1.0000
  H   H3149     1.0  0.54395  0.99969  0.74345  1.0000
  H   H3150     1.0  0.55777  0.00324  0.82083  1.0000
  C   C1826     1.0  0.55558  0.08460  0.97667  1.0000
  C   C1827     1.0  0.43334  0.99478  0.76711  1.0000
  S   S535      1.0  0.44648  0.02030  0.74064  1.0000
  H   H3151     1.0  0.53798  0.99520  0.83053  1.0000
  H   H3152     1.0  0.50213  0.37129  0.93438  1.0000
  H   H3153     1.0  0.52730  0.99067  0.86696  1.0000
  H   H3154     1.0  0.41835  0.08338  0.85268  1.0000
  H   H3155     1.0  0.39974  0.27602  0.92006  1.0000
  C   C1828     1.0  0.40332  0.36528  0.89598  1.0000
  H   H3156     1.0  0.55101  0.26739  0.89543  1.0000
  C   C1829     1.0  0.47106  0.98582  0.68419  1.0000
  H   H3157     1.0  0.40966  0.22820  0.94687  1.0000
  H   H3158     1.0  0.40301  0.30067  0.93743  1.0000
  H   H3159     1.0  0.39210  0.05130  0.53656  1.0000
  H   H3160     1.0  0.41418  0.98898  0.58332  1.0000
  H   H3161     1.0  0.40994  0.24807  0.95426  1.0000
  H   H3162     1.0  0.58252  0.36114  0.83180  1.0000
  H   H3163     1.0  0.48877  0.98816  0.77909  1.0000
  H   H3164     1.0  0.41894  0.98980  0.52551  1.0000
  H   H3165     1.0  0.57181  0.33333  0.86660  1.0000
  C   C1830     1.0  0.53789  0.98687  0.86541  1.0000
  H   H3166     1.0  0.57577  0.26999  0.94860  1.0000
  H   H3167     1.0  0.42213  0.99919  0.71608  1.0000
  H   H3168     1.0  0.47255  0.37599  0.94628  1.0000
  C   C1831     1.0  0.39893  0.02382  0.61203  1.0000
  C   C1832     1.0  0.54684  0.98783  0.82683  1.0000
  H   H3169     1.0  0.56112  0.99284  0.74145  1.0000
  S   S536      1.0  0.48121  0.24798  0.97921  1.0000
  C   C1833     1.0  0.55112  0.98887  0.72750  1.0000
  C   C1834     1.0  0.40652  0.29948  0.91664  1.0000
  H   H3170     1.0  0.41485  0.27687  0.90849  1.0000
  H   H3171     1.0  0.43272  0.29789  0.95638  1.0000
  H   H3172     1.0  0.42895  0.99397  0.80016  1.0000
  H   H3173     1.0  0.42592  0.13281  0.96000  1.0000
  C   C1835     1.0  0.42187  0.07312  0.89089  1.0000
  C   C1836     1.0  0.42563  0.07075  0.90442  1.0000
  C   C1837     1.0  0.56158  0.32558  0.96551  1.0000
  C   C1838     1.0  0.56067  0.25632  0.97211  1.0000
  H   H3174     1.0  0.45346  0.06124  0.71767  1.0000
  H   H3175     1.0  0.58488  0.34139  0.84678  1.0000
  H   H3176     1.0  0.42865  0.00013  0.69870  1.0000
  C   C1839     1.0  0.39436  0.38787  0.92771  1.0000
  N   N128      1.0  0.57543  0.39064  0.93839  1.0000
  H   H3177     1.0  0.41741  0.29582  0.91446  1.0000
  H   H3178     1.0  0.43213  0.06067  0.90644  1.0000
  H   H3179     1.0  0.49879  0.99225  0.81183  1.0000
  H   H3180     1.0  0.52106  0.36696  0.94658  1.0000
  N   N129      1.0  0.41542  0.08724  0.88506  1.0000
  H   H3181     1.0  0.50852  0.19259  0.96161  1.0000
  H   H3182     1.0  0.40542  0.09641  0.86845  1.0000
  S   S537      1.0  0.42497  0.03224  0.68580  1.0000
  C   C1840     1.0  0.50849  0.98748  0.80617  1.0000
  H   H3183     1.0  0.54355  0.16544  0.95623  1.0000
  C   C1841     1.0  0.40073  0.01738  0.71185  1.0000
  H   H3184     1.0  0.39459  0.17755  0.95953  1.0000
  H   H3185     1.0  0.49470  0.16362  0.95801  1.0000
  H   H3186     1.0  0.55769  0.28853  0.88199  1.0000
  N   N130      1.0  0.56578  0.06498  0.57478  1.0000
  C   C1842     1.0  0.44174  0.06273  0.66226  1.0000
  N   N131      1.0  0.45885  0.06019  0.63999  1.0000
  C   C1843     1.0  0.45338  0.29851  0.97329  1.0000
  H   H3187     1.0  0.53741  0.14970  0.93931  1.0000
  H   H3188     1.0  0.43129  0.07790  0.90437  1.0000
  C   C1844     1.0  0.42608  0.02380  0.64580  1.0000
  C   C1845     1.0  0.51253  0.00934  0.79275  1.0000
  C   C1846     1.0  0.42288  0.15004  0.97468  1.0000
  H   H3189     1.0  0.54597  0.26285  0.94600  1.0000
  C   C1847     1.0  0.51526  0.15496  0.96001  1.0000
  H   H3190     1.0  0.48686  0.36527  0.97022  1.0000
  H   H3191     1.0  0.46898  0.36548  0.96294  1.0000
  S   S538      1.0  0.46314  0.01975  0.61172  1.0000
  H   H3192     1.0  0.53449  0.30870  0.97547  1.0000
  Fe  Fe273     1.0  0.44467  0.03436  0.58217  1.0000
  H   H3193     1.0  0.57043  0.06430  0.60128  1.0000
  C   C1848     1.0  0.57571  0.99027  0.80474  1.0000
  C   C1849     1.0  0.45631  0.02502  0.77263  1.0000
  H   H3194     1.0  0.45374  0.06312  0.62104  1.0000
  H   H3195     1.0  0.54644  0.28527  0.95412  1.0000
  H   H3196     1.0  0.39394  0.98555  0.56928  1.0000
  H   H3197     1.0  0.58233  0.01715  0.57725  1.0000
  H   H3198     1.0  0.43894  0.15643  0.94183  1.0000
  C   C1850     1.0  0.52091  0.16774  0.97327  1.0000
  C   C1851     1.0  0.53729  0.99010  0.78475  1.0000
  H   H3199     1.0  0.53261  0.33457  0.97998  1.0000
  H   H3200     1.0  0.54831  0.23829  0.95473  1.0000
  H   H3201     1.0  0.47847  0.08690  0.73168  1.0000
  H   H3202     1.0  0.48307  0.07721  0.86849  1.0000
  C   C1852     1.0  0.48016  0.06696  0.75726  1.0000
  H   H3203     1.0  0.39680  0.34310  0.93448  1.0000
  H   H3204     1.0  0.41691  0.01639  0.77877  1.0000
  C   C1853     1.0  0.42591  0.99811  0.82651  1.0000
  C   C1854     1.0  0.49365  0.35592  0.96773  1.0000
  H   H3205     1.0  0.42258  0.28634  0.88645  1.0000
  H   H3206     1.0  0.57092  0.42535  0.92683  1.0000
  C   C1855     1.0  0.39992  0.37320  0.94897  1.0000
  H   H3207     1.0  0.57238  0.09365  0.97359  1.0000
  H   H3208     1.0  0.40179  0.02998  0.60192  1.0000
  C   C1856     1.0  0.55934  0.99255  0.82602  1.0000
  H   H3209     1.0  0.55781  0.99663  0.79673  1.0000
  H   H3210     1.0  0.39976  0.43224  0.91362  1.0000
  H   H3211     1.0  0.54159  0.99687  0.77560  1.0000
  H   H3212     1.0  0.40771  0.00696  0.79360  1.0000
  C   C1857     1.0  0.51868  0.98992  0.67883  1.0000
  H   H3213     1.0  0.45554  0.98664  0.78912  1.0000
  H   H3214     1.0  0.41822  0.06230  0.52499  1.0000
  C   C1858     1.0  0.40209  0.98853  0.51926  1.0000
  C   C1859     1.0  0.49986  0.99785  0.78609  1.0000
  H   H3215     1.0  0.43045  0.10934  0.86228  1.0000
  H   H3216     1.0  0.42342  0.30282  0.87713  1.0000
  H   H3217     1.0  0.39384  0.39446  0.95043  1.0000
  C   C1860     1.0  0.57084  0.39445  0.96254  1.0000
  H   H3218     1.0  0.44725  0.01839  0.64312  1.0000
  C   C1861     1.0  0.57981  0.18079  0.88462  1.0000
  C   C1862     1.0  0.40182  0.05368  0.51569  1.0000
  C   C1863     1.0  0.50514  0.35274  0.97493  1.0000
  H   H3219     1.0  0.56871  0.03947  0.56876  1.0000
  N   N132      1.0  0.40992  0.99412  0.70602  1.0000
  N   N133      1.0  0.56096  0.25804  0.95754  1.0000
  C   C1864     1.0  0.41051  0.06477  0.53387  1.0000
  C   C1865     1.0  0.54257  0.24542  0.96116  1.0000
  H   H3220     1.0  0.39009  0.09291  0.50126  1.0000
  N   N134      1.0  0.50141  0.29290  0.91533  1.0000
  C   C1866     1.0  0.51216  0.29746  0.90382  1.0000
  C   C1867     1.0  0.49474  0.30431  0.92229  1.0000
  C   C1868     1.0  0.49087  0.29026  0.91020  1.0000
  C   C1869     1.0  0.50748  0.28096  0.92481  1.0000
  C   C1870     1.0  0.51859  0.28850  0.89370  1.0000
  C   C1871     1.0  0.50374  0.30995  0.92720  1.0000
  C   C1872     1.0  0.49262  0.27597  0.90849  1.0000
  C   C1873     1.0  0.49786  0.27624  0.93797  1.0000
  H   H3221     1.0  0.50832  0.30751  0.89800  1.0000
  H   H3222     1.0  0.52043  0.29846  0.90751  1.0000
  H   H3223     1.0  0.48672  0.30163  0.93101  1.0000
  H   H3224     1.0  0.48955  0.31279  0.91552  1.0000
  H   H3225     1.0  0.48092  0.29243  0.91693  1.0000
  H   H3226     1.0  0.48963  0.29732  0.90051  1.0000
  H   H3227     1.0  0.51220  0.27239  0.91993  1.0000
  H   H3228     1.0  0.51575  0.28312  0.92752  1.0000
  H   H3229     1.0  0.52263  0.27813  0.89854  1.0000
  H   H3230     1.0  0.51164  0.28880  0.88765  1.0000
  H   H3231     1.0  0.52705  0.29239  0.88656  1.0000
  H   H3232     1.0  0.49750  0.31784  0.93255  1.0000
  H   H3233     1.0  0.50924  0.30229  0.93427  1.0000
  H   H3234     1.0  0.51069  0.31484  0.91873  1.0000
  H   H3235     1.0  0.48488  0.27588  0.90354  1.0000
  H   H3236     1.0  0.49128  0.26884  0.91827  1.0000
  H   H3237     1.0  0.50227  0.27219  0.90226  1.0000
  H   H3238     1.0  0.50058  0.26520  0.94102  1.0000
  H   H3239     1.0  0.48738  0.27901  0.93718  1.0000
  H   H3240     1.0  0.49895  0.28002  0.94618  1.0000
  H   H3241     1.0  0.43319  0.98981  0.59527  1.0000
  H   H3242     1.0  0.46416  0.10000  0.73044  1.0000
  C   C1874     1.0  0.57338  0.38061  0.93207  1.0000
  H   H3243     1.0  0.56870  0.23682  0.95879  1.0000
  H   H3244     1.0  0.40633  0.09160  0.90464  1.0000
  C   C1875     1.0  0.51537  0.01907  0.77910  1.0000
  H   H3245     1.0  0.44324  0.05191  0.66664  1.0000
  H   H3246     1.0  0.41408  0.43265  0.91808  1.0000
  H   H3247     1.0  0.51676  0.99936  0.70768  1.0000
  C   C1876     1.0  0.57738  0.06968  0.56462  1.0000
  C   C1877     1.0  0.42912  0.98604  0.60599  1.0000
  H   H3248     1.0  0.43799  0.17274  0.95655  1.0000
  H   H3249     1.0  0.55825  0.24663  0.97793  1.0000
  Fe  Fe274     1.0  0.44352  0.02865  0.69308  1.0000
  C   C1878     1.0  0.44871  0.06395  0.63151  1.0000
  H   H3250     1.0  0.50643  0.02321  0.77484  1.0000
  C   C1879     1.0  0.51199  0.00747  0.59387  1.0000
  H   H3251     1.0  0.55807  0.39096  0.92042  1.0000
  H   H3252     1.0  0.52339  0.99206  0.77305  1.0000
  S   S539      1.0  0.56257  0.33417  0.91151  1.0000
  H   H3253     1.0  0.54298  0.24078  0.97173  1.0000
  H   H3254     1.0  0.40958  0.14166  0.96096  1.0000
  H   H3255     1.0  0.56065  0.29221  0.94656  1.0000
  C   C1880     1.0  0.55290  0.09294  0.87396  1.0000
  H   H3256     1.0  0.43527  0.09053  0.87761  1.0000
  H   H3257     1.0  0.49394  0.10638  0.84252  1.0000
  C   C1881     1.0  0.55587  0.12163  0.97604  1.0000
  H   H3258     1.0  0.40485  0.31310  0.89233  1.0000
  H   H3259     1.0  0.58222  0.35438  0.88170  1.0000
  C   C1882     1.0  0.39937  0.27496  0.90047  1.0000
  H   H3260     1.0  0.51053  0.09387  0.88142  1.0000
  C   C1883     1.0  0.48544  0.35573  0.94861  1.0000
  H   H3261     1.0  0.58113  0.12401  0.87255  1.0000
  H   H3262     1.0  0.55076  0.10331  0.87435  1.0000
  H   H3263     1.0  0.53294  0.08803  0.84004  1.0000
  C   C1884     1.0  0.52460  0.08605  0.83736  1.0000
  C   C1885     1.0  0.55333  0.12210  0.95394  1.0000
  S   S540      1.0  0.44087  0.04493  0.59875  1.0000
  S   S541      1.0  0.55616  0.08686  0.90004  1.0000
  S   S542      1.0  0.57619  0.14258  0.89407  1.0000
  S   S543      1.0  0.44825  0.04013  0.80855  1.0000
  H   H3264     1.0  0.52639  0.08491  0.88432  1.0000
  H   H3265     1.0  0.52790  0.08743  0.86127  1.0000
  H   H3266     1.0  0.43302  0.35052  0.96860  1.0000
  H   H3267     1.0  0.41683  0.07094  0.91282  1.0000
  C   C1886     1.0  0.57358  0.15947  0.89453  1.0000
  C   C1887     1.0  0.50214  0.09382  0.85963  1.0000
  H   H3268     1.0  0.52888  0.08194  0.82825  1.0000
  C   C1888     1.0  0.58145  0.16736  0.88463  1.0000
  C   C1889     1.0  0.54001  0.12167  0.95912  1.0000
  C   C1890     1.0  0.53464  0.12129  0.97275  1.0000
  H   H3269     1.0  0.57550  0.38577  0.96952  1.0000
  H   H3270     1.0  0.58045  0.07699  0.56809  1.0000
  Fe  Fe275     1.0  0.54113  0.24005  0.91891  1.0000
  H   H3271     1.0  0.39729  0.04623  0.51423  1.0000
  H   H3272     1.0  0.51044  0.05972  0.87174  1.0000
  S   S544      1.0  0.55945  0.11291  0.91765  1.0000
  H   H3273     1.0  0.45597  0.24032  0.93317  1.0000
  H   H3274     1.0  0.49081  0.00369  0.79165  1.0000
  C   C1891     1.0  0.43784  0.02413  0.66204  1.0000
  Fe  Fe276     1.0  0.44141  0.02479  0.61255  1.0000
  H   H3275     1.0  0.43537  0.06988  0.75107  1.0000
  C   C1892     1.0  0.55625  0.35339  0.95858  1.0000
  C   C1893     1.0  0.46947  0.20877  0.94815  1.0000
  H   H3276     1.0  0.47023  0.23023  0.92577  1.0000
  H   H3277     1.0  0.38873  0.39712  0.93120  1.0000
  H   H3278     1.0  0.47955  0.20366  0.94963  1.0000
  H   H3279     1.0  0.46500  0.25562  0.91535  1.0000
  H   H3280     1.0  0.51096  0.07310  0.84420  1.0000
  H   H3281     1.0  0.40329  0.26400  0.90239  1.0000
  C   C1894     1.0  0.46693  0.23812  0.93159  1.0000
  C   C1895     1.0  0.47199  0.25027  0.92199  1.0000
  H   H3282     1.0  0.57428  0.00686  0.82919  1.0000
  C   C1896     1.0  0.49258  0.09710  0.85013  1.0000
  H   H3283     1.0  0.49316  0.06716  0.85662  1.0000
  Fe  Fe277     1.0  0.52531  0.34896  0.91089  1.0000
  H   H3284     1.0  0.45380  0.22505  0.95347  1.0000
  C   C1897     1.0  0.43800  0.02187  0.64961  1.0000
  H   H3285     1.0  0.43559  0.05100  0.64650  1.0000
  H   H3286     1.0  0.48217  0.09912  0.85582  1.0000
  C   C1898     1.0  0.56733  0.36044  0.86299  1.0000
  C   C1899     1.0  0.39351  0.03901  0.56563  1.0000
  C   C1900     1.0  0.56413  0.16509  0.90461  1.0000
  H   H3287     1.0  0.55825  0.15896  0.91245  1.0000
  H   H3288     1.0  0.45192  0.25871  0.94390  1.0000
  H   H3289     1.0  0.47237  0.25769  0.92715  1.0000
  C   C1901     1.0  0.42031  0.23673  0.96981  1.0000
  H   H3290     1.0  0.54504  0.35172  0.94564  1.0000
  S   S545      1.0  0.53568  0.20539  0.91923  1.0000
  H   H3291     1.0  0.50310  0.21851  0.95080  1.0000
  H   H3292     1.0  0.42870  0.06209  0.63321  1.0000
  H   H3293     1.0  0.45471  0.04101  0.65133  1.0000
  H   H3294     1.0  0.45458  0.04931  0.75392  1.0000
  N   N135      1.0  0.40591  0.00113  0.60502  1.0000
  C   C1902     1.0  0.55120  0.34636  0.95266  1.0000
  N   N136      1.0  0.47140  0.23313  0.94462  1.0000
  C   C1903     1.0  0.46465  0.22197  0.95295  1.0000
  H   H3295     1.0  0.49102  0.23670  0.93532  1.0000
  C   C1904     1.0  0.48242  0.98774  0.72885  1.0000
  H   H3296     1.0  0.49032  0.01446  0.59945  1.0000
  C   C1905     1.0  0.41856  0.28666  0.96942  1.0000
  Fe  Fe278     1.0  0.46803  0.02882  0.79943  1.0000
  H   H3297     1.0  0.45861  0.05588  0.76500  1.0000
  C   C1906     1.0  0.44035  0.06638  0.75958  1.0000
  C   C1907     1.0  0.56259  0.17859  0.90470  1.0000
  C   C1908     1.0  0.48620  0.22843  0.94165  1.0000
  C   C1909     1.0  0.45340  0.25203  0.95357  1.0000
  C   C1910     1.0  0.49242  0.22286  0.95402  1.0000
  H   H3298     1.0  0.56160  0.20166  0.94904  1.0000
  H   H3299     1.0  0.43014  0.08800  0.85830  1.0000
  H   H3300     1.0  0.41647  0.13686  0.93957  1.0000
  H   H3301     1.0  0.41159  0.04900  0.58109  1.0000
  S   S546      1.0  0.53967  0.25946  0.92422  1.0000
  H   H3302     1.0  0.53973  0.26572  0.96215  1.0000
  C   C1911     1.0  0.56515  0.27068  0.94922  1.0000
  S   S547      1.0  0.46348  0.02815  0.67951  1.0000
  C   C1912     1.0  0.55710  0.28358  0.95384  1.0000
  H   H3303     1.0  0.55554  0.18277  0.91265  1.0000
  H   H3304     1.0  0.48791  0.21491  0.96138  1.0000
  C   C1913     1.0  0.41707  0.03153  0.55726  1.0000
  Fe  Fe279     1.0  0.54972  0.32877  0.90144  1.0000
  Fe  Fe280     1.0  0.46495  0.01162  0.59386  1.0000
  C   C1914     1.0  0.46772  0.24391  0.95234  1.0000
  H   H3305     1.0  0.47439  0.25104  0.94810  1.0000
  C   C1915     1.0  0.40180  0.29402  0.93177  1.0000
  C   C1916     1.0  0.58495  0.98457  0.52574  1.0000
  C   C1917     1.0  0.43805  0.05558  0.63575  1.0000
  H   H3306     1.0  0.39160  0.42063  0.93844  1.0000
  C   C1918     1.0  0.50024  0.15797  0.96593  1.0000
  C   C1919     1.0  0.39401  0.35045  0.94087  1.0000
  H   H3307     1.0  0.57157  0.12228  0.95836  1.0000
  C   C1920     1.0  0.57121  0.99328  0.71020  1.0000
  H   H3308     1.0  0.40377  0.01732  0.58783  1.0000
  H   H3309     1.0  0.51882  0.99786  0.59656  1.0000
  C   C1921     1.0  0.41406  0.98733  0.60903  1.0000
  C   C1922     1.0  0.55765  0.06028  0.56835  1.0000
  H   H3310     1.0  0.47692  0.99610  0.63735  1.0000
  C   C1923     1.0  0.57214  0.24638  0.93773  1.0000
  H   H3311     1.0  0.46558  0.21955  0.96351  1.0000
  H   H3312     1.0  0.48940  0.22078  0.93555  1.0000
  H   H3313     1.0  0.45128  0.25846  0.96077  1.0000
  H   H3314     1.0  0.43907  0.02299  0.76770  1.0000
  C   C1924     1.0  0.39636  0.04474  0.57449  1.0000
  H   H3315     1.0  0.52026  0.99378  0.81635  1.0000
  C   C1925     1.0  0.52375  0.98858  0.78382  1.0000
  H   H3316     1.0  0.56283  0.35452  0.84676  1.0000
  H   H3317     1.0  0.56591  0.37925  0.95684  1.0000
  S   S548      1.0  0.47368  0.05853  0.68040  1.0000
  C   C1926     1.0  0.45483  0.05894  0.75570  1.0000
  S   S549      1.0  0.44572  0.04223  0.70447  1.0000
  H   H3318     1.0  0.46898  0.05081  0.73265  1.0000
  H   H3319     1.0  0.51811  0.34707  0.94993  1.0000
  C   C1927     1.0  0.45766  0.05624  0.86697  1.0000
  C   C1928     1.0  0.45015  0.99019  0.67779  1.0000
  H   H3320     1.0  0.44614  0.24560  0.95721  1.0000
  H   H3321     1.0  0.54958  0.36573  0.85510  1.0000
  H   H3322     1.0  0.50373  0.33024  0.96583  1.0000
  H   H3323     1.0  0.49178  0.23087  0.95900  1.0000
  S   S550      1.0  0.48193  0.99146  0.68964  1.0000
  S   S551      1.0  0.46677  0.03065  0.57884  1.0000
  H   H3324     1.0  0.54070  0.16632  0.93330  1.0000
  C   C1929     1.0  0.50721  0.33187  0.95485  1.0000
  C   C1930     1.0  0.41191  0.98768  0.69454  1.0000
  S   S552      1.0  0.54064  0.23478  0.90019  1.0000
  S   S553      1.0  0.52305  0.23245  0.93090  1.0000
  H   H3325     1.0  0.46920  0.23962  0.96269  1.0000
  H   H3326     1.0  0.40339  0.38620  0.89077  1.0000
  C   C1931     1.0  0.55375  0.33246  0.95621  1.0000
  H   H3327     1.0  0.42606  0.09816  0.89104  1.0000
  H   H3328     1.0  0.43267  0.06636  0.65820  1.0000
  H   H3329     1.0  0.42720  0.29761  0.89321  1.0000
  H   H3330     1.0  0.48980  0.06123  0.75965  1.0000
  C   C1932     1.0  0.45382  0.06678  0.65177  1.0000
  C   C1933     1.0  0.41400  0.03079  0.66643  1.0000
  C   C1934     1.0  0.57041  0.18651  0.89462  1.0000
  C   C1935     1.0  0.56662  0.38974  0.95223  1.0000
  C   C1936     1.0  0.53746  0.15902  0.95531  1.0000
  C   C1937     1.0  0.46968  0.03725  0.63408  1.0000
  C   C1938     1.0  0.45935  0.08107  0.74201  1.0000
  H   H3331     1.0  0.47124  0.06648  0.72284  1.0000
  C   C1939     1.0  0.42323  0.99421  0.70789  1.0000
  H   H3332     1.0  0.39119  0.10739  0.88259  1.0000
  H   H3333     1.0  0.53363  0.99984  0.57689  1.0000
  C   C1940     1.0  0.50870  0.34629  0.94838  1.0000
  H   H3334     1.0  0.51056  0.34736  0.93740  1.0000
  H   H3335     1.0  0.58149  0.99757  0.50081  1.0000
  H   H3336     1.0  0.40823  0.01329  0.69212  1.0000
  H   H3337     1.0  0.51319  0.38384  0.94139  1.0000
  H   H3338     1.0  0.45673  0.29211  0.96590  1.0000
  C   C1941     1.0  0.55039  0.27521  0.90029  1.0000
  H   H3339     1.0  0.39555  0.99815  0.68437  1.0000
  C   C1942     1.0  0.45925  0.99612  0.57370  1.0000
  H   H3340     1.0  0.45861  0.08413  0.75136  1.0000
  S   S554      1.0  0.55520  0.22086  0.92545  1.0000
  H   H3341     1.0  0.49787  0.00415  0.61284  1.0000
  C   C1943     1.0  0.56575  0.20896  0.96392  1.0000
  H   H3342     1.0  0.58152  0.00819  0.70948  1.0000
  H   H3343     1.0  0.56186  0.36188  0.87317  1.0000
  H   H3344     1.0  0.45128  0.02610  0.78269  1.0000
  H   H3345     1.0  0.54870  0.05764  0.57582  1.0000
  C   C1944     1.0  0.40286  0.00844  0.70201  1.0000
  C   C1945     1.0  0.42609  0.22401  0.97619  1.0000
  N   N137      1.0  0.52289  0.16489  0.95969  1.0000
  H   H3346     1.0  0.57386  0.23597  0.93668  1.0000
  C   C1946     1.0  0.55789  0.35699  0.85662  1.0000
  Fe  Fe281     1.0  0.44661  0.02031  0.82266  1.0000
  C   C1947     1.0  0.51940  0.17764  0.94961  1.0000
  H   H3347     1.0  0.41920  0.00247  0.57116  1.0000
  C   C1948     1.0  0.43785  0.15340  0.95287  1.0000
  Fe  Fe282     1.0  0.45839  0.04310  0.82303  1.0000
  H   H3348     1.0  0.40180  0.02753  0.55045  1.0000
  C   C1949     1.0  0.49813  0.00568  0.60205  1.0000
  C   C1950     1.0  0.45065  0.99219  0.56863  1.0000
  H   H3349     1.0  0.58236  0.99506  0.72396  1.0000
  H   H3350     1.0  0.47395  0.02218  0.73611  1.0000
  H   H3351     1.0  0.43188  0.99103  0.61225  1.0000
  H   H3352     1.0  0.55147  0.38496  0.93808  1.0000
  C   C1951     1.0  0.40342  0.09166  0.89542  1.0000
  C   C1952     1.0  0.45133  0.06405  0.72743  1.0000
  H   H3353     1.0  0.55398  0.06832  0.56023  1.0000
  Fe  Fe283     1.0  0.47006  0.01060  0.69521  1.0000
  C   C1953     1.0  0.41411  0.02810  0.65432  1.0000
  C   C1954     1.0  0.41130  0.99988  0.58002  1.0000
  H   H3354     1.0  0.44702  0.15824  0.96636  1.0000
  H   H3355     1.0  0.57833  0.40474  0.91940  1.0000
  H   H3356     1.0  0.56445  0.27221  0.93866  1.0000
  S   S555      1.0  0.44979  0.01025  0.70807  1.0000
  C   C1955     1.0  0.45741  0.05435  0.85451  1.0000
  H   H3357     1.0  0.55947  0.99060  0.69116  1.0000
  H   H3358     1.0  0.45758  0.00487  0.68148  1.0000
  C   C1956     1.0  0.47586  0.02491  0.75470  1.0000
  H   H3359     1.0  0.48092  0.07752  0.75361  1.0000
  C   C1957     1.0  0.47762  0.06156  0.74645  1.0000
  H   H3360     1.0  0.54086  0.28275  0.93091  1.0000
  N   N138      1.0  0.46379  0.06614  0.74395  1.0000
  H   H3361     1.0  0.56161  0.40649  0.92837  1.0000
  H   H3362     1.0  0.46013  0.10038  0.97621  1.0000
  C   C1958     1.0  0.45568  0.02229  0.75092  1.0000
  C   C1959     1.0  0.55308  0.98495  0.69956  1.0000
  H   H3363     1.0  0.53025  0.01040  0.56180  1.0000
  H   H3364     1.0  0.56875  0.37051  0.85749  1.0000
  H   H3365     1.0  0.46425  0.99951  0.65148  1.0000
  S   S556      1.0  0.44324  0.01479  0.59620  1.0000
  N   N139      1.0  0.42358  0.15342  0.95984  1.0000
  C   C1960     1.0  0.53935  0.20904  0.97699  1.0000
  H   H3366     1.0  0.44350  0.07458  0.63089  1.0000
  C   C1961     1.0  0.58370  0.00108  0.82428  1.0000
  S   S557      1.0  0.53588  0.35600  0.92201  1.0000
  H   H3367     1.0  0.45085  0.07776  0.64842  1.0000
  C   C1962     1.0  0.39699  0.36378  0.93192  1.0000
  S   S558      1.0  0.45672  0.06317  0.82757  1.0000
  H   H3368     1.0  0.40765  0.28384  0.93501  1.0000
  H   H3369     1.0  0.55296  0.15248  0.93901  1.0000
  Fe  Fe284     1.0  0.55271  0.35541  0.90403  1.0000
  H   H3370     1.0  0.44080  0.04781  0.62983  1.0000
  H   H3371     1.0  0.39561  0.99704  0.52353  1.0000
  H   H3372     1.0  0.50319  0.01425  0.79885  1.0000
  Fe  Fe285     1.0  0.46299  0.03930  0.59677  1.0000
  H   H3373     1.0  0.45760  0.04792  0.87551  1.0000
  H   H3374     1.0  0.56492  0.00090  0.70377  1.0000
  C   C1963     1.0  0.42265  0.10944  0.87163  1.0000
  H   H3375     1.0  0.57691  0.26608  0.97028  1.0000
  C   C1964     1.0  0.43678  0.98767  0.82373  1.0000
  H   H3376     1.0  0.45717  0.04465  0.85356  1.0000
  H   H3377     1.0  0.46810  0.08536  0.63447  1.0000
  N   N140      1.0  0.49717  0.35707  0.95282  1.0000
  C   C1965     1.0  0.40950  0.04407  0.57460  1.0000
  C   C1966     1.0  0.42582  0.02877  0.67038  1.0000
  C   C1967     1.0  0.45950  0.99463  0.68113  1.0000
  C   C1968     1.0  0.54886  0.29545  0.91282  1.0000
  H   H3378     1.0  0.57240  0.05098  0.55278  1.0000
  H   H3379     1.0  0.46822  0.08789  0.72059  1.0000
  C   C1969     1.0  0.42521  0.09596  0.88177  1.0000
  H   H3380     1.0  0.48009  0.03816  0.62981  1.0000
  Fe  Fe286     1.0  0.55282  0.21465  0.90794  1.0000
  S   S559      1.0  0.54128  0.35001  0.89230  1.0000
  C   C1970     1.0  0.42244  0.08209  0.86152  1.0000
  H   H3381     1.0  0.41503  0.38045  0.91777  1.0000
  H   H3382     1.0  0.51638  0.15364  0.94976  1.0000
  H   H3383     1.0  0.57445  0.07513  0.55499  1.0000
  C   C1971     1.0  0.41986  0.14261  0.95614  1.0000
  H   H3384     1.0  0.57291  0.32726  0.97842  1.0000
  H   H3385     1.0  0.40962  0.07515  0.54943  1.0000
  C   C1972     1.0  0.57645  0.37632  0.89722  1.0000
  H   H3386     1.0  0.48764  0.35643  0.93767  1.0000
  C   C1973     1.0  0.46897  0.02300  0.74624  1.0000
  S   S560      1.0  0.53274  0.32744  0.91916  1.0000
  H   H3387     1.0  0.53690  0.21766  0.86743  1.0000
  C   C1974     1.0  0.56462  0.04837  0.56174  1.0000
  H   H3388     1.0  0.54425  0.99186  0.70395  1.0000
  H   H3389     1.0  0.52021  0.00882  0.79796  1.0000
  H   H3390     1.0  0.46990  0.02653  0.63861  1.0000
  H   H3391     1.0  0.57025  0.09052  0.95901  1.0000
  S   S561      1.0  0.47515  0.02241  0.70660  1.0000
  H   H3392     1.0  0.58509  0.31653  0.87980  1.0000
  C   C1975     1.0  0.57255  0.41614  0.93471  1.0000
  H   H3393     1.0  0.48512  0.06410  0.73714  1.0000
  H   H3394     1.0  0.44927  0.08463  0.74001  1.0000
  H   H3395     1.0  0.57594  0.20893  0.95882  1.0000
  C   C1976     1.0  0.56067  0.21308  0.97602  1.0000
  S   S562      1.0  0.56891  0.20354  0.89387  1.0000
  H   H3396     1.0  0.54200  0.08602  0.56839  1.0000
  C   C1977     1.0  0.57688  0.33732  0.87187  1.0000
  H   H3397     1.0  0.47915  0.06157  0.63726  1.0000
  H   H3398     1.0  0.46127  0.08457  0.62103  1.0000
  S   S563      1.0  0.43619  0.03919  0.56383  1.0000
  C   C1978     1.0  0.54717  0.25868  0.95639  1.0000
  H   H3399     1.0  0.44157  0.99053  0.74739  1.0000
  H   H3400     1.0  0.43214  0.14091  0.93616  1.0000
  H   H3401     1.0  0.41328  0.39056  0.92948  1.0000
  H   H3402     1.0  0.40048  0.11349  0.89059  1.0000
  H   H3403     1.0  0.52764  0.18301  0.94608  1.0000
  S   S564      1.0  0.54675  0.32364  0.94952  1.0000
  C   C1979     1.0  0.52788  0.98589  0.62326  1.0000
  H   H3404     1.0  0.42150  0.27984  0.96243  1.0000
  C   C1980     1.0  0.55419  0.28715  0.89271  1.0000
  C   C1981     1.0  0.46947  0.08020  0.62636  1.0000
  H   H3405     1.0  0.47867  0.08223  0.61905  1.0000
  H   H3406     1.0  0.55633  0.39529  0.95168  1.0000
  S   S565      1.0  0.47648  0.32442  0.97541  1.0000
  Fe  Fe287     1.0  0.54483  0.33438  0.92862  1.0000
  H   H3407     1.0  0.39673  0.08457  0.89848  1.0000
  S   S566      1.0  0.56984  0.35547  0.97569  1.0000
  H   H3408     1.0  0.40538  0.31044  0.91474  1.0000
  S   S567      1.0  0.56159  0.37376  0.89538  1.0000
  C   C1982     1.0  0.40035  0.16801  0.95671  1.0000
  H   H3409     1.0  0.56457  0.41768  0.94366  1.0000
  H   H3410     1.0  0.41074  0.98936  0.54960  1.0000
  H   H3411     1.0  0.44418  0.99962  0.56275  1.0000
  Fe  Fe288     1.0  0.53697  0.21300  0.93613  1.0000
  C   C1983     1.0  0.57076  0.24647  0.95250  1.0000
  H   H3412     1.0  0.49138  0.37860  0.94766  1.0000
  H   H3413     1.0  0.44698  0.02223  0.66516  1.0000
  H   H3414     1.0  0.56321  0.25182  0.93386  1.0000
  C   C1984     1.0  0.47111  0.06502  0.63162  1.0000
  H   H3415     1.0  0.47509  0.06071  0.62261  1.0000
  S   S568      1.0  0.42558  0.02034  0.63084  1.0000
  C   C1985     1.0  0.46814  0.08925  0.73051  1.0000
  C   C1986     1.0  0.42932  0.99868  0.78946  1.0000
  H   H3416     1.0  0.41019  0.99095  0.78083  1.0000
  H   H3417     1.0  0.39223  0.98778  0.59490  1.0000
  C   C1987     1.0  0.46949  0.02615  0.76783  1.0000
  H   H3418     1.0  0.56721  0.00782  0.72256  1.0000
  H   H3419     1.0  0.54881  0.07310  0.58905  1.0000
  C   C1988     1.0  0.46733  0.98665  0.58170  1.0000
  H   H3420     1.0  0.55862  0.37372  0.92707  1.0000
  C   C1989     1.0  0.46307  0.04538  0.64496  1.0000
  H   H3421     1.0  0.52350  0.01450  0.77171  1.0000
  C   C1990     1.0  0.57192  0.40427  0.92966  1.0000
  H   H3422     1.0  0.53723  0.99341  0.79364  1.0000
  C   C1991     1.0  0.39730  0.37890  0.89444  1.0000
  H   H3423     1.0  0.55726  0.04554  0.55822  1.0000
  H   H3424     1.0  0.42021  0.01022  0.58866  1.0000
  H   H3425     1.0  0.58357  0.08272  0.88606  1.0000
  H   H3426     1.0  0.57616  0.04500  0.58298  1.0000
  H   H3427     1.0  0.40522  0.00456  0.62433  1.0000
  H   H3428     1.0  0.55254  0.07948  0.97064  1.0000
  H   H3429     1.0  0.38824  0.38295  0.96547  1.0000
  C   C1992     1.0  0.57843  0.38937  0.89375  1.0000
  C   C1993     1.0  0.57577  0.00134  0.71723  1.0000
  H   H3430     1.0  0.58370  0.99341  0.52976  1.0000
  C   C1994     1.0  0.43577  0.98596  0.75713  1.0000
  C   C1995     1.0  0.58205  0.10518  0.86734  1.0000
  C   C1996     1.0  0.46963  0.99166  0.64579  1.0000
  C   C1997     1.0  0.39852  0.08207  0.51854  1.0000
  H   H3431     1.0  0.57722  0.07678  0.97070  1.0000
  H   H3432     1.0  0.58008  0.98881  0.70324  1.0000
  H   H3433     1.0  0.58034  0.10275  0.85858  1.0000
  H   H3434     1.0  0.58055  0.25079  0.93121  1.0000
  C   C1998     1.0  0.39502  0.10577  0.89162  1.0000
  H   H3435     1.0  0.51068  0.17302  0.97690  1.0000
  H   H3436     1.0  0.54646  0.99865  0.72178  1.0000
  H   H3437     1.0  0.58061  0.38013  0.92239  1.0000
  H   H3438     1.0  0.57212  0.12560  0.86035  1.0000
  H   H3439     1.0  0.49579  0.99674  0.60084  1.0000
  C   C1999     1.0  0.55173  0.99091  0.74108  1.0000
  H   H3440     1.0  0.57795  0.10433  0.89338  1.0000
  H   H3441     1.0  0.54602  0.98690  0.81709  1.0000
  C   C2000     1.0  0.58142  0.12028  0.86375  1.0000
  H   H3442     1.0  0.38900  0.08494  0.54313  1.0000
  H   H3443     1.0  0.58549  0.06254  0.58840  1.0000
  H   H3444     1.0  0.57237  0.98880  0.78613  1.0000
  S   S569      1.0  0.54710  0.99090  0.60056  1.0000
  H   H3445     1.0  0.45116  0.34254  0.98052  1.0000
  C   C2001     1.0  0.41327  0.32642  0.97916  1.0000
  N   N141      1.0  0.57253  0.98486  0.81962  1.0000
  H   H3446     1.0  0.58621  0.98640  0.80014  1.0000
  H   H3447     1.0  0.58145  0.16334  0.97972  1.0000
  H   H3448     1.0  0.40779  0.31214  0.97251  1.0000
  H   H3449     1.0  0.42131  0.33174  0.97690  1.0000
  H   H3450     1.0  0.39120  0.29378  0.93479  1.0000
  C   C2002     1.0  0.51870  0.98463  0.81474  1.0000
  C   C2003     1.0  0.57355  0.25671  0.97542  1.0000
  H   H3451     1.0  0.38681  0.44999  0.90068  1.0000
  H   H3452     1.0  0.58159  0.08074  0.86350  1.0000
  H   H3453     1.0  0.58588  0.37056  0.84155  1.0000
  C   C2004     1.0  0.58307  0.98661  0.82536  1.0000
  C   C2005     1.0  0.39143  0.00083  0.60811  1.0000
  H   H3454     1.0  0.58085  0.24611  0.95343  1.0000
  H   H3455     1.0  0.41659  0.28025  0.97956  1.0000
  H   H3456     1.0  0.40469  0.33396  0.97594  1.0000
  C   C2006     1.0  0.58657  0.36574  0.90120  1.0000
  H   H3457     1.0  0.49722  0.16328  0.97415  1.0000
  N   N142      1.0  0.42796  0.30362  0.97534  1.0000
  H   H3458     1.0  0.52065  0.32124  0.97902  1.0000
  C   C2007     1.0  0.39926  0.98813  0.69027  1.0000
  H   H3459     1.0  0.58251  0.37656  0.86502  1.0000
  C   C2008     1.0  0.51759  0.98604  0.74520  1.0000
  C   C2009     1.0  0.38791  0.98908  0.60524  1.0000
  H   H3460     1.0  0.38696  0.00052  0.61893  1.0000
  H   H3461     1.0  0.52398  0.98584  0.57182  1.0000
  H   H3462     1.0  0.50366  0.36058  0.98047  1.0000
  H   H3463     1.0  0.47268  0.98484  0.84808  1.0000
  C   C2010     1.0  0.38762  0.07525  0.54249  1.0000
  C   C2011     1.0  0.51551  0.30276  0.98178  1.0000
  H   H3464     1.0  0.52907  0.20939  0.98193  1.0000
  S   S570      1.0  0.43203  0.11182  0.98149  1.0000
  H   H3465     1.0  0.56084  0.17744  0.98178  1.0000
  H   H3466     1.0  0.55552  0.97061  0.16900  1.0000
  H   H3467     1.0  0.48608  0.85537  0.00420  1.0000
  Fe  Fe289     1.0  0.46110  0.82541  0.02078  1.0000
  H   H3468     1.0  0.49444  0.78376  0.04515  1.0000
  S   S571      1.0  0.48174  0.81526  0.02271  1.0000
  H   H3469     1.0  0.54961  0.96954  0.09870  1.0000
  N   N143      1.0  0.48866  0.96443  0.12992  1.0000
  H   H3470     1.0  0.44954  0.83611  0.06494  1.0000
  S   S572      1.0  0.45162  0.81864  0.00855  1.0000
  S   S573      1.0  0.45480  0.84717  0.01218  1.0000
  Fe  Fe290     1.0  0.55549  0.83671  0.02369  1.0000
  S   S574      1.0  0.56544  0.83150  0.04088  1.0000
  S   S575      1.0  0.56673  0.83138  0.00398  1.0000
  Fe  Fe291     1.0  0.52808  0.84276  0.04179  1.0000
  S   S576      1.0  0.53577  0.83785  0.06039  1.0000
  S   S577      1.0  0.50632  0.85051  0.04291  1.0000
  Fe  Fe292     1.0  0.55095  0.84947  0.04748  1.0000
  S   S578      1.0  0.55597  0.86684  0.05185  1.0000
  Fe  Fe293     1.0  0.54932  0.82045  0.05207  1.0000
  S   S579      1.0  0.55363  0.79867  0.06214  1.0000
  S   S580      1.0  0.54228  0.85548  0.02920  1.0000
  S   S581      1.0  0.54042  0.82461  0.03448  1.0000
  H   H3471     1.0  0.41216  0.73724  0.04541  1.0000
  Fe  Fe294     1.0  0.53449  0.93335  0.09665  1.0000
  S   S582      1.0  0.52447  0.91840  0.11229  1.0000
  S   S583      1.0  0.52336  0.94555  0.08101  1.0000
  Fe  Fe295     1.0  0.54387  0.90412  0.10838  1.0000
  S   S584      1.0  0.54023  0.94056  0.11145  1.0000
  S   S585      1.0  0.55355  0.91882  0.09183  1.0000
  Fe  Fe296     1.0  0.45533  0.90557  0.07226  1.0000
  S   S586      1.0  0.46711  0.92071  0.06994  1.0000
  S   S587      1.0  0.46090  0.89511  0.05500  1.0000
  Fe  Fe297     1.0  0.44312  0.90654  0.10170  1.0000
  S   S588      1.0  0.45400  0.92142  0.10177  1.0000
  S   S589      1.0  0.42958  0.89755  0.12005  1.0000
  Fe  Fe298     1.0  0.44872  0.93157  0.08195  1.0000
  S   S590      1.0  0.44014  0.95370  0.07755  1.0000
  Fe  Fe299     1.0  0.47113  0.90922  0.08990  1.0000
  S   S591      1.0  0.49128  0.90162  0.09413  1.0000
  S   S592      1.0  0.43644  0.91741  0.08260  1.0000
  S   S593      1.0  0.46078  0.89340  0.09148  1.0000
  S   S594      1.0  0.49779  0.89912  0.23708  1.0000
  Fe  Fe300     1.0  0.43368  0.92351  0.18025  1.0000
  S   S595      1.0  0.45225  0.92905  0.16682  1.0000
  S   S596      1.0  0.41968  0.91509  0.17464  1.0000
  Fe  Fe301     1.0  0.43632  0.93297  0.20362  1.0000
  S   S597      1.0  0.45523  0.93915  0.19229  1.0000
  S   S598      1.0  0.42601  0.93822  0.22362  1.0000
  Fe  Fe302     1.0  0.44541  0.94753  0.17495  1.0000
  S   S599      1.0  0.44608  0.96806  0.16234  1.0000
  Fe  Fe303     1.0  0.46051  0.92014  0.18518  1.0000
  S   S600      1.0  0.48104  0.90748  0.18296  1.0000
  S   S601      1.0  0.42596  0.94294  0.18673  1.0000
  S   S602      1.0  0.44246  0.91297  0.19821  1.0000
  C   C2012     1.0  0.49781  0.58337  0.98825  1.0000
  Fe  Fe304     1.0  0.55868  0.92468  0.10805  1.0000
  H   H3472     1.0  0.45965  0.93706  0.37082  1.0000
  H   H3473     1.0  0.53144  0.96469  0.09044  1.0000
  H   H3474     1.0  0.42669  0.65144  0.02707  1.0000
  H   H3475     1.0  0.48269  0.57738  0.01324  1.0000
  C   C2013     1.0  0.43692  0.87916  0.99161  1.0000
  H   H3476     1.0  0.42118  0.49710  0.02557  1.0000
  H   H3477     1.0  0.42399  0.74631  0.03458  1.0000
  H   H3478     1.0  0.48132  0.95046  0.26854  1.0000
  Fe  Fe305     1.0  0.44220  0.90916  0.29228  1.0000
  S   S603      1.0  0.44798  0.89712  0.31147  1.0000
  S   S604      1.0  0.44805  0.90110  0.27366  1.0000
  Fe  Fe306     1.0  0.43337  0.93489  0.30216  1.0000
  S   S605      1.0  0.43791  0.92507  0.32231  1.0000
  S   S606      1.0  0.42873  0.95701  0.29549  1.0000
  Fe  Fe307     1.0  0.45665  0.91415  0.31082  1.0000
  S   S607      1.0  0.47720  0.91692  0.30827  1.0000
  Fe  Fe308     1.0  0.42865  0.90925  0.32118  1.0000
  S   S608      1.0  0.41305  0.90076  0.33795  1.0000
  S   S609      1.0  0.45231  0.92499  0.29085  1.0000
  S   S610      1.0  0.42242  0.92015  0.30181  1.0000
  H   H3479     1.0  0.50782  0.95756  0.13512  1.0000
  H   H3480     1.0  0.40615  0.52797  0.02978  1.0000
  H   H3481     1.0  0.53524  0.97615  0.19105  1.0000
  S   S611      1.0  0.57209  0.90866  0.35307  1.0000
  H   H3482     1.0  0.57370  0.96545  0.08646  1.0000
  C   C2014     1.0  0.50749  0.96501  0.19304  1.0000
  H   H3483     1.0  0.49102  0.79010  0.06601  1.0000
  C   C2015     1.0  0.45762  0.67362  0.01640  1.0000
  H   H3484     1.0  0.48208  0.94484  0.22820  1.0000
  H   H3485     1.0  0.41716  0.56156  0.01534  1.0000
  H   H3486     1.0  0.42280  0.96618  0.33720  1.0000
  H   H3487     1.0  0.45377  0.87319  0.07917  1.0000
  H   H3488     1.0  0.54424  0.79357  0.01107  1.0000
  H   H3489     1.0  0.40298  0.58599  0.98229  1.0000
  Fe  Fe309     1.0  0.53732  0.62676  0.01522  1.0000
  S   S612      1.0  0.54772  0.63675  0.99521  1.0000
  S   S613      1.0  0.51514  0.63294  0.01770  1.0000
  Fe  Fe310     1.0  0.56325  0.61474  0.02466  1.0000
  S   S614      1.0  0.57538  0.62429  0.00555  1.0000
  S   S615      1.0  0.57238  0.60140  0.04168  1.0000
  Fe  Fe311     1.0  0.55883  0.64251  0.00674  1.0000
  S   S616      1.0  0.56203  0.66356  1.00000  1.0000
  Fe  Fe312     1.0  0.56296  0.61766  0.99615  1.0000
  H   H3490     1.0  0.40889  0.60614  0.98432  1.0000
  S   S617      1.0  0.54766  0.63358  0.02679  1.0000
  S   S618      1.0  0.55166  0.60700  0.01522  1.0000
  Fe  Fe313     1.0  0.52810  0.75442  0.03404  1.0000
  S   S619      1.0  0.53529  0.76542  0.01321  1.0000
  S   S620      1.0  0.51902  0.76613  0.05024  1.0000
  Fe  Fe314     1.0  0.53091  0.72874  0.02527  1.0000
  S   S621      1.0  0.53772  0.73787  0.00371  1.0000
  S   S622      1.0  0.52741  0.70775  0.03231  1.0000
  Fe  Fe315     1.0  0.55017  0.74648  0.01114  1.0000
  H   H3491     1.0  0.57759  0.97108  0.06892  1.0000
  Fe  Fe316     1.0  0.52232  0.75608  0.00745  1.0000
  S   S623      1.0  0.51132  0.76933  0.99195  1.0000
  S   S624      1.0  0.54452  0.73613  0.03268  1.0000
  S   S625      1.0  0.51396  0.74623  0.02832  1.0000
  H   H3492     1.0  0.58395  0.75632  0.01320  1.0000
  H   H3493     1.0  0.53649  0.96831  0.28107  1.0000
  C   C2016     1.0  0.45523  0.67862  0.00352  1.0000
  H   H3494     1.0  0.48618  0.74254  0.04870  1.0000
  C   C2017     1.0  0.50199  0.76047  0.98832  1.0000
  C   C2018     1.0  0.49262  0.75461  0.99847  1.0000
  C   C2019     1.0  0.48473  0.74804  0.99535  1.0000
  C   C2020     1.0  0.52346  0.97405  0.17257  1.0000
  H   H3495     1.0  0.53657  0.97169  0.31857  1.0000
  H   H3496     1.0  0.46745  0.97019  0.13186  1.0000
  H   H3497     1.0  0.49141  0.75519  0.00870  1.0000
  H   H3498     1.0  0.47747  0.74360  0.00321  1.0000
  H   H3499     1.0  0.48562  0.97570  0.29336  1.0000
  H   H3500     1.0  0.46308  0.84380  0.05764  1.0000
  C   C2021     1.0  0.57078  0.79579  0.99260  1.0000
  H   H3501     1.0  0.43361  0.75848  0.05963  1.0000
  C   C2022     1.0  0.41082  0.51152  0.00506  1.0000
  C   C2023     1.0  0.40688  0.96737  0.32787  1.0000
  C   C2024     1.0  0.44975  0.85107  0.07504  1.0000
  C   C2025     1.0  0.50519  0.62120  0.02213  1.0000
  C   C2026     1.0  0.51021  0.60756  0.02629  1.0000
  C   C2027     1.0  0.50176  0.59860  0.03010  1.0000
  C   C2028     1.0  0.48839  0.60325  0.02944  1.0000
  C   C2029     1.0  0.48349  0.61685  0.02509  1.0000
  C   C2030     1.0  0.49179  0.62580  0.02167  1.0000
  H   H3502     1.0  0.52051  0.60394  0.02677  1.0000
  H   H3503     1.0  0.50559  0.58807  0.03348  1.0000
  H   H3504     1.0  0.47319  0.62050  0.02465  1.0000
  H   H3505     1.0  0.48772  0.63632  0.01874  1.0000
  C   C2031     1.0  0.55283  0.67553  0.00954  1.0000
  C   C2032     1.0  0.54276  0.67263  0.02071  1.0000
  C   C2033     1.0  0.53526  0.68253  0.02778  1.0000
  C   C2034     1.0  0.53776  0.69538  0.02376  1.0000
  C   C2035     1.0  0.54799  0.69821  0.01274  1.0000
  C   C2036     1.0  0.55540  0.68835  0.00558  1.0000
  H   H3506     1.0  0.54071  0.66279  0.02388  1.0000
  H   H3507     1.0  0.52755  0.68025  0.03646  1.0000
  H   H3508     1.0  0.55011  0.70804  0.00962  1.0000
  H   H3509     1.0  0.56320  0.69069  0.99697  1.0000
  H   H3510     1.0  0.41443  0.64308  0.02747  1.0000
  H   H3511     1.0  0.41200  0.96122  0.20705  1.0000
  H   H3512     1.0  0.39847  0.79701  0.02265  1.0000
  H   H3513     1.0  0.39225  0.50639  0.02968  1.0000
  H   H3514     1.0  0.42410  0.94180  0.15792  1.0000
  H   H3515     1.0  0.44469  0.97331  0.11938  1.0000
  H   H3516     1.0  0.48316  0.96679  0.11129  1.0000
  H   H3517     1.0  0.42499  0.64670  0.99418  1.0000
  H   H3518     1.0  0.43918  0.85042  0.07872  1.0000
  H   H3519     1.0  0.52630  0.97684  0.10022  1.0000
  H   H3520     1.0  0.46295  0.98413  0.22936  1.0000
  C   C2037     1.0  0.48634  0.74722  0.98213  1.0000
  N   N144      1.0  0.39576  0.96106  0.32854  1.0000
  C   C2038     1.0  0.41495  0.53896  0.99575  1.0000
  C   C2039     1.0  0.44035  0.97697  0.08331  1.0000
  H   H3521     1.0  0.42332  0.95094  0.33340  1.0000
  S   S626      1.0  0.54649  0.90399  0.25923  1.0000
  H   H3522     1.0  0.48640  0.86377  0.21961  1.0000
  H   H3523     1.0  0.40919  0.94742  0.31665  1.0000
  N   N145      1.0  0.43162  0.96029  0.13172  1.0000
  Fe  Fe317     1.0  0.51329  0.91056  0.23317  1.0000
  C   C2040     1.0  0.42381  0.94670  0.11977  1.0000
  H   H3524     1.0  0.44653  0.88361  0.25204  1.0000
  C   C2041     1.0  0.43878  0.96274  0.30198  1.0000
  C   C2042     1.0  0.44887  0.95377  0.30785  1.0000
  C   C2043     1.0  0.45562  0.95802  0.31475  1.0000
  H   H3525     1.0  0.56328  0.96864  0.33309  1.0000
  H   H3526     1.0  0.57879  0.57751  0.06047  1.0000
  H   H3527     1.0  0.49961  0.66951  0.99353  1.0000
  H   H3528     1.0  0.45166  0.94357  0.30693  1.0000
  H   H3529     1.0  0.46324  0.95096  0.31941  1.0000
  H   H3530     1.0  0.50093  0.89739  0.26421  1.0000
  C   C2044     1.0  0.48808  0.94989  0.13402  1.0000
  C   C2045     1.0  0.41364  0.74746  0.04040  1.0000
  S   S627      1.0  0.58425  0.98252  0.11287  1.0000
  C   C2046     1.0  0.42461  0.70012  0.99323  1.0000
  C   C2047     1.0  0.40336  0.91039  0.34969  1.0000
  C   C2048     1.0  0.40862  0.91895  0.35343  1.0000
  C   C2049     1.0  0.40067  0.92672  0.36259  1.0000
  H   H3531     1.0  0.39820  0.92914  0.32402  1.0000
  H   H3532     1.0  0.53807  0.94539  0.36972  1.0000
  H   H3533     1.0  0.41886  0.91949  0.34934  1.0000
  H   H3534     1.0  0.40484  0.93329  0.36545  1.0000
  H   H3535     1.0  0.45545  0.94836  0.34418  1.0000
  H   H3536     1.0  0.41899  0.76210  0.00813  1.0000
  C   C2050     1.0  0.55861  0.79270  0.02261  1.0000
  S   S628      1.0  0.57064  0.74654  0.99876  1.0000
  H   H3537     1.0  0.53142  0.94739  0.19991  1.0000
  C   C2051     1.0  0.50436  0.89723  0.33748  1.0000
  C   C2052     1.0  0.49223  0.89356  0.34012  1.0000
  C   C2053     1.0  0.48379  0.89926  0.33108  1.0000
  C   C2054     1.0  0.48748  0.90872  0.31955  1.0000
  C   C2055     1.0  0.49979  0.91194  0.31673  1.0000
  C   C2056     1.0  0.50830  0.90601  0.32551  1.0000
  H   H3538     1.0  0.48920  0.88663  0.34931  1.0000
  H   H3539     1.0  0.47434  0.89661  0.33320  1.0000
  H   H3540     1.0  0.50282  0.91902  0.30768  1.0000
  H   H3541     1.0  0.51796  0.90826  0.32298  1.0000
  H   H3542     1.0  0.42035  0.54717  0.99127  1.0000
  C   C2057     1.0  0.56370  0.97253  0.27180  1.0000
  C   C2058     1.0  0.57846  0.56613  0.99459  1.0000
  H   H3543     1.0  0.45487  0.68897  0.99881  1.0000
  H   H3544     1.0  0.53668  0.97017  0.06635  1.0000
  C   C2059     1.0  0.46611  0.96710  0.17378  1.0000
  H   H3545     1.0  0.55468  0.95215  0.14481  1.0000
  S   S629      1.0  0.46947  0.71895  0.01654  1.0000
  H   H3546     1.0  0.48075  0.96601  0.18434  1.0000
  H   H3547     1.0  0.46926  0.95673  0.17340  1.0000
  C   C2060     1.0  0.43244  0.92840  0.23752  1.0000
  C   C2061     1.0  0.44396  0.91853  0.23588  1.0000
  C   C2062     1.0  0.44881  0.91052  0.24708  1.0000
  C   C2063     1.0  0.44220  0.91224  0.25994  1.0000
  C   C2064     1.0  0.43088  0.92242  0.26159  1.0000
  C   C2065     1.0  0.42598  0.93047  0.25037  1.0000
  H   H3548     1.0  0.44900  0.91701  0.22600  1.0000
  H   H3549     1.0  0.45766  0.90285  0.24589  1.0000
  H   H3550     1.0  0.42570  0.92385  0.27150  1.0000
  H   H3551     1.0  0.41705  0.93812  0.25170  1.0000
  C   C2066     1.0  0.49359  0.90205  0.22172  1.0000
  C   C2067     1.0  0.48063  0.90817  0.22052  1.0000
  C   C2068     1.0  0.47691  0.90997  0.20852  1.0000
  C   C2069     1.0  0.48617  0.90580  0.19760  1.0000
  C   C2070     1.0  0.49927  0.89996  0.19863  1.0000
  C   C2071     1.0  0.50301  0.89818  0.21070  1.0000
  H   H3552     1.0  0.47352  0.91160  0.22887  1.0000
  H   H3553     1.0  0.46680  0.91440  0.20778  1.0000
  H   H3554     1.0  0.50651  0.89686  0.19014  1.0000
  H   H3555     1.0  0.51314  0.89366  0.21153  1.0000
  C   C2072     1.0  0.44700  0.96374  0.08303  1.0000
  C   C2073     1.0  0.41416  0.66230  0.01306  1.0000
  H   H3556     1.0  0.49908  0.98248  0.20914  1.0000
  H   H3557     1.0  0.42613  0.49556  0.99706  1.0000
  C   C2074     1.0  0.46384  0.96664  0.09233  1.0000
  C   C2075     1.0  0.45879  0.95862  0.08750  1.0000
  H   H3558     1.0  0.55512  0.96030  0.26469  1.0000
  H   H3559     1.0  0.52768  0.83358  0.01020  1.0000
  H   H3560     1.0  0.47300  0.96259  0.09569  1.0000
  H   H3561     1.0  0.46401  0.94849  0.08719  1.0000
  C   C2076     1.0  0.42738  0.90281  0.13492  1.0000
  C   C2077     1.0  0.43669  0.90836  0.13717  1.0000
  C   C2078     1.0  0.43458  0.91211  0.14938  1.0000
  C   C2079     1.0  0.42310  0.91044  0.15925  1.0000
  C   C2080     1.0  0.41388  0.90493  0.15693  1.0000
  C   C2081     1.0  0.41605  0.90105  0.14490  1.0000
  H   H3562     1.0  0.44561  0.90946  0.12965  1.0000
  H   H3563     1.0  0.44181  0.91616  0.15121  1.0000
  H   H3564     1.0  0.40502  0.90359  0.16452  1.0000
  H   H3565     1.0  0.40886  0.89673  0.14329  1.0000
  C   C2082     1.0  0.57005  0.96416  0.11425  1.0000
  H   H3566     1.0  0.55953  0.94923  0.11610  1.0000
  H   H3567     1.0  0.51219  0.72270  0.01263  1.0000
  C   C2083     1.0  0.51461  0.93404  0.08108  1.0000
  C   C2084     1.0  0.52108  0.92062  0.08277  1.0000
  C   C2085     1.0  0.51385  0.91072  0.08667  1.0000
  C   C2086     1.0  0.50015  0.91421  0.08832  1.0000
  C   C2087     1.0  0.49368  0.92764  0.08564  1.0000
  C   C2088     1.0  0.50092  0.93761  0.08215  1.0000
  H   H3568     1.0  0.53164  0.91780  0.08185  1.0000
  H   H3569     1.0  0.51889  0.90034  0.08869  1.0000
  H   H3570     1.0  0.48307  0.93032  0.08683  1.0000
  H   H3571     1.0  0.49584  0.94798  0.08099  1.0000
  C   C2089     1.0  0.55143  0.87145  0.06746  1.0000
  C   C2090     1.0  0.54723  0.86278  0.07947  1.0000
  C   C2091     1.0  0.54584  0.87919  0.09205  1.0000
  C   C2092     1.0  0.54963  0.88799  0.08001  1.0000
  C   C2093     1.0  0.55251  0.88410  0.06780  1.0000
  H   H3572     1.0  0.55051  0.89775  0.08008  1.0000
  H   H3573     1.0  0.55567  0.89089  0.05855  1.0000
  C   C2094     1.0  0.54373  0.78953  0.05940  1.0000
  C   C2095     1.0  0.54869  0.77601  0.05920  1.0000
  C   C2096     1.0  0.54133  0.76883  0.05604  1.0000
  C   C2097     1.0  0.52874  0.77503  0.05357  1.0000
  C   C2098     1.0  0.52358  0.78842  0.05424  1.0000
  C   C2099     1.0  0.53113  0.79571  0.05695  1.0000
  H   H3574     1.0  0.55836  0.77114  0.06127  1.0000
  H   H3575     1.0  0.54526  0.75842  0.05582  1.0000
  H   H3576     1.0  0.51380  0.79324  0.05250  1.0000
  H   H3577     1.0  0.52710  0.80604  0.05739  1.0000
  H   H3578     1.0  0.47912  0.95291  0.21193  1.0000
  H   H3579     1.0  0.51216  0.73182  0.99600  1.0000
  C   C2100     1.0  0.45745  0.87805  0.04212  1.0000
  C   C2101     1.0  0.45133  0.88623  0.05134  1.0000
  C   C2102     1.0  0.43796  0.88692  0.05749  1.0000
  H   H3580     1.0  0.54232  0.78231  0.02734  1.0000
  H   H3581     1.0  0.47479  0.77515  0.98279  1.0000
  H   H3582     1.0  0.46778  0.87753  0.03730  1.0000
  H   H3583     1.0  0.43312  0.89328  0.06452  1.0000
  H   H3584     1.0  0.39655  0.67526  0.98850  1.0000
  C   C2103     1.0  0.48778  0.82425  0.03012  1.0000
  C   C2104     1.0  0.48063  0.83685  0.03213  1.0000
  C   C2105     1.0  0.48628  0.84477  0.03635  1.0000
  C   C2106     1.0  0.49894  0.83994  0.03895  1.0000
  C   C2107     1.0  0.50565  0.82695  0.03792  1.0000
  C   C2108     1.0  0.50017  0.81915  0.03334  1.0000
  H   H3585     1.0  0.47088  0.84067  0.03014  1.0000
  H   H3586     1.0  0.48096  0.85472  0.03735  1.0000
  H   H3587     1.0  0.51504  0.82287  0.04065  1.0000
  H   H3588     1.0  0.50561  0.80926  0.03214  1.0000
  H   H3589     1.0  0.47505  0.93718  0.21991  1.0000
  H   H3590     1.0  0.56526  0.95293  0.32956  1.0000
  H   H3591     1.0  0.53185  0.97915  0.16911  1.0000
  H   H3592     1.0  0.52834  0.81697  0.00888  1.0000
  H   H3593     1.0  0.49385  0.96681  0.31285  1.0000
  H   H3594     1.0  0.46529  0.82388  0.09703  1.0000
  C   C2109     1.0  0.48732  0.56664  0.01523  1.0000
  H   H3595     1.0  0.38869  0.62068  0.99687  1.0000
  H   H3596     1.0  0.52786  0.96392  0.17066  1.0000
  H   H3597     1.0  0.39275  0.96234  0.22484  1.0000
  C   C2110     1.0  0.47373  0.87522  0.24263  1.0000
  C   C2111     1.0  0.48752  0.86688  0.24461  1.0000
  C   C2112     1.0  0.44416  0.88226  0.24313  1.0000
  H   H3598     1.0  0.47454  0.88580  0.23987  1.0000
  H   H3599     1.0  0.46701  0.87390  0.25269  1.0000
  H   H3600     1.0  0.46003  0.85695  0.24823  1.0000
  H   H3601     1.0  0.49531  0.86839  0.23536  1.0000
  H   H3602     1.0  0.49031  0.87028  0.25214  1.0000
  H   H3603     1.0  0.48761  0.85614  0.24851  1.0000
  H   H3604     1.0  0.47736  0.93659  0.25352  1.0000
  H   H3605     1.0  0.43578  0.89064  0.24076  1.0000
  H   H3606     1.0  0.44055  0.87296  0.24569  1.0000
  C   C2113     1.0  0.42008  0.96091  0.14362  1.0000
  C   C2114     1.0  0.39015  0.90947  0.35540  1.0000
  H   H3607     1.0  0.44342  0.94863  0.35952  1.0000
  H   H3608     1.0  0.47520  0.85090  0.23827  1.0000
  H   H3609     1.0  0.38815  0.51679  0.04124  1.0000
  H   H3610     1.0  0.48938  0.94632  0.15515  1.0000
  C   C2115     1.0  0.41016  0.56976  0.01917  1.0000
  H   H3611     1.0  0.40594  0.74796  0.02392  1.0000
  H   H3612     1.0  0.42271  0.57531  0.98903  1.0000
  H   H3613     1.0  0.48382  0.88109  0.21811  1.0000
  C   C2116     1.0  0.50975  0.98061  0.23663  1.0000
  H   H3614     1.0  0.47998  0.79613  0.04740  1.0000
  H   H3615     1.0  0.50294  0.69842  0.99450  1.0000
  H   H3616     1.0  0.51324  0.90343  0.27463  1.0000
  H   H3617     1.0  0.41094  0.96735  0.14046  1.0000
  C   C2117     1.0  0.44281  0.94885  0.13525  1.0000
  C   C2118     1.0  0.42137  0.90091  0.99352  1.0000
  C   C2119     1.0  0.56822  0.76892  0.02565  1.0000
  H   H3618     1.0  0.45701  0.87708  0.99411  1.0000
  H   H3619     1.0  0.56021  0.95084  0.08817  1.0000
  H   H3620     1.0  0.47733  0.90488  0.26793  1.0000
  H   H3621     1.0  0.58087  0.90559  0.09158  1.0000
  H   H3622     1.0  0.56234  0.98021  0.05631  1.0000
  C   C2120     1.0  0.47278  0.97243  0.17980  1.0000
  H   H3623     1.0  0.47294  0.94770  0.15285  1.0000
  H   H3624     1.0  0.45796  0.89276  0.22781  1.0000
  H   H3625     1.0  0.49231  0.91932  0.38090  1.0000
  H   H3626     1.0  0.50618  0.83973  0.00858  1.0000
  H   H3627     1.0  0.50406  0.97864  0.16711  1.0000
  H   H3628     1.0  0.50314  0.97179  0.28798  1.0000
  S   S630      1.0  0.39179  0.55513  0.02325  1.0000
  H   H3629     1.0  0.57749  0.57105  0.98412  1.0000
  C   C2121     1.0  0.43035  0.91068  0.98543  1.0000
  Fe  Fe318     1.0  0.45564  0.70621  0.01760  1.0000
  S   S631      1.0  0.57913  0.92797  0.10481  1.0000
  H   H3630     1.0  0.58165  0.54344  0.01417  1.0000
  C   C2122     1.0  0.56143  0.84050  0.98926  1.0000
  H   H3631     1.0  0.50804  0.56717  0.01023  1.0000
  N   N146      1.0  0.50811  0.88931  0.05428  1.0000
  C   C2123     1.0  0.50257  0.87897  0.06574  1.0000
  C   C2124     1.0  0.49795  0.89540  0.04579  1.0000
  C   C2125     1.0  0.50964  0.89986  0.06020  1.0000
  C   C2126     1.0  0.52125  0.88264  0.04685  1.0000
  C   C2127     1.0  0.51096  0.87189  0.07635  1.0000
  C   C2128     1.0  0.49485  0.88578  0.03933  1.0000
  C   C2129     1.0  0.51535  0.91150  0.05044  1.0000
  C   C2130     1.0  0.52635  0.88971  0.03225  1.0000
  H   H3632     1.0  0.49254  0.88342  0.07112  1.0000
  H   H3633     1.0  0.50132  0.87084  0.06197  1.0000
  H   H3634     1.0  0.50074  0.90374  0.03759  1.0000
  H   H3635     1.0  0.48841  0.90002  0.05184  1.0000
  H   H3636     1.0  0.49991  0.90427  0.06605  1.0000
  H   H3637     1.0  0.51637  0.89551  0.06725  1.0000
  H   H3638     1.0  0.52905  0.88109  0.05241  1.0000
  H   H3639     1.0  0.52087  0.87248  0.04644  1.0000
  H   H3640     1.0  0.50665  0.86351  0.08317  1.0000
  H   H3641     1.0  0.52132  0.86756  0.07186  1.0000
  H   H3642     1.0  0.51078  0.87855  0.08271  1.0000
  H   H3643     1.0  0.50386  0.87997  0.03384  1.0000
  H   H3644     1.0  0.48903  0.87888  0.04682  1.0000
  H   H3645     1.0  0.48860  0.89162  0.03208  1.0000
  H   H3646     1.0  0.50944  0.91707  0.04286  1.0000
  H   H3647     1.0  0.52587  0.90811  0.04568  1.0000
  H   H3648     1.0  0.51516  0.91872  0.05623  1.0000
  H   H3649     1.0  0.53715  0.88897  0.03060  1.0000
  H   H3650     1.0  0.52177  0.90036  0.02942  1.0000
  H   H3651     1.0  0.52536  0.88443  0.02514  1.0000
  C   C2131     1.0  0.39655  0.51164  0.03441  1.0000
  H   H3652     1.0  0.47573  0.86806  0.07262  1.0000
  H   H3653     1.0  0.41285  0.90621  0.00017  1.0000
  H   H3654     1.0  0.41438  0.96760  0.21967  1.0000
  C   C2132     1.0  0.43574  0.76510  0.04995  1.0000
  H   H3655     1.0  0.52777  0.98237  0.08271  1.0000
  H   H3656     1.0  0.43790  0.86843  0.99658  1.0000
  H   H3657     1.0  0.47771  0.87338  0.30669  1.0000
  H   H3658     1.0  0.50347  0.60136  0.98809  1.0000
  C   C2133     1.0  0.50853  0.89856  0.28481  1.0000
  H   H3659     1.0  0.43550  0.51810  0.02652  1.0000
  H   H3660     1.0  0.45411  0.94742  0.22772  1.0000
  C   C2134     1.0  0.50305  0.59142  0.99482  1.0000
  C   C2135     1.0  0.41866  0.78274  0.00604  1.0000
  H   H3661     1.0  0.57889  0.94920  0.06943  1.0000
  H   H3662     1.0  0.57859  0.98201  0.41218  1.0000
  C   C2136     1.0  0.54614  0.91385  0.29330  1.0000
  S   S632      1.0  0.42772  0.86181  0.04181  1.0000
  H   H3663     1.0  0.42047  0.88005  0.05916  1.0000
  H   H3664     1.0  0.58666  0.87437  0.37522  1.0000
  C   C2137     1.0  0.39667  0.56952  0.02335  1.0000
  N   N147      1.0  0.49317  0.95935  0.28306  1.0000
  C   C2138     1.0  0.48370  0.94415  0.14914  1.0000
  C   C2139     1.0  0.45810  0.66009  0.02229  1.0000
  C   C2140     1.0  0.42179  0.71056  0.99973  1.0000
  H   H3665     1.0  0.56121  0.98319  0.15548  1.0000
  H   H3666     1.0  0.50225  0.94685  0.19298  1.0000
  C   C2141     1.0  0.53433  0.97360  0.28920  1.0000
  N   N148      1.0  0.41341  0.98185  0.20079  1.0000
  S   S633      1.0  0.51414  0.89173  0.34947  1.0000
  C   C2142     1.0  0.54454  0.86662  0.09172  1.0000
  Fe  Fe319     1.0  0.53225  0.92398  0.12668  1.0000
  H   H3667     1.0  0.52879  0.88622  0.26714  1.0000
  H   H3668     1.0  0.55041  0.89590  0.28607  1.0000
  C   C2143     1.0  0.41647  0.95961  0.33717  1.0000
  C   C2144     1.0  0.46575  0.85837  0.23768  1.0000
  C   C2145     1.0  0.53232  0.97468  0.09050  1.0000
  C   C2146     1.0  0.43691  0.97229  0.20552  1.0000
  C   C2147     1.0  0.49112  0.84844  0.99738  1.0000
  H   H3669     1.0  0.50463  0.55238  0.00911  1.0000
  N   N149      1.0  0.49628  0.89508  0.13977  1.0000
  C   C2148     1.0  0.50483  0.90060  0.14494  1.0000
  C   C2149     1.0  0.49452  0.90387  0.12634  1.0000
  C   C2150     1.0  0.50377  0.88133  0.13788  1.0000
  C   C2151     1.0  0.48334  0.89465  0.14991  1.0000
  C   C2152     1.0  0.50904  0.89227  0.15801  1.0000
  C   C2153     1.0  0.48886  0.91876  0.12616  1.0000
  C   C2154     1.0  0.49744  0.87407  0.13163  1.0000
  C   C2155     1.0  0.47117  0.89518  0.14467  1.0000
  H   H3670     1.0  0.51406  0.90201  0.13732  1.0000
  H   H3671     1.0  0.49968  0.91062  0.14698  1.0000
  H   H3672     1.0  0.48800  0.90074  0.12204  1.0000
  H   H3673     1.0  0.50411  0.90297  0.11886  1.0000
  H   H3674     1.0  0.51386  0.88173  0.13147  1.0000
  H   H3675     1.0  0.50527  0.87456  0.14759  1.0000
  H   H3676     1.0  0.48446  0.88564  0.15815  1.0000
  H   H3677     1.0  0.48044  0.90332  0.15475  1.0000
  H   H3678     1.0  0.50059  0.88941  0.16598  1.0000
  H   H3679     1.0  0.51686  0.88329  0.15626  1.0000
  H   H3680     1.0  0.51337  0.89835  0.16182  1.0000
  H   H3681     1.0  0.49657  0.92354  0.12651  1.0000
  H   H3682     1.0  0.50441  0.86453  0.13009  1.0000
  H   H3683     1.0  0.49565  0.87967  0.12164  1.0000
  H   H3684     1.0  0.48827  0.87142  0.13845  1.0000
  H   H3685     1.0  0.46426  0.88990  0.15285  1.0000
  H   H3686     1.0  0.47330  0.89050  0.13610  1.0000
  H   H3687     1.0  0.46551  0.90559  0.14224  1.0000
  H   H3688     1.0  0.56855  0.95674  0.05732  1.0000
  C   C2156     1.0  0.50958  0.82119  0.99507  1.0000
  C   C2157     1.0  0.39236  0.77382  0.01729  1.0000
  H   H3689     1.0  0.49495  0.96307  0.26154  1.0000
  H   H3690     1.0  0.42705  0.66322  0.98825  1.0000
  H   H3691     1.0  0.53731  0.79973  0.02608  1.0000
  C   C2158     1.0  0.43022  0.50985  0.03108  1.0000
  N   N150      1.0  0.51419  0.83410  0.98949  1.0000
  H   H3692     1.0  0.50841  0.81820  0.00609  1.0000
  H   H3693     1.0  0.50533  0.95307  0.30693  1.0000
  C   C2159     1.0  0.50140  0.56340  0.00657  1.0000
  C   C2160     1.0  0.48307  0.98086  0.26767  1.0000
  H   H3694     1.0  0.53433  0.96644  0.29894  1.0000
  H   H3695     1.0  0.50627  0.96523  0.09691  1.0000
  C   C2161     1.0  0.45344  0.67014  0.99657  1.0000
  H   H3696     1.0  0.57664  0.94906  0.38375  1.0000
  C   C2162     1.0  0.38920  0.96916  0.31719  1.0000
  C   C2163     1.0  0.42805  0.97766  0.19527  1.0000
  H   H3697     1.0  0.40949  0.88661  0.01612  1.0000
  C   C2164     1.0  0.54346  0.98329  0.28639  1.0000
  C   C2165     1.0  0.52724  0.97926  0.24739  1.0000
  N   N151      1.0  0.41545  0.51709  0.01396  1.0000
  H   H3698     1.0  0.40641  0.66662  0.02095  1.0000
  H   H3699     1.0  0.43345  0.95773  0.23544  1.0000
  H   H3700     1.0  0.56739  0.56966  0.01455  1.0000
  Fe  Fe320     1.0  0.43709  0.84630  0.02919  1.0000
  H   H3701     1.0  0.45770  0.77102  0.05583  1.0000
  C   C2166     1.0  0.39229  0.93882  0.32638  1.0000
  H   H3702     1.0  0.51001  0.85302  0.99517  1.0000
  C   C2167     1.0  0.49444  0.88298  0.29793  1.0000
  C   C2168     1.0  0.50948  0.95300  0.18686  1.0000
  H   H3703     1.0  0.47515  0.78608  0.07224  1.0000
  H   H3704     1.0  0.50760  0.95613  0.17664  1.0000
  N   N152      1.0  0.45535  0.85184  0.08618  1.0000
  H   H3705     1.0  0.48613  0.83997  0.00095  1.0000
  C   C2169     1.0  0.45399  0.65662  0.00245  1.0000
  H   H3706     1.0  0.41823  0.78977  0.01208  1.0000
  C   C2170     1.0  0.48699  0.78062  0.02336  1.0000
  C   C2171     1.0  0.56230  0.91073  0.37937  1.0000
  H   H3707     1.0  0.47580  0.97276  0.22055  1.0000
  S   S634      1.0  0.43779  0.71902  0.02828  1.0000
  H   H3708     1.0  0.57246  0.87513  0.12722  1.0000
  H   H3709     1.0  0.46319  0.83107  0.07280  1.0000
  H   H3710     1.0  0.42492  0.76551  0.02036  1.0000
  S   S635      1.0  0.44437  0.82492  0.03871  1.0000
  N   N153      1.0  0.47694  0.93876  0.35463  1.0000
  C   C2172     1.0  0.48665  0.93388  0.36365  1.0000
  C   C2173     1.0  0.48210  0.94927  0.34311  1.0000
  C   C2174     1.0  0.47664  0.92760  0.34868  1.0000
  C   C2175     1.0  0.46358  0.94465  0.36229  1.0000
  C   C2176     1.0  0.48512  0.92118  0.37454  1.0000
  C   C2177     1.0  0.48235  0.96225  0.34653  1.0000
  C   C2178     1.0  0.46632  0.91909  0.35645  1.0000
  C   C2179     1.0  0.45297  0.95134  0.35386  1.0000
  H   H3711     1.0  0.49698  0.93179  0.35772  1.0000
  H   H3712     1.0  0.48619  0.94163  0.36893  1.0000
  H   H3713     1.0  0.47625  0.95231  0.33530  1.0000
  H   H3714     1.0  0.49232  0.94513  0.33794  1.0000
  H   H3715     1.0  0.47463  0.93140  0.33844  1.0000
  H   H3716     1.0  0.48659  0.92080  0.34706  1.0000
  H   H3717     1.0  0.46446  0.95224  0.36708  1.0000
  H   H3718     1.0  0.47514  0.92219  0.38120  1.0000
  H   H3719     1.0  0.48767  0.91230  0.37016  1.0000
  H   H3720     1.0  0.48745  0.96851  0.33747  1.0000
  H   H3721     1.0  0.47224  0.96823  0.34945  1.0000
  H   H3722     1.0  0.48782  0.96051  0.35440  1.0000
  H   H3723     1.0  0.45616  0.92473  0.35566  1.0000
  H   H3724     1.0  0.46661  0.91510  0.36710  1.0000
  H   H3725     1.0  0.46820  0.91042  0.35196  1.0000
  H   H3726     1.0  0.45113  0.96235  0.35207  1.0000
  N   N154      1.0  0.49478  0.66087  0.04459  1.0000
  C   C2180     1.0  0.48538  0.67191  0.05086  1.0000
  C   C2181     1.0  0.48690  0.65363  0.04060  1.0000
  C   C2182     1.0  0.50428  0.66628  0.03223  1.0000
  C   C2183     1.0  0.50261  0.65165  0.05456  1.0000
  C   C2184     1.0  0.49189  0.68092  0.05482  1.0000
  C   C2185     1.0  0.47751  0.64618  0.05210  1.0000
  C   C2186     1.0  0.49808  0.67814  0.02217  1.0000
  C   C2187     1.0  0.51152  0.63878  0.05046  1.0000
  H   H3727     1.0  0.47867  0.67836  0.04420  1.0000
  H   H3728     1.0  0.47869  0.66780  0.06017  1.0000
  H   H3729     1.0  0.49350  0.64631  0.03472  1.0000
  H   H3730     1.0  0.48066  0.66062  0.03379  1.0000
  H   H3731     1.0  0.51204  0.66937  0.03488  1.0000
  H   H3732     1.0  0.50981  0.65839  0.02658  1.0000
  H   H3733     1.0  0.50929  0.65678  0.05650  1.0000
  H   H3734     1.0  0.49598  0.64876  0.06443  1.0000
  H   H3735     1.0  0.48410  0.68934  0.05814  1.0000
  H   H3736     1.0  0.49664  0.67549  0.06335  1.0000
  H   H3737     1.0  0.49923  0.68534  0.04644  1.0000
  H   H3738     1.0  0.48266  0.63878  0.05959  1.0000
  H   H3739     1.0  0.46918  0.65317  0.05706  1.0000
  H   H3740     1.0  0.47311  0.64052  0.04787  1.0000
  H   H3741     1.0  0.49016  0.67598  0.01897  1.0000
  H   H3742     1.0  0.50588  0.68031  0.01314  1.0000
  H   H3743     1.0  0.49413  0.68733  0.02612  1.0000
  H   H3744     1.0  0.50575  0.63213  0.04954  1.0000
  H   H3745     1.0  0.51718  0.63310  0.05826  1.0000
  H   H3746     1.0  0.51883  0.64094  0.04098  1.0000
  C   C2188     1.0  0.53112  0.97256  0.32851  1.0000
  H   H3747     1.0  0.51945  0.87120  0.28929  1.0000
  C   C2189     1.0  0.40927  0.87635  0.00168  1.0000
  C   C2190     1.0  0.56996  0.97298  0.07805  1.0000
  H   H3748     1.0  0.56568  0.76901  0.03646  1.0000
  H   H3749     1.0  0.45818  0.96302  0.21957  1.0000
  H   H3750     1.0  0.39397  0.68591  0.01305  1.0000
  C   C2191     1.0  0.50542  0.93782  0.27442  1.0000
  H   H3751     1.0  0.55826  0.79203  0.03328  1.0000
  C   C2192     1.0  0.54274  0.92776  0.29015  1.0000
  H   H3752     1.0  0.47289  0.85945  0.06171  1.0000
  C   C2193     1.0  0.56152  0.95891  0.27171  1.0000
  H   H3753     1.0  0.48075  0.56101  0.01394  1.0000
  H   H3754     1.0  0.39637  0.96868  0.30741  1.0000
  H   H3755     1.0  0.41297  0.96915  0.31753  1.0000
  C   C2194     1.0  0.43228  0.78730  0.03579  1.0000
  C   C2195     1.0  0.52379  0.87830  0.26778  1.0000
  H   H3756     1.0  0.56760  0.94065  0.06790  1.0000
  H   H3757     1.0  0.43421  0.50288  0.01312  1.0000
  H   H3758     1.0  0.39592  0.52931  0.01894  1.0000
  H   H3759     1.0  0.54802  0.96619  0.15234  1.0000
  H   H3760     1.0  0.48686  0.58600  0.99122  1.0000
  H   H3761     1.0  0.49955  0.82239  0.99347  1.0000
  H   H3762     1.0  0.51198  0.97499  0.36465  1.0000
  H   H3763     1.0  0.49721  0.93251  0.27842  1.0000
  H   H3764     1.0  0.41123  0.95634  0.34763  1.0000
  H   H3765     1.0  0.55981  0.76615  0.02380  1.0000
  C   C2196     1.0  0.57075  0.78244  0.00293  1.0000
  C   C2197     1.0  0.43613  0.97617  0.30221  1.0000
  S   S636      1.0  0.54116  0.93714  0.30188  1.0000
  C   C2198     1.0  0.45627  0.65161  0.01536  1.0000
  H   H3766     1.0  0.52827  0.80614  0.99163  1.0000
  H   H3767     1.0  0.49177  0.64339  0.99475  1.0000
  H   H3768     1.0  0.55685  0.92553  0.16298  1.0000
  H   H3769     1.0  0.49139  0.97882  0.11079  1.0000
  H   H3770     1.0  0.42904  0.64332  0.01396  1.0000
  C   C2199     1.0  0.49431  0.96832  0.26930  1.0000
  C   C2200     1.0  0.49535  0.95955  0.30663  1.0000
  H   H3771     1.0  0.49642  0.55110  0.99109  1.0000
  N   N155      1.0  0.45790  0.95757  0.24068  1.0000
  C   C2201     1.0  0.44494  0.96772  0.24233  1.0000
  C   C2202     1.0  0.46825  0.96392  0.24183  1.0000
  C   C2203     1.0  0.45642  0.94565  0.25208  1.0000
  C   C2204     1.0  0.46069  0.95392  0.22736  1.0000
  C   C2205     1.0  0.43238  0.96297  0.24337  1.0000
  H   H3772     1.0  0.43271  0.88046  0.98281  1.0000
  C   C2206     1.0  0.46847  0.93391  0.25275  1.0000
  H   H3773     1.0  0.48782  0.56366  0.02594  1.0000
  H   H3774     1.0  0.44316  0.97160  0.25148  1.0000
  H   H3775     1.0  0.44513  0.97655  0.23386  1.0000
  H   H3776     1.0  0.47771  0.95674  0.24268  1.0000
  H   H3777     1.0  0.46514  0.96757  0.25128  1.0000
  H   H3778     1.0  0.45339  0.94873  0.26184  1.0000
  H   H3779     1.0  0.44843  0.94118  0.25173  1.0000
  H   H3780     1.0  0.54702  0.97505  0.35689  1.0000
  H   H3781     1.0  0.54863  0.97106  0.05065  1.0000
  H   H3782     1.0  0.43012  0.96988  0.18946  1.0000
  H   H3783     1.0  0.57661  0.95306  0.14205  1.0000
  C   C2207     1.0  0.38994  0.68215  0.00668  1.0000
  H   H3784     1.0  0.51415  0.95085  0.27969  1.0000
  C   C2208     1.0  0.40158  0.77629  0.03507  1.0000
  H   H3785     1.0  0.43236  0.52491  0.00088  1.0000
  H   H3786     1.0  0.47075  0.92887  0.24438  1.0000
  H   H3787     1.0  0.46583  0.92637  0.26194  1.0000
  C   C2209     1.0  0.55437  0.95012  0.37486  1.0000
  H   H3788     1.0  0.42257  0.90785  0.01595  1.0000
  C   C2210     1.0  0.56901  0.95181  0.11302  1.0000
  H   H3789     1.0  0.51010  0.92168  0.17485  1.0000
  H   H3790     1.0  0.54640  0.85300  0.07934  1.0000
  H   H3791     1.0  0.45079  0.82220  0.10972  1.0000
  H   H3792     1.0  0.57537  0.55662  0.99665  1.0000
  C   C2211     1.0  0.44157  0.58021  0.98565  1.0000
  H   H3793     1.0  0.49774  0.71555  0.98796  1.0000
  H   H3794     1.0  0.43819  0.91053  0.99028  1.0000
  H   H3795     1.0  0.58168  0.96588  0.29660  1.0000
  C   C2212     1.0  0.44403  0.75995  0.03909  1.0000
  H   H3796     1.0  0.53900  0.95961  0.25299  1.0000
  H   H3797     1.0  0.42367  0.70853  0.00962  1.0000
  N   N156      1.0  0.46830  0.87221  0.23247  1.0000
  S   S637      1.0  0.54322  0.88339  0.10764  1.0000
  S   S638      1.0  0.51386  0.92841  0.21632  1.0000
  S   S639      1.0  0.51378  0.92106  0.24827  1.0000
  S   S640      1.0  0.50509  0.95894  0.23150  1.0000
  H   H3798     1.0  0.46763  0.77653  0.03286  1.0000
  H   H3799     1.0  0.54158  0.95359  0.18389  1.0000
  S   S641      1.0  0.42523  0.84140  0.01758  1.0000
  C   C2213     1.0  0.55804  0.95675  0.07834  1.0000
  H   H3800     1.0  0.53163  0.84180  0.98626  1.0000
  H   H3801     1.0  0.54158  0.85975  0.10099  1.0000
  S   S642      1.0  0.51852  0.92692  0.14622  1.0000
  C   C2214     1.0  0.51360  0.96686  0.23746  1.0000
  C   C2215     1.0  0.52413  0.96288  0.33640  1.0000
  C   C2216     1.0  0.52029  0.92259  0.17223  1.0000
  H   H3802     1.0  0.52406  0.95474  0.33236  1.0000
  C   C2217     1.0  0.50428  0.96022  0.10766  1.0000
  S   S643      1.0  0.46067  0.68382  0.02514  1.0000
  H   H3803     1.0  0.47467  0.89720  0.28521  1.0000
  S   S644      1.0  0.51919  0.92684  0.33585  1.0000
  C   C2218     1.0  0.45581  0.88264  0.23082  1.0000
  S   S645      1.0  0.44352  0.61694  0.02583  1.0000
  Fe  Fe321     1.0  0.51668  0.93814  0.23090  1.0000
  H   H3804     1.0  0.49331  0.88378  0.27071  1.0000
  H   H3805     1.0  0.42194  0.96559  0.15084  1.0000
  H   H3806     1.0  0.44615  0.95019  0.14365  1.0000
  C   C2219     1.0  0.54667  0.60514  0.98282  1.0000
  Fe  Fe322     1.0  0.52740  0.90592  0.34570  1.0000
  H   H3807     1.0  0.42404  0.97177  0.24237  1.0000
  S   S646      1.0  0.55104  0.90839  0.12432  1.0000
  C   C2220     1.0  0.47751  0.79339  0.98651  1.0000
  C   C2221     1.0  0.52404  0.95933  0.24349  1.0000
  C   C2222     1.0  0.45700  0.83980  0.06743  1.0000
  S   S647      1.0  0.41642  0.73679  0.00028  1.0000
  C   C2223     1.0  0.56558  0.98133  0.35099  1.0000
  H   H3808     1.0  0.51824  0.97817  0.15334  1.0000
  C   C2224     1.0  0.47857  0.87309  0.21947  1.0000
  C   C2225     1.0  0.41656  0.94761  0.15202  1.0000
  C   C2226     1.0  0.53085  0.96550  0.24845  1.0000
  H   H3809     1.0  0.45182  0.88208  0.22256  1.0000
  C   C2227     1.0  0.42703  0.89763  0.02080  1.0000
  H   H3810     1.0  0.46216  0.93757  0.12747  1.0000
  Fe  Fe323     1.0  0.45127  0.73273  0.02537  1.0000
  C   C2228     1.0  0.53147  0.98297  0.33373  1.0000
  C   C2229     1.0  0.43562  0.87089  0.09297  1.0000
  H   H3811     1.0  0.51282  0.95968  0.11171  1.0000
  H   H3812     1.0  0.39079  0.95256  0.34975  1.0000
  H   H3813     1.0  0.43970  0.93924  0.13899  1.0000
  C   C2230     1.0  0.42739  0.95970  0.11963  1.0000
  C   C2231     1.0  0.51836  0.80915  0.98926  1.0000
  C   C2232     1.0  0.44110  0.78231  0.02499  1.0000
  C   C2233     1.0  0.55612  0.95717  0.15192  1.0000
  C   C2234     1.0  0.58242  0.96744  0.11085  1.0000
  H   H3814     1.0  0.45339  0.84614  0.23629  1.0000
  H   H3815     1.0  0.46022  0.95498  0.12060  1.0000
  C   C2235     1.0  0.45505  0.94667  0.12383  1.0000
  C   C2236     1.0  0.48727  0.87191  0.29929  1.0000
  H   H3816     1.0  0.45255  0.94498  0.11516  1.0000
  H   H3817     1.0  0.42854  0.69009  0.99815  1.0000
  H   H3818     1.0  0.43933  0.87907  0.01620  1.0000
  C   C2237     1.0  0.43083  0.87940  0.05444  1.0000
  H   H3819     1.0  0.56945  0.95076  0.17631  1.0000
  H   H3820     1.0  0.52675  0.94869  0.24452  1.0000
  C   C2238     1.0  0.52692  0.92499  0.15878  1.0000
  H   H3821     1.0  0.52175  0.91900  0.19267  1.0000
  H   H3822     1.0  0.42117  0.87122  0.01622  1.0000
  H   H3823     1.0  0.55486  0.95374  0.38347  1.0000
  C   C2239     1.0  0.45897  0.85363  0.22950  1.0000
  C   C2240     1.0  0.40115  0.67525  0.99661  1.0000
  C   C2241     1.0  0.55325  0.98009  0.06445  1.0000
  H   H3824     1.0  0.52818  0.68237  0.00018  1.0000
  C   C2242     1.0  0.56352  0.91219  0.39161  1.0000
  C   C2243     1.0  0.45069  0.86586  0.08845  1.0000
  H   H3825     1.0  0.47465  0.83858  0.08142  1.0000
  H   H3826     1.0  0.47392  0.84914  0.09165  1.0000
  H   H3827     1.0  0.49489  0.76217  0.04505  1.0000
  H   H3828     1.0  0.43494  0.96202  0.11033  1.0000
  C   C2244     1.0  0.43662  0.97290  0.12847  1.0000
  H   H3829     1.0  0.50046  0.90655  0.28860  1.0000
  H   H3830     1.0  0.41476  0.53481  0.98743  1.0000
  H   H3831     1.0  0.40296  0.97738  0.33029  1.0000
  Fe  Fe324     1.0  0.43419  0.81998  0.02568  1.0000
  C   C2245     1.0  0.52687  0.92116  0.18235  1.0000
  H   H3832     1.0  0.49546  0.96610  0.14648  1.0000
  H   H3833     1.0  0.42965  0.93758  0.12506  1.0000
  C   C2246     1.0  0.58552  0.89374  0.07691  1.0000
  H   H3834     1.0  0.49337  0.86193  0.30272  1.0000
  C   C2247     1.0  0.45126  0.88106  0.98616  1.0000
  H   H3835     1.0  0.41931  0.89285  0.02826  1.0000
  H   H3836     1.0  0.48132  0.94790  0.12898  1.0000
  C   C2248     1.0  0.45547  0.97518  0.16827  1.0000
  N   N157      1.0  0.42780  0.88767  0.00109  1.0000
  C   C2249     1.0  0.49134  0.96815  0.11486  1.0000
  H   H3837     1.0  0.57803  0.80463  0.02261  1.0000
  H   H3838     1.0  0.41260  0.63289  0.01252  1.0000
  H   H3839     1.0  0.49986  0.72198  0.00499  1.0000
  H   H3840     1.0  0.49006  0.77312  0.06967  1.0000
  H   H3841     1.0  0.46791  0.88651  0.20422  1.0000
  C   C2250     1.0  0.54016  0.92592  0.15548  1.0000
  H   H3842     1.0  0.58143  0.87604  0.43227  1.0000
  H   H3843     1.0  0.52401  0.97948  0.28973  1.0000
  C   C2251     1.0  0.41474  0.58045  0.02010  1.0000
  H   H3844     1.0  0.55701  0.95332  0.28145  1.0000
  C   C2252     1.0  0.41682  0.76907  0.01486  1.0000
  C   C2253     1.0  0.51383  0.87552  0.28122  1.0000
  C   C2254     1.0  0.47485  0.95065  0.27853  1.0000
  C   C2255     1.0  0.53955  0.95141  0.37588  1.0000
  H   H3845     1.0  0.46639  0.84897  0.22162  1.0000
  H   H3846     1.0  0.50345  0.95001  0.10812  1.0000
  H   H3847     1.0  0.49797  0.94358  0.13077  1.0000
  H   H3848     1.0  0.51523  0.89004  0.30392  1.0000
  N   N158      1.0  0.56186  0.95725  0.36187  1.0000
  H   H3849     1.0  0.55895  0.93928  0.37688  1.0000
  H   H3850     1.0  0.44303  0.78893  0.01530  1.0000
  H   H3851     1.0  0.42945  0.95653  0.25335  1.0000
  H   H3852     1.0  0.44967  0.82509  0.09284  1.0000
  C   C2256     1.0  0.40919  0.97023  0.21134  1.0000
  C   C2257     1.0  0.38738  0.92607  0.36804  1.0000
  H   H3853     1.0  0.42852  0.98324  0.29752  1.0000
  H   H3854     1.0  0.45148  0.86156  0.22492  1.0000
  C   C2258     1.0  0.43514  0.88909  0.01055  1.0000
  H   H3855     1.0  0.42608  0.94542  0.10933  1.0000
  C   C2259     1.0  0.57269  0.91191  0.36815  1.0000
  C   C2260     1.0  0.50465  0.94748  0.28300  1.0000
  H   H3856     1.0  0.41573  0.86938  0.99534  1.0000
  S   S648      1.0  0.53501  0.90200  0.22849  1.0000
  H   H3857     1.0  0.45902  0.79894  0.05667  1.0000
  C   C2261     1.0  0.47527  0.97230  0.13541  1.0000
  H   H3858     1.0  0.43736  0.50110  0.03533  1.0000
  H   H3859     1.0  0.50959  0.86732  0.28087  1.0000
  C   C2262     1.0  0.47375  0.87614  0.20641  1.0000
  H   H3860     1.0  0.50377  0.97172  0.26624  1.0000
  N   N159      1.0  0.40363  0.76864  0.02444  1.0000
  H   H3861     1.0  0.40305  0.50435  0.04075  1.0000
  C   C2263     1.0  0.52850  0.96906  0.19470  1.0000
  H   H3862     1.0  0.54784  0.90863  0.30312  1.0000
  H   H3863     1.0  0.52129  0.90421  0.29369  1.0000
  H   H3864     1.0  0.56273  0.94136  0.35265  1.0000
  Fe  Fe325     1.0  0.53582  0.92082  0.21258  1.0000
  H   H3865     1.0  0.48249  0.87545  0.19793  1.0000
  H   H3866     1.0  0.46799  0.86913  0.20637  1.0000
  N   N160      1.0  0.55672  0.97137  0.07734  1.0000
  H   H3867     1.0  0.53485  0.94736  0.38637  1.0000
  H   H3868     1.0  0.51757  0.70138  0.00613  1.0000
  H   H3869     1.0  0.48668  0.78870  0.99038  1.0000
  S   S649      1.0  0.47781  0.59211  0.03394  1.0000
  H   H3870     1.0  0.40255  0.51873  0.00087  1.0000
  S   S650      1.0  0.43866  0.61474  0.99750  1.0000
  C   C2264     1.0  0.57651  0.88116  0.10521  1.0000
  H   H3871     1.0  0.39138  0.75619  0.01103  1.0000
  H   H3872     1.0  0.53426  0.96189  0.37312  1.0000
  C   C2265     1.0  0.54760  0.90665  0.28363  1.0000
  C   C2266     1.0  0.57181  0.73833  0.98627  1.0000
  C   C2267     1.0  0.58017  0.75712  0.02376  1.0000
  H   H3873     1.0  0.56575  0.86676  0.11940  1.0000
  C   C2268     1.0  0.53997  0.92255  0.17905  1.0000
  H   H3874     1.0  0.40481  0.54352  0.00041  1.0000
  C   C2269     1.0  0.45703  0.97976  0.09290  1.0000
  H   H3875     1.0  0.57110  0.95238  0.26804  1.0000
  S   S651      1.0  0.53250  0.91176  0.36203  1.0000
  H   H3876     1.0  0.54537  0.92769  0.14512  1.0000
  C   C2270     1.0  0.56966  0.96108  0.14681  1.0000
  C   C2271     1.0  0.47923  0.75239  0.04708  1.0000
  H   H3877     1.0  0.40797  0.97531  0.18605  1.0000
  H   H3878     1.0  0.41153  0.78705  0.99944  1.0000
  H   H3879     1.0  0.52826  0.88860  0.28906  1.0000
  H   H3880     1.0  0.58363  0.80422  0.00505  1.0000
  H   H3881     1.0  0.52658  0.60395  0.98524  1.0000
  Fe  Fe326     1.0  0.53575  0.91394  0.24246  1.0000
  H   H3882     1.0  0.43660  0.96179  0.21052  1.0000
  H   H3883     1.0  0.54025  0.93237  0.25792  1.0000
  Fe  Fe327     1.0  0.53969  0.92630  0.32347  1.0000
  C   C2272     1.0  0.56087  0.96697  0.29687  1.0000
  H   H3884     1.0  0.54541  0.95339  0.19910  1.0000
  H   H3885     1.0  0.47228  0.96350  0.29162  1.0000
  H   H3886     1.0  0.39363  0.75325  0.03754  1.0000
  H   H3887     1.0  0.39145  0.97928  0.22458  1.0000
  S   S652      1.0  0.41146  0.60430  0.02710  1.0000
  H   H3888     1.0  0.47318  0.94042  0.28299  1.0000
  H   H3889     1.0  0.45343  0.76466  0.01823  1.0000
  H   H3890     1.0  0.49605  0.59345  0.00422  1.0000
  H   H3891     1.0  0.47319  0.97843  0.27067  1.0000
  C   C2273     1.0  0.39443  0.97199  0.21812  1.0000
  H   H3892     1.0  0.55966  0.97989  0.26346  1.0000
  N   N161      1.0  0.47655  0.77671  0.04863  1.0000
  H   H3893     1.0  0.42516  0.58041  0.01700  1.0000
  H   H3894     1.0  0.58191  0.89843  0.11497  1.0000
  C   C2274     1.0  0.45041  0.87035  0.03927  1.0000
  C   C2275     1.0  0.40181  0.94715  0.32631  1.0000
  H   H3895     1.0  0.48029  0.92042  0.13457  1.0000
  H   H3896     1.0  0.48562  0.92380  0.11663  1.0000
  H   H3897     1.0  0.48756  0.85381  0.06814  1.0000
  H   H3898     1.0  0.48553  0.93314  0.15096  1.0000
  C   C2276     1.0  0.55986  0.95246  0.35074  1.0000
  H   H3899     1.0  0.43003  0.86962  0.08633  1.0000
  C   C2277     1.0  0.56893  0.95066  0.06752  1.0000
  C   C2278     1.0  0.54521  0.91330  0.27093  1.0000
  C   C2279     1.0  0.58167  0.72688  0.98469  1.0000
  H   H3900     1.0  0.47861  0.75492  0.03645  1.0000
  N   N162      1.0  0.40836  0.66138  0.00213  1.0000
  C   C2280     1.0  0.57456  0.87066  0.11845  1.0000
  H   H3901     1.0  0.42871  0.78151  0.99948  1.0000
  C   C2281     1.0  0.42204  0.52851  0.00615  1.0000
  C   C2282     1.0  0.54664  0.92475  0.16559  1.0000
  C   C2283     1.0  0.49384  0.66166  0.99790  1.0000
  C   C2284     1.0  0.41952  0.65704  0.99100  1.0000
  C   C2285     1.0  0.39435  0.79110  0.03245  1.0000
  C   C2286     1.0  0.48180  0.90189  0.27679  1.0000
  H   H3902     1.0  0.56515  0.80463  0.99665  1.0000
  C   C2287     1.0  0.42526  0.50617  0.02067  1.0000
  H   H3903     1.0  0.46950  0.75099  0.05357  1.0000
  N   N163      1.0  0.50266  0.56846  0.99170  1.0000
  H   H3904     1.0  0.51460  0.92996  0.27494  1.0000
  H   H3905     1.0  0.51541  0.97608  0.12381  1.0000
  C   C2288     1.0  0.44686  0.76859  0.02661  1.0000
  C   C2289     1.0  0.50548  0.70659  0.98587  1.0000
  H   H3906     1.0  0.52451  0.96887  0.20554  1.0000
  S   S653      1.0  0.53885  0.93198  0.22607  1.0000
  H   H3907     1.0  0.39561  0.77170  0.04473  1.0000
  H   H3908     1.0  0.48467  0.87205  0.28996  1.0000
  H   H3909     1.0  0.52996  0.71055  0.99803  1.0000
  H   H3910     1.0  0.45977  0.65615  0.03229  1.0000
  Fe  Fe328     1.0  0.45038  0.62517  0.00393  1.0000
  C   C2290     1.0  0.56450  0.97448  0.16334  1.0000
  H   H3911     1.0  0.40628  0.50294  0.01096  1.0000
  H   H3912     1.0  0.48053  0.94689  0.29727  1.0000
  H   H3913     1.0  0.41527  0.94139  0.14602  1.0000
  S   S654      1.0  0.54812  0.92211  0.19142  1.0000
  C   C2291     1.0  0.50590  0.84395  0.99787  1.0000
  H   H3914     1.0  0.43352  0.88173  0.09260  1.0000
  C   C2292     1.0  0.42145  0.64917  0.02067  1.0000
  H   H3915     1.0  0.43942  0.84497  0.10182  1.0000
  H   H3916     1.0  0.58269  0.95763  0.35322  1.0000
  C   C2293     1.0  0.51788  0.96335  0.34966  1.0000
  C   C2294     1.0  0.47503  0.94688  0.22176  1.0000
  H   H3917     1.0  0.41312  0.94706  0.12404  1.0000
  H   H3918     1.0  0.38798  0.97463  0.21092  1.0000
  C   C2295     1.0  0.49920  0.96620  0.13562  1.0000
  H   H3919     1.0  0.53827  0.94515  0.27480  1.0000
  C   C2296     1.0  0.38678  0.57639  0.98835  1.0000
  N   N164      1.0  0.57497  0.96398  0.15706  1.0000
  H   H3920     1.0  0.53513  0.82588  0.98283  1.0000
  C   C2297     1.0  0.49432  0.96724  0.29225  1.0000
  C   C2298     1.0  0.41701  0.88048  0.00946  1.0000
  C   C2299     1.0  0.49516  0.89216  0.27361  1.0000
  H   H3921     1.0  0.43374  0.89860  0.02651  1.0000
  H   H3922     1.0  0.49543  0.65718  0.00818  1.0000
  N   N165      1.0  0.50299  0.88728  0.28439  1.0000
  H   H3923     1.0  0.51906  0.88095  0.25913  1.0000
  H   H3924     1.0  0.48314  0.66615  0.99897  1.0000
  C   C2300     1.0  0.54182  0.92720  0.26778  1.0000
  N   N166      1.0  0.51753  0.97368  0.18720  1.0000
  C   C2301     1.0  0.51978  0.71017  0.99812  1.0000
  C   C2302     1.0  0.42975  0.77867  0.04827  1.0000
  H   H3925     1.0  0.54423  0.61037  0.99076  1.0000
  C   C2303     1.0  0.48014  0.95515  0.28824  1.0000
  H   H3926     1.0  0.55804  0.57567  0.00184  1.0000
  C   C2304     1.0  0.46326  0.77708  0.05814  1.0000
  H   H3927     1.0  0.45531  0.86395  0.03230  1.0000
  H   H3928     1.0  0.46919  0.79240  0.03297  1.0000
  H   H3929     1.0  0.46415  0.77216  0.06861  1.0000
  H   H3930     1.0  0.44842  0.79368  0.04982  1.0000
  H   H3931     1.0  0.44670  0.79084  0.06767  1.0000
  H   H3932     1.0  0.55965  0.80302  0.01766  1.0000
  S   S655      1.0  0.54775  0.90490  0.33230  1.0000
  H   H3933     1.0  0.42432  0.92103  0.98454  1.0000
  S   S656      1.0  0.45064  0.74270  0.04156  1.0000
  H   H3934     1.0  0.44101  0.97322  0.13659  1.0000
  H   H3935     1.0  0.50040  0.87913  0.30571  1.0000
  Fe  Fe329     1.0  0.43318  0.60502  0.01920  1.0000
  C   C2305     1.0  0.48451  0.76259  0.05072  1.0000
  C   C2306     1.0  0.45390  0.79094  0.05792  1.0000
  H   H3936     1.0  0.48525  0.75867  0.06134  1.0000
  H   H3937     1.0  0.50599  0.94267  0.26374  1.0000
  H   H3938     1.0  0.41118  0.77578  0.03728  1.0000
  H   H3939     1.0  0.57456  0.97194  0.26860  1.0000
  H   H3940     1.0  0.39522  0.79571  0.04019  1.0000
  H   H3941     1.0  0.41855  0.96774  0.11790  1.0000
  C   C2307     1.0  0.47438  0.78172  0.03459  1.0000
  C   C2308     1.0  0.45269  0.97140  0.31528  1.0000
  H   H3942     1.0  0.49402  0.78610  0.02398  1.0000
  H   H3943     1.0  0.48416  0.78516  0.01362  1.0000
  C   C2309     1.0  0.40363  0.75425  0.03131  1.0000
  C   C2310     1.0  0.53179  0.82625  0.00373  1.0000
  H   H3944     1.0  0.57990  0.94224  0.36297  1.0000
  H   H3945     1.0  0.45369  0.84422  0.10746  1.0000
  C   C2311     1.0  0.43705  0.87101  0.04541  1.0000
  H   H3946     1.0  0.42211  0.51252  0.03956  1.0000
  S   S657      1.0  0.45046  0.58745  0.01842  1.0000
  Fe  Fe330     1.0  0.43510  0.73007  0.00774  1.0000
  S   S658      1.0  0.46093  0.97699  0.32387  1.0000
  H   H3947     1.0  0.44981  0.86042  0.06731  1.0000
  C   C2312     1.0  0.51038  0.72242  0.00302  1.0000
  C   C2313     1.0  0.48498  0.78341  0.06566  1.0000
  Fe  Fe331     1.0  0.44371  0.84040  0.00137  1.0000
  C   C2314     1.0  0.51699  0.56508  0.98471  1.0000
  C   C2315     1.0  0.38775  0.58010  0.02849  1.0000
  H   H3948     1.0  0.42289  0.78244  0.05662  1.0000
  C   C2316     1.0  0.51888  0.89490  0.29342  1.0000
  Fe  Fe332     1.0  0.46138  0.60025  0.02277  1.0000
  S   S659      1.0  0.42282  0.80372  0.03361  1.0000
  H   H3949     1.0  0.47282  0.96930  0.14641  1.0000
  H   H3950     1.0  0.42953  0.51186  0.98952  1.0000
  C   C2317     1.0  0.52847  0.83216  0.98983  1.0000
  C   C2318     1.0  0.40357  0.52219  0.02408  1.0000
  C   C2319     1.0  0.46978  0.78253  0.98904  1.0000
  H   H3951     1.0  0.54925  0.95526  0.35024  1.0000
  H   H3952     1.0  0.43215  0.82843  0.98597  1.0000
  C   C2320     1.0  0.39239  0.59069  0.02965  1.0000
  H   H3953     1.0  0.54268  0.82379  0.00257  1.0000
  H   H3954     1.0  0.51307  0.58686  0.99670  1.0000
  Fe  Fe333     1.0  0.55217  0.91281  0.34777  1.0000
  H   H3955     1.0  0.50686  0.96108  0.20394  1.0000
  C   C2321     1.0  0.53712  0.95507  0.19416  1.0000
  H   H3956     1.0  0.49210  0.77016  0.02318  1.0000
  H   H3957     1.0  0.49739  0.97088  0.19231  1.0000
  Fe  Fe334     1.0  0.52592  0.93255  0.35085  1.0000
  H   H3958     1.0  0.55559  0.91083  0.40035  1.0000
  C   C2322     1.0  0.58024  0.94293  0.10778  1.0000
  C   C2323     1.0  0.47027  0.84880  0.08300  1.0000
  H   H3959     1.0  0.56263  0.77832  0.00221  1.0000
  S   S660      1.0  0.57654  0.91562  0.40853  1.0000
  C   C2324     1.0  0.55644  0.97206  0.36038  1.0000
  H   H3960     1.0  0.48701  0.89155  0.30140  1.0000
  C   C2325     1.0  0.51393  0.98113  0.16308  1.0000
  H   H3961     1.0  0.52315  0.56963  0.98812  1.0000
  H   H3962     1.0  0.51944  0.94652  0.18660  1.0000
  H   H3963     1.0  0.44388  0.89342  0.00523  1.0000
  H   H3964     1.0  0.42119  0.66911  0.00895  1.0000
  S   S661      1.0  0.51313  0.94915  0.36054  1.0000
  H   H3965     1.0  0.53164  0.86915  0.26676  1.0000
  H   H3966     1.0  0.45667  0.64120  0.01999  1.0000
  C   C2326     1.0  0.40427  0.63739  0.00746  1.0000
  H   H3967     1.0  0.48295  0.91101  0.27887  1.0000
  S   S662      1.0  0.44684  0.74489  0.00577  1.0000
  H   H3968     1.0  0.40709  0.94965  0.15939  1.0000
  C   C2327     1.0  0.45041  0.84268  0.09910  1.0000
  C   C2328     1.0  0.47679  0.85816  0.07064  1.0000
  H   H3969     1.0  0.58306  0.86202  0.11886  1.0000
  H   H3970     1.0  0.55019  0.85782  0.99696  1.0000
  H   H3971     1.0  0.55521  0.95031  0.16188  1.0000
  C   C2329     1.0  0.54073  0.93440  0.27732  1.0000
  H   H3972     1.0  0.45533  0.86698  0.09606  1.0000
  Fe  Fe335     1.0  0.45647  0.59799  0.99721  1.0000
  S   S663      1.0  0.46872  0.60934  0.00134  1.0000
  Fe  Fe336     1.0  0.46386  0.73018  0.99708  1.0000
  C   C2330     1.0  0.45444  0.82766  0.09942  1.0000
  H   H3973     1.0  0.43183  0.86613  0.10351  1.0000
  H   H3974     1.0  0.55349  0.90823  0.37873  1.0000
  H   H3975     1.0  0.39345  0.56724  0.98537  1.0000
  H   H3976     1.0  0.43950  0.58276  0.99522  1.0000
  S   S664      1.0  0.54583  0.93407  0.33764  1.0000
  S   S665      1.0  0.45185  0.71628  0.99724  1.0000
  C   C2331     1.0  0.48408  0.78540  0.05106  1.0000
  H   H3977     1.0  0.56806  0.88986  0.10620  1.0000
  C   C2332     1.0  0.40590  0.59091  0.02545  1.0000
  H   H3978     1.0  0.57375  0.97690  0.34359  1.0000
  H   H3979     1.0  0.44733  0.97238  0.20019  1.0000
  H   H3980     1.0  0.46900  0.77700  0.99962  1.0000
  C   C2333     1.0  0.41711  0.72364  0.99325  1.0000
  H   H3981     1.0  0.40734  0.94112  0.33408  1.0000
  C   C2334     1.0  0.51710  0.97443  0.35449  1.0000
  H   H3982     1.0  0.50454  0.94114  0.29321  1.0000
  H   H3983     1.0  0.41241  0.75269  0.04840  1.0000
  H   H3984     1.0  0.55503  0.95926  0.29946  1.0000
  C   C2335     1.0  0.56845  0.97989  0.17326  1.0000
  C   C2336     1.0  0.54493  0.79188  0.02159  1.0000
  N   N167      1.0  0.57013  0.78244  0.01721  1.0000
  C   C2337     1.0  0.56790  0.57453  0.00384  1.0000
  C   C2338     1.0  0.47157  0.97572  0.23028  1.0000
  H   H3985     1.0  0.56947  0.58471  0.00194  1.0000
  C   C2339     1.0  0.39867  0.65233  0.00746  1.0000
  H   H3986     1.0  0.48769  0.95362  0.31138  1.0000
  C   C2340     1.0  0.57541  0.95946  0.29623  1.0000
  H   H3987     1.0  0.47914  0.97961  0.23234  1.0000
  H   H3988     1.0  0.50814  0.64498  0.99179  1.0000
  H   H3989     1.0  0.42307  0.53412  0.01302  1.0000
  H   H3990     1.0  0.54874  0.95445  0.07815  1.0000
  H   H3991     1.0  0.45158  0.67412  0.98661  1.0000
  H   H3992     1.0  0.56127  0.97106  0.11794  1.0000
  H   H3993     1.0  0.55379  0.97474  0.37030  1.0000
  S   S666      1.0  0.45202  0.64623  0.99331  1.0000
  H   H3994     1.0  0.47126  0.80007  0.99322  1.0000
  H   H3995     1.0  0.39076  0.65558  0.00168  1.0000
  H   H3996     1.0  0.57980  0.77539  0.99901  1.0000
  H   H3997     1.0  0.57497  0.89337  0.07889  1.0000
  C   C2341     1.0  0.57968  0.95611  0.37423  1.0000
  C   C2342     1.0  0.58287  0.78445  0.01876  1.0000
  H   H3998     1.0  0.39171  0.78445  0.01215  1.0000
  H   H3999     1.0  0.40743  0.63553  0.99722  1.0000
  C   C2343     1.0  0.57628  0.95311  0.36243  1.0000
  C   C2344     1.0  0.52817  0.68321  0.98963  1.0000
  H   H4000     1.0  0.40190  0.87095  0.00900  1.0000
  H   H4001     1.0  0.47833  0.81822  0.99160  1.0000
  H   H4002     1.0  0.51836  0.54460  0.98296  1.0000
  H   H4003     1.0  0.57587  0.95109  0.30513  1.0000
  H   H4004     1.0  0.40818  0.68195  0.99199  1.0000
  H   H4005     1.0  0.57520  0.96648  0.37538  1.0000
  H   H4006     1.0  0.45954  0.78691  0.98764  1.0000
  C   C2345     1.0  0.58517  0.91691  0.38130  1.0000
  C   C2346     1.0  0.42159  0.50624  0.99364  1.0000
  H   H4007     1.0  0.40367  0.88505  0.99557  1.0000
  C   C2347     1.0  0.44310  0.98043  0.30887  1.0000
  H   H4008     1.0  0.46507  0.95713  0.27721  1.0000
  C   C2348     1.0  0.54660  0.97552  0.08925  1.0000
  H   H4009     1.0  0.56585  0.79597  0.98469  1.0000
  N   N168      1.0  0.55814  0.97748  0.28460  1.0000
  H   H4010     1.0  0.39466  0.59613  0.00039  1.0000
  H   H4011     1.0  0.58099  0.97406  0.44229  1.0000
  H   H4012     1.0  0.40190  0.76649  0.99867  1.0000
  C   C2349     1.0  0.49439  0.56207  0.98718  1.0000
  H   H4013     1.0  0.51365  0.80047  0.99389  1.0000
  H   H4014     1.0  0.57804  0.95553  0.33533  1.0000
  C   C2350     1.0  0.52355  0.55013  0.98640  1.0000
  H   H4015     1.0  0.57512  0.87678  0.09753  1.0000
  C   C2351     1.0  0.57499  0.91517  0.39266  1.0000
  H   H4016     1.0  0.43125  0.98099  0.07981  1.0000
  H   H4017     1.0  0.52447  0.54542  0.99685  1.0000
  H   H4018     1.0  0.57328  0.97188  0.18061  1.0000
  H   H4019     1.0  0.55767  0.97149  0.30578  1.0000
  C   C2352     1.0  0.58585  0.57659  0.05114  1.0000
  H   H4020     1.0  0.48954  0.85388  0.98728  1.0000
  H   H4021     1.0  0.53676  0.67557  0.98599  1.0000
  C   C2353     1.0  0.58489  0.58692  0.03983  1.0000
  C   C2354     1.0  0.49830  0.65062  0.98993  1.0000
  C   C2355     1.0  0.56719  0.95784  0.33647  1.0000
  N   N169      1.0  0.51901  0.70867  0.98477  1.0000
  H   H4022     1.0  0.58398  0.97949  0.14279  1.0000
  C   C2356     1.0  0.58411  0.91505  0.36914  1.0000
  H   H4023     1.0  0.51917  0.68060  0.98905  1.0000
  H   H4024     1.0  0.57701  0.74770  0.02937  1.0000
  H   H4025     1.0  0.57967  0.95502  0.28734  1.0000
  H   H4026     1.0  0.38974  0.96190  0.46192  1.0000
  H   H4027     1.0  0.43424  0.97837  0.21308  1.0000
  C   C2357     1.0  0.50492  0.97882  0.12905  1.0000
  C   C2358     1.0  0.39144  0.97624  0.37337  1.0000
  C   C2359     1.0  0.54334  0.97622  0.05895  1.0000
  H   H4028     1.0  0.48371  0.56553  0.99146  1.0000
  H   H4029     1.0  0.38998  0.97874  0.36301  1.0000
  H   H4030     1.0  0.41673  0.89943  0.98614  1.0000
  H   H4031     1.0  0.41705  0.50727  0.98517  1.0000
  C   C2360     1.0  0.39273  0.76652  0.00660  1.0000
  H   H4032     1.0  0.39638  0.63181  0.01294  1.0000
  H   H4033     1.0  0.58105  0.79698  0.98779  1.0000
  H   H4034     1.0  0.38838  0.96682  0.37890  1.0000
  H   H4035     1.0  0.39340  0.65298  0.01791  1.0000
  C   C2361     1.0  0.57824  0.95186  0.16792  1.0000
  H   H4036     1.0  0.58384  0.78057  0.02937  1.0000
  C   C2362     1.0  0.43208  0.57600  0.98211  1.0000
  H   H4037     1.0  0.40222  0.97404  0.37295  1.0000
  C   C2363     1.0  0.58478  0.79885  0.01523  1.0000
  C   C2364     1.0  0.58322  0.93823  0.16393  1.0000
  C   C2365     1.0  0.55338  0.85331  0.98839  1.0000
  H   H4038     1.0  0.56859  0.96997  0.13847  1.0000
  H   H4039     1.0  0.57523  0.93508  0.16181  1.0000
  H   H4040     1.0  0.51199  0.62669  0.98315  1.0000
  H   H4041     1.0  0.58315  0.87042  0.41206  1.0000
  H   H4042     1.0  0.58025  0.87005  0.39268  1.0000
  H   H4043     1.0  0.58141  0.88770  0.40801  1.0000
  H   H4044     1.0  0.38702  0.94842  0.47576  1.0000
  H   H4045     1.0  0.58581  0.95299  0.17251  1.0000
  H   H4046     1.0  0.58648  0.93054  0.17249  1.0000
  H   H4047     1.0  0.50494  0.98372  0.13691  1.0000
  Fe  Fe337     1.0  0.47132  0.82625  0.90013  1.0000
  H   H4048     1.0  0.42628  0.77769  0.97391  1.0000
  S   S667      1.0  0.49047  0.83272  0.89466  1.0000
  Fe  Fe338     1.0  0.45862  0.80438  0.90003  1.0000
  H   H4049     1.0  0.47627  0.91197  0.88326  1.0000
  C   C2366     1.0  0.39218  0.61223  0.97389  1.0000
  C   C2367     1.0  0.54986  0.86049  0.97621  1.0000
  S   S668      1.0  0.46458  0.82184  0.88423  1.0000
  S   S669      1.0  0.46726  0.80782  0.91519  1.0000
  Fe  Fe339     1.0  0.52759  0.83612  0.93782  1.0000
  S   S670      1.0  0.53059  0.85675  0.92914  1.0000
  S   S671      1.0  0.50660  0.83412  0.94599  1.0000
  Fe  Fe340     1.0  0.55672  0.82379  0.92931  1.0000
  S   S672      1.0  0.56209  0.84372  0.91976  1.0000
  S   S673      1.0  0.57174  0.80461  0.92768  1.0000
  Fe  Fe341     1.0  0.54825  0.84974  0.93826  1.0000
  S   S674      1.0  0.54966  0.86363  0.94983  1.0000
  Fe  Fe342     1.0  0.54380  0.84870  0.91168  1.0000
  S   S675      1.0  0.53914  0.85920  0.89162  1.0000
  S   S676      1.0  0.54425  0.82945  0.94847  1.0000
  S   S677      1.0  0.53964  0.82831  0.91979  1.0000
  H   H4050     1.0  0.48802  0.90944  0.86792  1.0000
  S   S678      1.0  0.48227  0.94477  0.80198  1.0000
  C   C2368     1.0  0.45286  0.90988  0.64338  1.0000
  S   S679      1.0  0.46526  0.58739  0.98047  1.0000
  H   H4051     1.0  0.50988  0.84420  0.89800  1.0000
  Fe  Fe343     1.0  0.46441  0.93599  0.80900  1.0000
  H   H4052     1.0  0.47139  0.75479  0.90570  1.0000
  H   H4053     1.0  0.48658  0.92192  0.78759  1.0000
  Fe  Fe344     1.0  0.54787  0.94208  0.82413  1.0000
  S   S680      1.0  0.55982  0.94173  0.83858  1.0000
  S   S681      1.0  0.54980  0.95342  0.80249  1.0000
  Fe  Fe345     1.0  0.52809  0.92859  0.84608  1.0000
  S   S682      1.0  0.53784  0.92722  0.86236  1.0000
  S   S683      1.0  0.51003  0.92056  0.85048  1.0000
  Fe  Fe346     1.0  0.54027  0.94792  0.85211  1.0000
  C   C2369     1.0  0.43258  0.98060  0.71144  1.0000
  Fe  Fe347     1.0  0.55647  0.92092  0.84773  1.0000
  S   S684      1.0  0.57080  0.90317  0.85651  1.0000
  S   S685      1.0  0.52865  0.94994  0.83712  1.0000
  S   S686      1.0  0.54640  0.92068  0.83206  1.0000
  H   H4054     1.0  0.49907  0.87381  0.85946  1.0000
  S   S687      1.0  0.43921  0.94608  0.60009  1.0000
  H   H4055     1.0  0.47591  0.89141  0.86818  1.0000
  H   H4056     1.0  0.49170  0.89563  0.89428  1.0000
  S   S688      1.0  0.43119  0.93831  0.57579  1.0000
  Fe  Fe348     1.0  0.44721  0.82030  0.92163  1.0000
  Fe  Fe349     1.0  0.43745  0.92781  0.59524  1.0000
  S   S689      1.0  0.45407  0.90960  0.59657  1.0000
  H   H4057     1.0  0.43924  0.69484  0.86983  1.0000
  C   C2370     1.0  0.41479  0.72620  0.98045  1.0000
  S   S690      1.0  0.41658  0.92800  0.60737  1.0000
  C   C2371     1.0  0.47065  0.86813  0.89603  1.0000
  C   C2372     1.0  0.39988  0.92164  0.55207  1.0000
  H   H4058     1.0  0.47172  0.85769  0.90188  1.0000
  H   H4059     1.0  0.55125  0.97563  0.64022  1.0000
  Fe  Fe350     1.0  0.40914  0.59699  0.92010  1.0000
  H   H4060     1.0  0.49558  0.87964  0.91427  1.0000
  Fe  Fe351     1.0  0.45627  0.92470  0.69958  1.0000
  S   S691      1.0  0.47741  0.91371  0.69686  1.0000
  S   S692      1.0  0.43879  0.91677  0.71298  1.0000
  Fe  Fe352     1.0  0.51137  0.91418  0.62676  1.0000
  S   S693      1.0  0.51346  0.91884  0.64523  1.0000
  S   S694      1.0  0.49848  0.90033  0.62836  1.0000
  Fe  Fe353     1.0  0.53225  0.92901  0.60819  1.0000
  S   S695      1.0  0.53633  0.93467  0.62502  1.0000
  S   S696      1.0  0.54042  0.93788  0.58658  1.0000
  Fe  Fe354     1.0  0.53518  0.91401  0.63647  1.0000
  S   S697      1.0  0.55039  0.90182  0.64826  1.0000
  Fe  Fe355     1.0  0.51433  0.93913  0.63225  1.0000
  S   S698      1.0  0.50569  0.95838  0.63885  1.0000
  S   S699      1.0  0.53321  0.90766  0.61889  1.0000
  S   S700      1.0  0.51013  0.93500  0.61461  1.0000
  Fe  Fe356     1.0  0.54226  0.92785  0.74306  1.0000
  S   S701      1.0  0.52161  0.94013  0.74414  1.0000
  S   S702      1.0  0.55277  0.92069  0.76014  1.0000
  Fe  Fe357     1.0  0.54451  0.92341  0.71543  1.0000
  S   S703      1.0  0.52419  0.93538  0.71411  1.0000
  S   S704      1.0  0.55905  0.91322  0.69974  1.0000
  Fe  Fe358     1.0  0.52920  0.94953  0.72276  1.0000
  H   H4061     1.0  0.55115  0.68334  0.95860  1.0000
  Fe  Fe359     1.0  0.51830  0.92496  0.73547  1.0000
  S   S705      1.0  0.49920  0.91827  0.74390  1.0000
  S   S706      1.0  0.55026  0.93856  0.72226  1.0000
  S   S707      1.0  0.53824  0.91167  0.73621  1.0000
  C   C2373     1.0  0.42761  0.75829  0.95991  1.0000
  Fe  Fe360     1.0  0.54572  0.61094  0.91524  1.0000
  S   S708      1.0  0.54547  0.61549  0.93454  1.0000
  S   S709      1.0  0.56578  0.60257  0.90329  1.0000
  Fe  Fe361     1.0  0.51585  0.62029  0.91830  1.0000
  S   S710      1.0  0.51340  0.62490  0.93817  1.0000
  S   S711      1.0  0.49708  0.62784  0.91026  1.0000
  Fe  Fe362     1.0  0.53087  0.63424  0.92878  1.0000
  S   S712      1.0  0.52815  0.65277  0.93627  1.0000
  Fe  Fe363     1.0  0.52814  0.60588  0.94240  1.0000
  S   S713      1.0  0.52647  0.59357  0.96327  1.0000
  S   S714      1.0  0.53261  0.63091  0.90848  1.0000
  S   S715      1.0  0.52909  0.60004  0.92350  1.0000
  Fe  Fe364     1.0  0.55559  0.74491  0.91545  1.0000
  S   S716      1.0  0.54684  0.74436  0.93716  1.0000
  S   S717      1.0  0.56049  0.76394  0.90150  1.0000
  Fe  Fe365     1.0  0.55500  0.71559  0.91836  1.0000
  S   S718      1.0  0.54628  0.71299  0.94035  1.0000
  S   S719      1.0  0.55942  0.69875  0.90773  1.0000
  Fe  Fe366     1.0  0.53339  0.73309  0.93461  1.0000
  S   S720      1.0  0.51144  0.73783  0.94223  1.0000
  Fe  Fe367     1.0  0.56074  0.72435  0.94046  1.0000
  S   S721      1.0  0.57401  0.71572  0.95507  1.0000
  S   S722      1.0  0.54110  0.73506  0.91258  1.0000
  S   S723      1.0  0.57055  0.72561  0.91879  1.0000
  Fe  Fe368     1.0  0.43823  0.59665  0.91734  1.0000
  S   S724      1.0  0.42110  0.61298  0.91142  1.0000
  S   S725      1.0  0.45979  0.59286  0.90672  1.0000
  H   H4062     1.0  0.43413  0.72159  0.88363  1.0000
  N   N170      1.0  0.39597  0.54636  0.95177  1.0000
  H   H4063     1.0  0.53137  0.91399  0.78120  1.0000
  C   C2374     1.0  0.57270  0.97019  0.82315  1.0000
  S   S726      1.0  0.42666  0.58039  0.92411  1.0000
  S   S727      1.0  0.43468  0.60038  0.93770  1.0000
  C   C2375     1.0  0.44238  0.91965  0.77333  1.0000
  H   H4064     1.0  0.46416  0.76751  0.93597  1.0000
  H   H4065     1.0  0.51825  0.62550  0.96612  1.0000
  S   S728      1.0  0.45527  0.68365  0.94006  1.0000
  H   H4066     1.0  0.50794  0.90550  0.76901  1.0000
  Fe  Fe369     1.0  0.46462  0.70129  0.93201  1.0000
  S   S729      1.0  0.48662  0.69716  0.92971  1.0000
  H   H4067     1.0  0.45326  0.79862  0.96449  1.0000
  C   C2376     1.0  0.45859  0.96924  0.57908  1.0000
  H   H4068     1.0  0.51937  0.81098  0.97832  1.0000
  C   C2377     1.0  0.52107  0.72095  0.97406  1.0000
  H   H4069     1.0  0.56045  0.91439  0.59465  1.0000
  H   H4070     1.0  0.44173  0.96549  0.64797  1.0000
  H   H4071     1.0  0.46718  0.87437  0.90351  1.0000
  C   C2378     1.0  0.46871  0.94929  0.64411  1.0000
  C   C2379     1.0  0.41382  0.93119  0.64741  1.0000
  H   H4072     1.0  0.51500  0.90903  0.80550  1.0000
  C   C2380     1.0  0.41732  0.94161  0.66713  1.0000
  S   S730      1.0  0.41872  0.91790  0.68567  1.0000
  H   H4073     1.0  0.49993  0.91783  0.80089  1.0000
  C   C2381     1.0  0.55823  0.66236  0.95804  1.0000
  H   H4074     1.0  0.48726  0.89633  0.65815  1.0000
  C   C2382     1.0  0.50429  0.72694  0.93842  1.0000
  C   C2383     1.0  0.49059  0.72805  0.94209  1.0000
  C   C2384     1.0  0.48496  0.71913  0.93921  1.0000
  C   C2385     1.0  0.49309  0.70897  0.93288  1.0000
  C   C2386     1.0  0.50676  0.70796  0.92917  1.0000
  C   C2387     1.0  0.51233  0.71700  0.93182  1.0000
  H   H4075     1.0  0.48438  0.73564  0.94736  1.0000
  H   H4076     1.0  0.47442  0.71993  0.94210  1.0000
  H   H4077     1.0  0.51307  0.70019  0.92420  1.0000
  H   H4078     1.0  0.52287  0.71622  0.92879  1.0000
  C   C2388     1.0  0.48698  0.61781  0.90931  1.0000
  C   C2389     1.0  0.47382  0.62375  0.90829  1.0000
  C   C2390     1.0  0.46525  0.61606  0.90815  1.0000
  C   C2391     1.0  0.46992  0.60245  0.90843  1.0000
  C   C2392     1.0  0.48311  0.59654  0.90933  1.0000
  C   C2393     1.0  0.49154  0.60412  0.91005  1.0000
  H   H4079     1.0  0.47018  0.63432  0.90776  1.0000
  H   H4080     1.0  0.45516  0.62074  0.90734  1.0000
  H   H4081     1.0  0.48681  0.58603  0.90947  1.0000
  H   H4082     1.0  0.50163  0.59943  0.91087  1.0000
  C   C2394     1.0  0.53666  0.66551  0.92764  1.0000
  C   C2395     1.0  0.54630  0.66466  0.91584  1.0000
  C   C2396     1.0  0.55314  0.67500  0.90962  1.0000
  C   C2397     1.0  0.55037  0.68615  0.91519  1.0000
  C   C2398     1.0  0.54062  0.68696  0.92688  1.0000
  C   C2399     1.0  0.53377  0.67674  0.93303  1.0000
  H   H4083     1.0  0.54859  0.65601  0.91160  1.0000
  H   H4084     1.0  0.56070  0.67430  0.90056  1.0000
  H   H4085     1.0  0.53826  0.69550  0.93116  1.0000
  H   H4086     1.0  0.52614  0.67764  0.94197  1.0000
  C   C2400     1.0  0.53944  0.59556  0.96883  1.0000
  C   C2401     1.0  0.55249  0.59255  0.96159  1.0000
  H   H4087     1.0  0.47484  0.98330  0.65260  1.0000
  H   H4088     1.0  0.55469  0.58799  0.95315  1.0000
  Fe  Fe370     1.0  0.41812  0.94713  0.61090  1.0000
  C   C2402     1.0  0.43989  0.82568  0.95345  1.0000
  C   C2403     1.0  0.38870  0.52925  0.97348  1.0000
  C   C2404     1.0  0.57212  0.58532  0.90843  1.0000
  C   C2405     1.0  0.56539  0.57771  0.91981  1.0000
  C   C2406     1.0  0.42121  0.71150  0.90132  1.0000
  C   C2407     1.0  0.58421  0.57916  0.90119  1.0000
  H   H4089     1.0  0.55613  0.58234  0.92551  1.0000
  H   H4090     1.0  0.58312  0.60616  0.93538  1.0000
  C   C2408     1.0  0.48683  0.81216  0.97238  1.0000
  Fe  Fe371     1.0  0.42191  0.58555  0.94405  1.0000
  H   H4091     1.0  0.46280  0.87024  0.89041  1.0000
  H   H4092     1.0  0.40603  0.57362  0.90188  1.0000
  C   C2409     1.0  0.55600  0.93041  0.57804  1.0000
  C   C2410     1.0  0.56388  0.91893  0.58427  1.0000
  C   C2411     1.0  0.57289  0.93058  0.55739  1.0000
  C   C2412     1.0  0.56048  0.93613  0.56456  1.0000
  C   C2413     1.0  0.39081  0.93620  0.56780  1.0000
  H   H4093     1.0  0.55433  0.94488  0.55962  1.0000
  C   C2414     1.0  0.55247  0.90706  0.66161  1.0000
  C   C2415     1.0  0.56462  0.90201  0.66535  1.0000
  C   C2416     1.0  0.56643  0.90436  0.67686  1.0000
  C   C2417     1.0  0.55607  0.91164  0.68493  1.0000
  C   C2418     1.0  0.54387  0.91696  0.68117  1.0000
  C   C2419     1.0  0.54209  0.91477  0.66940  1.0000
  H   H4094     1.0  0.57263  0.89598  0.65946  1.0000
  H   H4095     1.0  0.57588  0.90025  0.67968  1.0000
  H   H4096     1.0  0.53580  0.92248  0.68746  1.0000
  H   H4097     1.0  0.53261  0.91858  0.66664  1.0000
  Fe  Fe372     1.0  0.43137  0.95664  0.58174  1.0000
  Fe  Fe373     1.0  0.41043  0.94034  0.58821  1.0000
  H   H4098     1.0  0.52274  0.91841  0.76813  1.0000
  H   H4099     1.0  0.51988  0.95847  0.61178  1.0000
  C   C2420     1.0  0.52127  0.91715  0.77911  1.0000
  C   C2421     1.0  0.48337  0.91466  0.71012  1.0000
  C   C2422     1.0  0.47485  0.91574  0.72253  1.0000
  C   C2423     1.0  0.47978  0.91644  0.73309  1.0000
  C   C2424     1.0  0.49320  0.91620  0.73117  1.0000
  C   C2425     1.0  0.50168  0.91508  0.71878  1.0000
  C   C2426     1.0  0.49674  0.91449  0.70824  1.0000
  H   H4100     1.0  0.46447  0.91596  0.72401  1.0000
  H   H4101     1.0  0.47316  0.91737  0.74265  1.0000
  H   H4102     1.0  0.51204  0.91473  0.71729  1.0000
  H   H4103     1.0  0.50321  0.91420  0.69854  1.0000
  C   C2427     1.0  0.46658  0.90799  0.60491  1.0000
  C   C2428     1.0  0.46963  0.91891  0.60732  1.0000
  C   C2429     1.0  0.47981  0.91686  0.61407  1.0000
  C   C2430     1.0  0.48676  0.90390  0.61855  1.0000
  C   C2431     1.0  0.48375  0.89313  0.61599  1.0000
  C   C2432     1.0  0.47385  0.89518  0.60911  1.0000
  H   H4104     1.0  0.46423  0.92886  0.60393  1.0000
  H   H4105     1.0  0.48200  0.92523  0.61613  1.0000
  H   H4106     1.0  0.48904  0.88310  0.61945  1.0000
  H   H4107     1.0  0.47163  0.88672  0.60722  1.0000
  C   C2433     1.0  0.51596  0.93108  0.78240  1.0000
  C   C2434     1.0  0.45518  0.77189  0.90427  1.0000
  H   H4108     1.0  0.41416  0.66820  0.97192  1.0000
  H   H4109     1.0  0.53053  0.91969  0.91223  1.0000
  H   H4110     1.0  0.40239  0.95710  0.55174  1.0000
  H   H4111     1.0  0.46661  0.89362  0.88408  1.0000
  H   H4112     1.0  0.45142  0.83758  0.93716  1.0000
  C   C2435     1.0  0.50322  0.90678  0.77937  1.0000
  H   H4113     1.0  0.50575  0.64675  0.95761  1.0000
  H   H4114     1.0  0.54174  0.98126  0.66169  1.0000
  S   S731      1.0  0.46570  0.78318  0.89732  1.0000
  H   H4115     1.0  0.47074  0.91467  0.86821  1.0000
  C   C2436     1.0  0.55030  0.80271  0.88094  1.0000
  H   H4116     1.0  0.54439  0.98033  0.78504  1.0000
  N   N171      1.0  0.51344  0.90661  0.78661  1.0000
  H   H4117     1.0  0.41583  0.96028  0.65272  1.0000
  H   H4118     1.0  0.55062  0.66522  0.95195  1.0000
  H   H4119     1.0  0.41005  0.92304  0.56628  1.0000
  C   C2437     1.0  0.45274  0.74889  0.91240  1.0000
  H   H4120     1.0  0.42764  0.53320  0.95894  1.0000
  C   C2438     1.0  0.54998  0.94436  0.79091  1.0000
  C   C2439     1.0  0.55412  0.93050  0.79357  1.0000
  C   C2440     1.0  0.55489  0.92344  0.78403  1.0000
  C   C2441     1.0  0.55124  0.93011  0.77186  1.0000
  C   C2442     1.0  0.54676  0.94395  0.76927  1.0000
  C   C2443     1.0  0.54632  0.95108  0.77870  1.0000
  H   H4121     1.0  0.55717  0.92523  0.80281  1.0000
  H   H4122     1.0  0.55844  0.91274  0.78607  1.0000
  H   H4123     1.0  0.54384  0.94915  0.75995  1.0000
  H   H4124     1.0  0.54317  0.96178  0.77649  1.0000
  H   H4125     1.0  0.49203  0.86190  0.88989  1.0000
  S   S732      1.0  0.44744  0.93290  0.68161  1.0000
  H   H4126     1.0  0.47168  0.88415  0.66201  1.0000
  H   H4127     1.0  0.48370  0.86781  0.87694  1.0000
  H   H4128     1.0  0.40580  0.68855  0.89890  1.0000
  H   H4129     1.0  0.58594  0.67220  0.93364  1.0000
  C   C2444     1.0  0.49082  0.93747  0.81481  1.0000
  C   C2445     1.0  0.48605  0.92776  0.82547  1.0000
  C   C2446     1.0  0.49215  0.92237  0.83627  1.0000
  C   C2447     1.0  0.50332  0.92639  0.83630  1.0000
  C   C2448     1.0  0.50869  0.93543  0.82522  1.0000
  C   C2449     1.0  0.50229  0.94118  0.81456  1.0000
  H   H4130     1.0  0.47761  0.92434  0.82555  1.0000
  H   H4131     1.0  0.48808  0.91518  0.84460  1.0000
  H   H4132     1.0  0.51771  0.93805  0.82482  1.0000
  H   H4133     1.0  0.50623  0.94846  0.80618  1.0000
  C   C2450     1.0  0.55407  0.85471  0.96505  1.0000
  C   C2451     1.0  0.56176  0.84175  0.96608  1.0000
  H   H4134     1.0  0.56516  0.83728  0.95748  1.0000
  C   C2452     1.0  0.54851  0.87077  0.88142  1.0000
  C   C2453     1.0  0.56138  0.86979  0.88251  1.0000
  C   C2454     1.0  0.56847  0.87945  0.87440  1.0000
  C   C2455     1.0  0.56259  0.89023  0.86542  1.0000
  C   C2456     1.0  0.54979  0.89105  0.86426  1.0000
  C   C2457     1.0  0.54285  0.88127  0.87211  1.0000
  H   H4135     1.0  0.56587  0.86161  0.88957  1.0000
  H   H4136     1.0  0.54953  0.97871  0.69520  1.0000
  H   H4137     1.0  0.54520  0.89926  0.85732  1.0000
  H   H4138     1.0  0.53293  0.88203  0.87117  1.0000
  C   C2458     1.0  0.56761  0.79433  0.91994  1.0000
  H   H4139     1.0  0.49242  0.97433  0.83628  1.0000
  H   H4140     1.0  0.56992  0.75687  0.93502  1.0000
  C   C2459     1.0  0.56313  0.77543  0.90894  1.0000
  C   C2460     1.0  0.55448  0.77900  0.92051  1.0000
  C   C2461     1.0  0.55660  0.78860  0.92588  1.0000
  C   C2462     1.0  0.57379  0.78161  0.90272  1.0000
  H   H4141     1.0  0.52354  0.63653  0.97218  1.0000
  H   H4142     1.0  0.54616  0.77437  0.92536  1.0000
  H   H4143     1.0  0.55001  0.79118  0.93493  1.0000
  S   S733      1.0  0.52312  0.97095  0.71291  1.0000
  H   H4144     1.0  0.40231  0.52691  0.94653  1.0000
  C   C2463     1.0  0.39686  0.53715  0.94300  1.0000
  H   H4145     1.0  0.52924  0.98384  0.65284  1.0000
  S   S734      1.0  0.46558  0.91433  0.81170  1.0000
  C   C2464     1.0  0.42295  0.75292  0.95044  1.0000
  H   H4146     1.0  0.55751  0.95389  0.67356  1.0000
  H   H4147     1.0  0.42289  0.75988  0.94059  1.0000
  H   H4148     1.0  0.48565  0.91181  0.66216  1.0000
  H   H4149     1.0  0.42969  0.70357  0.90423  1.0000
  C   C2465     1.0  0.49344  0.83516  0.90894  1.0000
  C   C2466     1.0  0.48544  0.83142  0.92153  1.0000
  C   C2467     1.0  0.48882  0.83215  0.93301  1.0000
  C   C2468     1.0  0.50028  0.83639  0.93188  1.0000
  C   C2469     1.0  0.50741  0.84139  0.91920  1.0000
  C   C2470     1.0  0.50408  0.84067  0.90775  1.0000
  H   H4150     1.0  0.47685  0.82768  0.92248  1.0000
  H   H4151     1.0  0.48277  0.82909  0.94269  1.0000
  H   H4152     1.0  0.51564  0.84567  0.91815  1.0000
  N   N172      1.0  0.55169  0.89805  0.90779  1.0000
  C   C2471     1.0  0.56605  0.89098  0.90671  1.0000
  C   C2472     1.0  0.55060  0.90776  0.89461  1.0000
  C   C2473     1.0  0.54368  0.88770  0.91034  1.0000
  C   C2474     1.0  0.54764  0.90489  0.91931  1.0000
  C   C2475     1.0  0.43206  0.95481  0.53839  1.0000
  H   H4153     1.0  0.41344  0.60436  0.96729  1.0000
  C   C2476     1.0  0.53043  0.89236  0.90583  1.0000
  C   C2477     1.0  0.53363  0.91381  0.92155  1.0000
  H   H4154     1.0  0.56986  0.88688  0.89752  1.0000
  H   H4155     1.0  0.57232  0.89800  0.90572  1.0000
  H   H4156     1.0  0.58157  0.65035  0.93214  1.0000
  H   H4157     1.0  0.49180  0.97974  0.79521  1.0000
  H   H4158     1.0  0.54942  0.87951  0.90515  1.0000
  H   H4159     1.0  0.54154  0.88280  0.92116  1.0000
  H   H4160     1.0  0.54801  0.89740  0.92890  1.0000
  C   C2478     1.0  0.49579  0.56474  0.97193  1.0000
  C   C2479     1.0  0.46865  0.80691  0.96658  1.0000
  H   H4161     1.0  0.55808  0.96588  0.56527  1.0000
  C   C2480     1.0  0.51622  0.97729  0.67651  1.0000
  C   C2481     1.0  0.57041  0.81770  0.88159  1.0000
  H   H4162     1.0  0.54591  0.84610  0.85639  1.0000
  H   H4163     1.0  0.47878  0.59760  0.95285  1.0000
  H   H4164     1.0  0.53206  0.89494  0.89476  1.0000
  H   H4165     1.0  0.52376  0.90084  0.90996  1.0000
  H   H4166     1.0  0.46075  0.96422  0.65551  1.0000
  H   H4167     1.0  0.43193  0.72677  0.89867  1.0000
  H   H4168     1.0  0.53702  0.97034  0.59735  1.0000
  N   N173      1.0  0.52831  0.96784  0.67053  1.0000
  H   H4169     1.0  0.46912  0.86770  0.82078  1.0000
  H   H4170     1.0  0.41869  0.94574  0.67465  1.0000
  H   H4171     1.0  0.48227  0.83134  0.97773  1.0000
  H   H4172     1.0  0.45978  0.88729  0.68090  1.0000
  H   H4173     1.0  0.49264  0.89579  0.80622  1.0000
  H   H4174     1.0  0.47365  0.64389  0.92607  1.0000
  C   C2482     1.0  0.40947  0.54586  0.95369  1.0000
  C   C2483     1.0  0.46731  0.97315  0.58401  1.0000
  C   C2484     1.0  0.44847  0.90392  0.66768  1.0000
  C   C2485     1.0  0.57288  0.72451  0.96708  1.0000
  H   H4175     1.0  0.45831  0.95426  0.87402  1.0000
  H   H4176     1.0  0.42171  0.86818  0.83121  1.0000
  H   H4177     1.0  0.54086  0.96450  0.64281  1.0000
  H   H4178     1.0  0.44866  0.57219  0.95077  1.0000
  H   H4179     1.0  0.49606  0.96025  0.75587  1.0000
  H   H4180     1.0  0.41295  0.65747  0.94757  1.0000
  H   H4181     1.0  0.43419  0.62953  0.95293  1.0000
  C   C2486     1.0  0.41558  0.65781  0.97794  1.0000
  H   H4182     1.0  0.45159  0.73673  0.97345  1.0000
  H   H4183     1.0  0.55549  0.62734  0.95431  1.0000
  C   C2487     1.0  0.52195  0.89668  0.59371  1.0000
  C   C2488     1.0  0.50351  0.75974  0.97510  1.0000
  C   C2489     1.0  0.54334  0.97392  0.86344  1.0000
  H   H4184     1.0  0.47868  0.94454  0.71761  1.0000
  C   C2490     1.0  0.49731  0.93806  0.58138  1.0000
  C   C2491     1.0  0.46383  0.87829  0.81956  1.0000
  H   H4185     1.0  0.41241  0.92715  0.63983  1.0000
  H   H4186     1.0  0.47247  0.98014  0.82652  1.0000
  H   H4187     1.0  0.47703  0.96427  0.61134  1.0000
  C   C2492     1.0  0.44489  0.76444  0.96616  1.0000
  C   C2493     1.0  0.40589  0.95576  0.53121  1.0000
  H   H4188     1.0  0.49364  0.60339  0.94586  1.0000
  C   C2494     1.0  0.57625  0.91327  0.57702  1.0000
  C   C2495     1.0  0.56082  0.97586  0.71011  1.0000
  C   C2496     1.0  0.56530  0.94678  0.60023  1.0000
  H   H4189     1.0  0.44409  0.91439  0.66849  1.0000
  C   C2497     1.0  0.39686  0.97790  0.56321  1.0000
  H   H4190     1.0  0.54178  0.80293  0.86437  1.0000
  H   H4191     1.0  0.42141  0.97572  0.51919  1.0000
  H   H4192     1.0  0.51421  0.85541  0.95780  1.0000
  H   H4193     1.0  0.42658  0.67434  0.93636  1.0000
  H   H4194     1.0  0.40879  0.94503  0.53579  1.0000
  C   C2498     1.0  0.44079  0.97309  0.63861  1.0000
  H   H4195     1.0  0.43434  0.95717  0.52734  1.0000
  H   H4196     1.0  0.44393  0.90603  0.64457  1.0000
  C   C2499     1.0  0.49207  0.96558  0.84482  1.0000
  C   C2500     1.0  0.45429  0.97405  0.62893  1.0000
  C   C2501     1.0  0.47817  0.82226  0.98087  1.0000
  H   H4197     1.0  0.54389  0.87052  0.97545  1.0000
  H   H4198     1.0  0.45676  0.78129  0.94426  1.0000
  H   H4199     1.0  0.57208  0.77691  0.94476  1.0000
  H   H4200     1.0  0.44237  0.98226  0.71110  1.0000
  H   H4201     1.0  0.41259  0.75187  0.95479  1.0000
  H   H4202     1.0  0.54541  0.91924  0.55017  1.0000
  H   H4203     1.0  0.44226  0.92847  0.63281  1.0000
  C   C2502     1.0  0.39618  0.57202  0.90667  1.0000
  H   H4204     1.0  0.58414  0.95077  0.81977  1.0000
  H   H4205     1.0  0.51833  0.89119  0.58862  1.0000
  C   C2503     1.0  0.45550  0.77579  0.93750  1.0000
  S   S735      1.0  0.41109  0.63433  0.94040  1.0000
  C   C2504     1.0  0.57677  0.76823  0.95173  1.0000
  H   H4206     1.0  0.42288  0.52843  0.94659  1.0000
  H   H4207     1.0  0.52879  0.92223  0.54827  1.0000
  H   H4208     1.0  0.47931  0.96803  0.75621  1.0000
  H   H4209     1.0  0.43407  0.68456  0.88570  1.0000
  H   H4210     1.0  0.46468  0.88314  0.80882  1.0000
  C   C2505     1.0  0.38712  0.58120  0.91370  1.0000
  H   H4211     1.0  0.45514  0.90319  0.68558  1.0000
  H   H4212     1.0  0.47456  0.91433  0.64413  1.0000
  C   C2506     1.0  0.48423  0.66143  0.97409  1.0000
  C   C2507     1.0  0.45000  0.97880  0.57168  1.0000
  H   H4213     1.0  0.41504  0.69980  0.87714  1.0000
  N   N174      1.0  0.50527  0.67240  0.89977  1.0000
  C   C2508     1.0  0.51656  0.67917  0.89205  1.0000
  C   C2509     1.0  0.50661  0.66103  0.89344  1.0000
  C   C2510     1.0  0.50708  0.66693  0.91391  1.0000
  C   C2511     1.0  0.49241  0.68251  0.89921  1.0000
  C   C2512     1.0  0.51834  0.69016  0.89774  1.0000
  C   C2513     1.0  0.50484  0.66499  0.87891  1.0000
  C   C2514     1.0  0.49670  0.65957  0.92384  1.0000
  C   C2515     1.0  0.47962  0.67717  0.90295  1.0000
  H   H4214     1.0  0.52618  0.67174  0.89120  1.0000
  H   H4215     1.0  0.51546  0.68395  0.88163  1.0000
  H   H4216     1.0  0.49962  0.65460  0.89916  1.0000
  H   H4217     1.0  0.51648  0.65416  0.89353  1.0000
  H   H4218     1.0  0.51691  0.65998  0.91390  1.0000
  H   H4219     1.0  0.50700  0.67498  0.91862  1.0000
  H   H4220     1.0  0.49091  0.68941  0.90580  1.0000
  H   H4221     1.0  0.49282  0.68907  0.88903  1.0000
  H   H4222     1.0  0.50904  0.69760  0.90004  1.0000
  H   H4223     1.0  0.52259  0.68587  0.90676  1.0000
  H   H4224     1.0  0.52558  0.69559  0.89024  1.0000
  H   H4225     1.0  0.50483  0.65589  0.87587  1.0000
  H   H4226     1.0  0.49531  0.67204  0.87782  1.0000
  H   H4227     1.0  0.51315  0.66915  0.87186  1.0000
  H   H4228     1.0  0.48702  0.66649  0.92613  1.0000
  H   H4229     1.0  0.49999  0.65536  0.93341  1.0000
  H   H4230     1.0  0.49568  0.65105  0.92062  1.0000
  H   H4231     1.0  0.47266  0.68116  0.91147  1.0000
  H   H4232     1.0  0.48085  0.66626  0.90593  1.0000
  H   H4233     1.0  0.47451  0.68077  0.89450  1.0000
  H   H4234     1.0  0.55699  0.97125  0.58007  1.0000
  C   C2516     1.0  0.52209  0.96608  0.61507  1.0000
  S   S736      1.0  0.45161  0.93724  0.82929  1.0000
  C   C2517     1.0  0.45907  0.87452  0.86285  1.0000
  H   H4235     1.0  0.46547  0.95753  0.68047  1.0000
  H   H4236     1.0  0.49531  0.90047  0.81983  1.0000
  S   S737      1.0  0.45031  0.94406  0.70601  1.0000
  H   H4237     1.0  0.44330  0.75704  0.97579  1.0000
  H   H4238     1.0  0.53986  0.82470  0.86338  1.0000
  C   C2518     1.0  0.38838  0.92624  0.54691  1.0000
  H   H4239     1.0  0.42376  0.65173  0.97174  1.0000
  H   H4240     1.0  0.42890  0.74296  0.94903  1.0000
  H   H4241     1.0  0.40268  0.54049  0.93273  1.0000
  C   C2519     1.0  0.41403  0.94468  0.64475  1.0000
  C   C2520     1.0  0.48712  0.94948  0.71476  1.0000
  H   H4242     1.0  0.58109  0.74211  0.94164  1.0000
  C   C2521     1.0  0.53608  0.97592  0.65850  1.0000
  H   H4243     1.0  0.44310  0.96757  0.82044  1.0000
  H   H4244     1.0  0.51088  0.76413  0.96726  1.0000
  H   H4245     1.0  0.45852  0.95883  0.58097  1.0000
  H   H4246     1.0  0.54747  0.94406  0.67144  1.0000
  C   C2522     1.0  0.45119  0.88655  0.85740  1.0000
  C   C2523     1.0  0.51278  0.83906  0.97518  1.0000
  C   C2524     1.0  0.44673  0.57419  0.96060  1.0000
  H   H4247     1.0  0.39701  0.95693  0.52732  1.0000
  H   H4248     1.0  0.44947  0.87560  0.83805  1.0000
  H   H4249     1.0  0.55689  0.95086  0.59517  1.0000
  H   H4250     1.0  0.46160  0.74882  0.95063  1.0000
  H   H4251     1.0  0.46541  0.98343  0.72586  1.0000
  C   C2525     1.0  0.48178  0.66607  0.95980  1.0000
  H   H4252     1.0  0.51800  0.93095  0.79205  1.0000
  S   S738      1.0  0.41851  0.95983  0.82168  1.0000
  N   N175      1.0  0.48709  0.88351  0.88376  1.0000
  H   H4253     1.0  0.44235  0.92900  0.64936  1.0000
  H   H4254     1.0  0.48616  0.94284  0.85880  1.0000
  H   H4255     1.0  0.48028  0.67039  0.97847  1.0000
  H   H4256     1.0  0.51803  0.98229  0.75561  1.0000
  C   C2526     1.0  0.50066  0.88333  0.87470  1.0000
  H   H4257     1.0  0.47411  0.88960  0.64461  1.0000
  H   H4258     1.0  0.44167  0.95157  0.54150  1.0000
  H   H4259     1.0  0.51489  0.97892  0.82483  1.0000
  C   C2527     1.0  0.49493  0.87566  0.90600  1.0000
  H   H4260     1.0  0.57575  0.97328  0.86054  1.0000
  H   H4261     1.0  0.46283  0.97091  0.78489  1.0000
  C   C2528     1.0  0.58026  0.75105  0.93341  1.0000
  C   C2529     1.0  0.45540  0.98030  0.78258  1.0000
  H   H4262     1.0  0.48933  0.81818  0.96215  1.0000
  S   S739      1.0  0.44563  0.85002  0.97950  1.0000
  C   C2530     1.0  0.46557  0.94693  0.86855  1.0000
  H   H4263     1.0  0.52762  0.65686  0.96253  1.0000
  N   N176      1.0  0.57052  0.65340  0.95176  1.0000
  H   H4264     1.0  0.56032  0.80041  0.87448  1.0000
  C   C2531     1.0  0.40675  0.61063  0.97427  1.0000
  H   H4265     1.0  0.40224  0.96836  0.73281  1.0000
  H   H4266     1.0  0.57319  0.95450  0.74343  1.0000
  H   H4267     1.0  0.46349  0.87033  0.65346  1.0000
  H   H4268     1.0  0.46854  0.78705  0.96306  1.0000
  H   H4269     1.0  0.55588  0.92474  0.89826  1.0000
  H   H4270     1.0  0.53376  0.54906  0.98013  1.0000
  H   H4271     1.0  0.48391  0.60705  0.96145  1.0000
  C   C2532     1.0  0.47815  0.90825  0.87407  1.0000
  H   H4272     1.0  0.43025  0.97397  0.54220  1.0000
  C   C2533     1.0  0.42185  0.97409  0.82409  1.0000
  H   H4273     1.0  0.43988  0.90047  0.66710  1.0000
  H   H4274     1.0  0.42295  0.96824  0.77408  1.0000
  H   H4275     1.0  0.51265  0.94224  0.67336  1.0000
  H   H4276     1.0  0.45717  0.73836  0.91469  1.0000
  H   H4277     1.0  0.41515  0.71440  0.91078  1.0000
  C   C2534     1.0  0.48371  0.96615  0.61642  1.0000
  H   H4278     1.0  0.47002  0.81586  0.95847  1.0000
  H   H4279     1.0  0.45342  0.85431  0.84074  1.0000
  H   H4280     1.0  0.56535  0.63588  0.96628  1.0000
  C   C2535     1.0  0.43679  0.77798  0.96929  1.0000
  H   H4281     1.0  0.49634  0.80811  0.97576  1.0000
  H   H4282     1.0  0.49510  0.94310  0.71973  1.0000
  H   H4283     1.0  0.57040  0.76092  0.95457  1.0000
  H   H4284     1.0  0.48394  0.95016  0.76022  1.0000
  H   H4285     1.0  0.52126  0.93825  0.77463  1.0000
  C   C2536     1.0  0.41403  0.98178  0.52592  1.0000
  C   C2537     1.0  0.47702  0.97715  0.62431  1.0000
  H   H4286     1.0  0.57076  0.96652  0.83421  1.0000
  H   H4287     1.0  0.46549  0.80126  0.94964  1.0000
  C   C2538     1.0  0.51560  0.85298  0.96819  1.0000
  C   C2539     1.0  0.56261  0.59591  0.96495  1.0000
  C   C2540     1.0  0.47239  0.97877  0.73267  1.0000
  C   C2541     1.0  0.44714  0.83562  0.94777  1.0000
  H   H4288     1.0  0.42047  0.76783  0.96113  1.0000
  H   H4289     1.0  0.46399  0.92074  0.65801  1.0000
  C   C2542     1.0  0.48332  0.60605  0.95160  1.0000
  C   C2543     1.0  0.41897  0.53213  0.95598  1.0000
  N   N177      1.0  0.41094  0.97383  0.54007  1.0000
  H   H4290     1.0  0.57006  0.97013  0.70465  1.0000
  H   H4291     1.0  0.38927  0.86921  0.55084  1.0000
  H   H4292     1.0  0.47131  0.64966  0.94115  1.0000
  C   C2544     1.0  0.48698  0.95932  0.75359  1.0000
  C   C2545     1.0  0.56363  0.96930  0.57051  1.0000
  H   H4293     1.0  0.41882  0.73246  0.88998  1.0000
  C   C2546     1.0  0.43905  0.61999  0.95865  1.0000
  H   H4294     1.0  0.45190  0.63230  0.96845  1.0000
  H   H4295     1.0  0.55107  0.79591  0.89079  1.0000
  C   C2547     1.0  0.43452  0.57338  0.96942  1.0000
  C   C2548     1.0  0.58213  0.71993  0.97518  1.0000
  H   H4296     1.0  0.53292  0.89455  0.59110  1.0000
  C   C2549     1.0  0.45737  0.88049  0.65390  1.0000
  C   C2550     1.0  0.51943  0.98191  0.72351  1.0000
  S   S740      1.0  0.45598  0.70861  0.91378  1.0000
  H   H4297     1.0  0.51050  0.69533  0.96990  1.0000
  H   H4298     1.0  0.56399  0.97875  0.80001  1.0000
  H   H4299     1.0  0.44449  0.65379  0.90430  1.0000
  H   H4300     1.0  0.56465  0.96806  0.82009  1.0000
  C   C2551     1.0  0.40242  0.96419  0.54187  1.0000
  N   N178      1.0  0.52993  0.87952  0.69098  1.0000
  C   C2552     1.0  0.54483  0.87702  0.68703  1.0000
  C   C2553     1.0  0.52526  0.88923  0.70005  1.0000
  C   C2554     1.0  0.52456  0.88545  0.67841  1.0000
  C   C2555     1.0  0.52622  0.86634  0.69796  1.0000
  C   C2556     1.0  0.55164  0.86910  0.67595  1.0000
  C   C2557     1.0  0.53153  0.88546  0.71230  1.0000
  C   C2558     1.0  0.51077  0.89498  0.67964  1.0000
  C   C2559     1.0  0.51138  0.86664  0.70347  1.0000
  H   H4301     1.0  0.54806  0.88661  0.68364  1.0000
  H   H4302     1.0  0.54933  0.87145  0.69575  1.0000
  H   H4303     1.0  0.51444  0.89092  0.70397  1.0000
  H   H4304     1.0  0.52719  0.89915  0.69431  1.0000
  H   H4305     1.0  0.53116  0.89154  0.67074  1.0000
  H   H4306     1.0  0.52439  0.87749  0.67369  1.0000
  H   H4307     1.0  0.52972  0.85937  0.69108  1.0000
  H   H4308     1.0  0.53125  0.86140  0.70640  1.0000
  H   H4309     1.0  0.56246  0.86846  0.67374  1.0000
  H   H4310     1.0  0.55019  0.85876  0.67910  1.0000
  H   H4311     1.0  0.54847  0.87407  0.66640  1.0000
  H   H4312     1.0  0.54206  0.88622  0.70933  1.0000
  H   H4313     1.0  0.52636  0.89268  0.71879  1.0000
  H   H4314     1.0  0.53056  0.87547  0.71850  1.0000
  H   H4315     1.0  0.51153  0.90503  0.67980  1.0000
  H   H4316     1.0  0.50328  0.89159  0.68847  1.0000
  H   H4317     1.0  0.50697  0.89617  0.67065  1.0000
  H   H4318     1.0  0.50683  0.87278  0.71106  1.0000
  H   H4319     1.0  0.51013  0.85637  0.70854  1.0000
  H   H4320     1.0  0.50591  0.86999  0.69535  1.0000
  H   H4321     1.0  0.54425  0.78733  0.87603  1.0000
  C   C2560     1.0  0.45636  0.57793  0.96431  1.0000
  H   H4322     1.0  0.45327  0.63637  0.93378  1.0000
  H   H4323     1.0  0.44986  0.97047  0.73395  1.0000
  H   H4324     1.0  0.41448  0.52463  0.96399  1.0000
  C   C2561     1.0  0.50322  0.70393  0.97332  1.0000
  C   C2562     1.0  0.53352  0.72591  0.97284  1.0000
  H   H4325     1.0  0.56002  0.67407  0.97112  1.0000
  H   H4326     1.0  0.56124  0.95889  0.86042  1.0000
  C   C2563     1.0  0.41888  0.88775  0.83473  1.0000
  H   H4327     1.0  0.45973  0.85420  0.87393  1.0000
  S   S741      1.0  0.39172  0.94259  0.58105  1.0000
  H   H4328     1.0  0.42705  0.88654  0.79430  1.0000
  C   C2564     1.0  0.53489  0.92334  0.55451  1.0000
  S   S742      1.0  0.53267  0.96424  0.86342  1.0000
  H   H4329     1.0  0.47706  0.94203  0.64809  1.0000
  H   H4330     1.0  0.48809  0.80338  0.94419  1.0000
  S   S743      1.0  0.43795  0.97425  0.56685  1.0000
  N   N179      1.0  0.41325  0.70642  0.89507  1.0000
  C   C2565     1.0  0.42326  0.70280  0.98005  1.0000
  S   S744      1.0  0.44533  0.67771  0.91086  1.0000
  H   H4331     1.0  0.41025  0.88636  0.84317  1.0000
  H   H4332     1.0  0.50434  0.89221  0.87423  1.0000
  H   H4333     1.0  0.43420  0.77970  0.94339  1.0000
  H   H4334     1.0  0.50805  0.87466  0.87876  1.0000
  C   C2566     1.0  0.50647  0.66560  0.96815  1.0000
  H   H4335     1.0  0.47706  0.88999  0.90235  1.0000
  H   H4336     1.0  0.56817  0.95304  0.72946  1.0000
  Fe  Fe374     1.0  0.42928  0.92670  0.69531  1.0000
  C   C2567     1.0  0.42107  0.64601  0.93236  1.0000
  H   H4337     1.0  0.40118  0.98351  0.82793  1.0000
  H   H4338     1.0  0.48286  0.62600  0.94035  1.0000
  H   H4339     1.0  0.45732  0.60577  0.95820  1.0000
  C   C2568     1.0  0.43450  0.82313  0.96725  1.0000
  C   C2569     1.0  0.47659  0.89376  0.87743  1.0000
  C   C2570     1.0  0.46382  0.96792  0.68062  1.0000
  C   C2571     1.0  0.49218  0.91944  0.77790  1.0000
  C   C2572     1.0  0.50733  0.90834  0.80073  1.0000
  C   C2573     1.0  0.41676  0.92821  0.66996  1.0000
  H   H4340     1.0  0.39089  0.97963  0.61240  1.0000
  H   H4341     1.0  0.46125  0.94452  0.86150  1.0000
  H   H4342     1.0  0.42896  0.97519  0.72175  1.0000
  H   H4343     1.0  0.52385  0.67184  0.96843  1.0000
  H   H4344     1.0  0.49534  0.94904  0.58001  1.0000
  H   H4345     1.0  0.48484  0.65784  0.95448  1.0000
  H   H4346     1.0  0.48495  0.91781  0.77322  1.0000
  H   H4347     1.0  0.46902  0.88327  0.82370  1.0000
  C   C2574     1.0  0.48725  0.88683  0.89653  1.0000
  C   C2575     1.0  0.48399  0.87004  0.88637  1.0000
  H   H4348     1.0  0.39928  0.55427  0.89944  1.0000
  H   H4349     1.0  0.47522  0.96935  0.71183  1.0000
  C   C2576     1.0  0.41821  0.96978  0.78428  1.0000
  N   N180      1.0  0.51683  0.91827  0.57597  1.0000
  C   C2577     1.0  0.50961  0.91262  0.56939  1.0000
  H   H4350     1.0  0.56538  0.55824  0.93273  1.0000
  H   H4351     1.0  0.45698  0.93002  0.63606  1.0000
  C   C2578     1.0  0.40057  0.71664  0.89385  1.0000
  C   C2579     1.0  0.49625  0.90919  0.57768  1.0000
  H   H4352     1.0  0.50580  0.91329  0.59653  1.0000
  C   C2580     1.0  0.41988  0.65662  0.93816  1.0000
  H   H4353     1.0  0.50883  0.98079  0.67009  1.0000
  H   H4354     1.0  0.45959  0.90724  0.63408  1.0000
  C   C2581     1.0  0.47427  0.95981  0.83926  1.0000
  H   H4355     1.0  0.51242  0.93819  0.56373  1.0000
  H   H4356     1.0  0.50780  0.91953  0.55981  1.0000
  H   H4357     1.0  0.51590  0.90319  0.56663  1.0000
  H   H4358     1.0  0.42612  0.75154  0.96999  1.0000
  C   C2582     1.0  0.56734  0.96004  0.73574  1.0000
  H   H4359     1.0  0.44156  0.76706  0.93428  1.0000
  H   H4360     1.0  0.42727  0.94619  0.54246  1.0000
  H   H4361     1.0  0.44181  0.84549  0.84017  1.0000
  H   H4362     1.0  0.44015  0.85584  0.81834  1.0000
  N   N181      1.0  0.45929  0.90348  0.65522  1.0000
  C   C2583     1.0  0.51603  0.91179  0.59057  1.0000
  H   H4363     1.0  0.55491  0.75181  0.97934  1.0000
  H   H4364     1.0  0.48923  0.91177  0.57101  1.0000
  H   H4365     1.0  0.49126  0.91446  0.58583  1.0000
  H   H4366     1.0  0.49743  0.89830  0.58182  1.0000
  H   H4367     1.0  0.49616  0.92799  0.77113  1.0000
  H   H4368     1.0  0.39529  0.52799  0.98024  1.0000
  H   H4369     1.0  0.50750  0.88785  0.81269  1.0000
  H   H4370     1.0  0.57372  0.94881  0.57484  1.0000
  C   C2584     1.0  0.46783  0.95634  0.73923  1.0000
  H   H4371     1.0  0.47567  0.61681  0.93426  1.0000
  H   H4372     1.0  0.51801  0.93731  0.57816  1.0000
  H   H4373     1.0  0.52606  0.89002  0.76691  1.0000
  H   H4374     1.0  0.53169  0.95102  0.66131  1.0000
  H   H4375     1.0  0.53847  0.88028  0.77584  1.0000
  H   H4376     1.0  0.50246  0.80558  0.94819  1.0000
  H   H4377     1.0  0.44946  0.87956  0.66311  1.0000
  H   H4378     1.0  0.45186  0.89150  0.98150  1.0000
  C   C2585     1.0  0.46079  0.75822  0.90734  1.0000
  C   C2586     1.0  0.44841  0.92522  0.64041  1.0000
  H   H4379     1.0  0.39637  0.96927  0.71867  1.0000
  C   C2587     1.0  0.57405  0.95691  0.59714  1.0000
  H   H4380     1.0  0.55612  0.92570  0.88126  1.0000
  C   C2588     1.0  0.51798  0.97926  0.63141  1.0000
  H   H4381     1.0  0.47019  0.94852  0.63369  1.0000
  H   H4382     1.0  0.48848  0.78296  0.96453  1.0000
  C   C2589     1.0  0.43454  0.69500  0.88048  1.0000
  H   H4383     1.0  0.45964  0.94579  0.65017  1.0000
  C   C2590     1.0  0.47858  0.95159  0.86184  1.0000
  H   H4384     1.0  0.58026  0.95345  0.60471  1.0000
  H   H4385     1.0  0.46934  0.97572  0.86470  1.0000
  H   H4386     1.0  0.41499  0.55201  0.94478  1.0000
  H   H4387     1.0  0.50541  0.95557  0.68178  1.0000
  C   C2591     1.0  0.56924  0.87939  0.91855  1.0000
  H   H4388     1.0  0.53541  0.84497  0.87267  1.0000
  N   N182      1.0  0.50256  0.76940  0.90726  1.0000
  C   C2592     1.0  0.50059  0.76142  0.89863  1.0000
  C   C2593     1.0  0.49973  0.78391  0.90034  1.0000
  C   C2594     1.0  0.49253  0.76739  0.92029  1.0000
  C   C2595     1.0  0.51649  0.76439  0.90945  1.0000
  C   C2596     1.0  0.50181  0.74632  0.90460  1.0000
  C   C2597     1.0  0.50732  0.78730  0.88572  1.0000
  C   C2598     1.0  0.49270  0.77458  0.93082  1.0000
  C   C2599     1.0  0.52299  0.77432  0.91189  1.0000
  H   H4389     1.0  0.49076  0.76544  0.89597  1.0000
  H   H4390     1.0  0.50797  0.76219  0.88895  1.0000
  H   H4391     1.0  0.50167  0.79031  0.90579  1.0000
  H   H4392     1.0  0.48903  0.78758  0.90028  1.0000
  H   H4393     1.0  0.48238  0.77047  0.91834  1.0000
  H   H4394     1.0  0.49382  0.75672  0.92544  1.0000
  H   H4395     1.0  0.51692  0.75572  0.91804  1.0000
  H   H4396     1.0  0.52340  0.76052  0.90078  1.0000
  H   H4397     1.0  0.49302  0.74423  0.91254  1.0000
  H   H4398     1.0  0.50230  0.74128  0.89666  1.0000
  H   H4399     1.0  0.51088  0.74165  0.90857  1.0000
  H   H4400     1.0  0.51785  0.78203  0.88430  1.0000
  H   H4401     1.0  0.50263  0.78481  0.87899  1.0000
  H   H4402     1.0  0.50680  0.79820  0.88259  1.0000
  H   H4403     1.0  0.56721  0.88282  0.92795  1.0000
  H   H4404     1.0  0.49166  0.78546  0.92701  1.0000
  H   H4405     1.0  0.49208  0.96936  0.60849  1.0000
  H   H4406     1.0  0.52596  0.78153  0.90253  1.0000
  H   H4407     1.0  0.53221  0.76865  0.91527  1.0000
  H   H4408     1.0  0.51683  0.77971  0.91971  1.0000
  C   C2600     1.0  0.57342  0.65784  0.93673  1.0000
  S   S745      1.0  0.39096  0.59618  0.91369  1.0000
  H   H4409     1.0  0.51247  0.88205  0.85480  1.0000
  C   C2601     1.0  0.52350  0.95805  0.66633  1.0000
  H   H4410     1.0  0.49622  0.89183  0.85465  1.0000
  H   H4411     1.0  0.50167  0.95888  0.86204  1.0000
  H   H4412     1.0  0.39195  0.96955  0.54240  1.0000
  C   C2602     1.0  0.50195  0.88269  0.86013  1.0000
  H   H4413     1.0  0.50532  0.93502  0.78274  1.0000
  S   S746      1.0  0.44868  0.71433  0.94419  1.0000
  H   H4414     1.0  0.53836  0.89742  0.76887  1.0000
  H   H4415     1.0  0.47372  0.96575  0.58994  1.0000
  H   H4416     1.0  0.49367  0.94800  0.73857  1.0000
  H   H4417     1.0  0.49525  0.93400  0.59230  1.0000
  H   H4418     1.0  0.48167  0.95373  0.86997  1.0000
  H   H4419     1.0  0.46387  0.95871  0.84216  1.0000
  C   C2603     1.0  0.52294  0.89320  0.78733  1.0000
  C   C2604     1.0  0.53184  0.89027  0.77388  1.0000
  C   C2605     1.0  0.50035  0.89737  0.81023  1.0000
  H   H4420     1.0  0.52967  0.89202  0.79402  1.0000
  H   H4421     1.0  0.51755  0.88499  0.79174  1.0000
  H   H4422     1.0  0.49837  0.89824  0.78426  1.0000
  H   H4423     1.0  0.48971  0.86738  0.91066  1.0000
  C   C2606     1.0  0.53501  0.98247  0.61112  1.0000
  H   H4424     1.0  0.52626  0.90783  0.92770  1.0000
  H   H4425     1.0  0.50519  0.87175  0.90090  1.0000
  H   H4426     1.0  0.46570  0.57875  0.95734  1.0000
  H   H4427     1.0  0.55367  0.65686  0.96801  1.0000
  C   C2607     1.0  0.41574  0.94985  0.65467  1.0000
  H   H4428     1.0  0.42168  0.71392  0.87419  1.0000
  H   H4429     1.0  0.58498  0.66239  0.95478  1.0000
  H   H4430     1.0  0.43485  0.90886  0.97522  1.0000
  C   C2608     1.0  0.55991  0.67531  0.96047  1.0000
  H   H4431     1.0  0.45578  0.85955  0.81305  1.0000
  H   H4432     1.0  0.51829  0.56944  0.97380  1.0000
  H   H4433     1.0  0.46954  0.87368  0.86143  1.0000
  H   H4434     1.0  0.46762  0.93764  0.87620  1.0000
  C   C2609     1.0  0.57618  0.79082  0.90834  1.0000
  S   S747      1.0  0.45869  0.90006  0.84854  1.0000
  C   C2610     1.0  0.41055  0.69330  0.90377  1.0000
  C   C2611     1.0  0.40115  0.92668  0.56239  1.0000
  H   H4435     1.0  0.44761  0.88206  0.80182  1.0000
  H   H4436     1.0  0.49178  0.97582  0.86035  1.0000
  H   H4437     1.0  0.40261  0.72584  0.88640  1.0000
  C   C2612     1.0  0.45034  0.84997  0.83416  1.0000
  H   H4438     1.0  0.56469  0.65856  0.93280  1.0000
  H   H4439     1.0  0.43383  0.61234  0.95896  1.0000
  C   C2613     1.0  0.56820  0.63944  0.95526  1.0000
  S   S748      1.0  0.41036  0.95947  0.59295  1.0000
  C   C2614     1.0  0.49840  0.96819  0.85488  1.0000
  H   H4440     1.0  0.55305  0.84319  0.87034  1.0000
  C   C2615     1.0  0.41500  0.92300  0.66007  1.0000
  H   H4441     1.0  0.56712  0.96618  0.59964  1.0000
  H   H4442     1.0  0.49365  0.57551  0.96731  1.0000
  H   H4443     1.0  0.43230  0.86922  0.80092  1.0000
  C   C2616     1.0  0.55728  0.63752  0.94974  1.0000
  C   C2617     1.0  0.44687  0.86003  0.82140  1.0000
  H   H4444     1.0  0.47013  0.96790  0.81936  1.0000
  C   C2618     1.0  0.56316  0.73610  0.96849  1.0000
  H   H4445     1.0  0.55355  0.96038  0.65224  1.0000
  C   C2619     1.0  0.53187  0.97277  0.60690  1.0000
  H   H4446     1.0  0.56095  0.94466  0.61112  1.0000
  H   H4447     1.0  0.41701  0.71789  0.96353  1.0000
  C   C2620     1.0  0.58253  0.65257  0.95678  1.0000
  C   C2621     1.0  0.46818  0.96320  0.64611  1.0000
  H   H4448     1.0  0.57488  0.80736  0.88033  1.0000
  H   H4449     1.0  0.43147  0.89681  0.85519  1.0000
  H   H4450     1.0  0.58249  0.96859  0.72067  1.0000
  H   H4451     1.0  0.45559  0.76456  0.96384  1.0000
  Fe  Fe375     1.0  0.45144  0.91581  0.83138  1.0000
  H   H4452     1.0  0.57263  0.59382  0.95922  1.0000
  C   C2622     1.0  0.44341  0.84053  0.96962  1.0000
  C   C2623     1.0  0.55702  0.96898  0.86168  1.0000
  H   H4453     1.0  0.51904  0.89267  0.60463  1.0000
  H   H4454     1.0  0.45256  0.98283  0.62055  1.0000
  H   H4455     1.0  0.44087  0.73205  0.96610  1.0000
  C   C2624     1.0  0.44560  0.91468  0.76172  1.0000
  C   C2625     1.0  0.42673  0.72377  0.89274  1.0000
  H   H4456     1.0  0.43119  0.63668  0.91576  1.0000
  H   H4457     1.0  0.43117  0.93592  0.78272  1.0000
  H   H4458     1.0  0.53540  0.90503  0.56912  1.0000
  C   C2626     1.0  0.45354  0.86345  0.86984  1.0000
  S   S749      1.0  0.44803  0.94251  0.79820  1.0000
  H   H4459     1.0  0.52141  0.96660  0.74130  1.0000
  H   H4460     1.0  0.43466  0.89329  0.80995  1.0000
  S   S750      1.0  0.42385  0.94349  0.73776  1.0000
  C   C2627     1.0  0.42775  0.87397  0.83321  1.0000
  H   H4461     1.0  0.52206  0.65687  0.98013  1.0000
  H   H4462     1.0  0.42407  0.89403  0.83712  1.0000
  C   C2628     1.0  0.49149  0.79208  0.96423  1.0000
  C   C2629     1.0  0.45127  0.74764  0.95268  1.0000
  C   C2630     1.0  0.54842  0.94991  0.67798  1.0000
  S   S751      1.0  0.45212  0.83928  0.90799  1.0000
  Fe  Fe376     1.0  0.43960  0.95138  0.68934  1.0000
  C   C2631     1.0  0.54741  0.82574  0.86806  1.0000
  C   C2632     1.0  0.54531  0.84080  0.86702  1.0000
  S   S752      1.0  0.42186  0.57088  0.96376  1.0000
  C   C2633     1.0  0.48979  0.95872  0.73873  1.0000
  C   C2634     1.0  0.43012  0.64490  0.92025  1.0000
  H   H4463     1.0  0.47617  0.90051  0.67332  1.0000
  Fe  Fe377     1.0  0.43204  0.93700  0.71812  1.0000
  Fe  Fe378     1.0  0.43919  0.72032  0.92661  1.0000
  H   H4464     1.0  0.48844  0.56047  0.96996  1.0000
  H   H4465     1.0  0.57072  0.93716  0.59760  1.0000
  H   H4466     1.0  0.44966  0.97022  0.85890  1.0000
  C   C2635     1.0  0.49554  0.75329  0.97198  1.0000
  C   C2636     1.0  0.52978  0.69707  0.98096  1.0000
  S   S753      1.0  0.42070  0.94606  0.70179  1.0000
  N   N183      1.0  0.46486  0.97507  0.63507  1.0000
  C   C2637     1.0  0.47611  0.61905  0.94359  1.0000
  C   C2638     1.0  0.45214  0.97680  0.67788  1.0000
  S   S754      1.0  0.41176  0.95551  0.62939  1.0000
  C   C2639     1.0  0.39089  0.57173  0.95061  1.0000
  H   H4467     1.0  0.52259  0.81635  0.91103  1.0000
  H   H4468     1.0  0.53066  0.80038  0.88061  1.0000
  H   H4469     1.0  0.45433  0.85085  0.95137  1.0000
  C   C2640     1.0  0.42825  0.93936  0.76275  1.0000
  C   C2641     1.0  0.43382  0.93209  0.77376  1.0000
  C   C2642     1.0  0.44143  0.77621  0.90638  1.0000
  Fe  Fe379     1.0  0.44779  0.92091  0.80280  1.0000
  H   H4470     1.0  0.42136  0.94881  0.76324  1.0000
  H   H4471     1.0  0.47099  0.66995  0.96050  1.0000
  H   H4472     1.0  0.52262  0.80460  0.90243  1.0000
  S   S755      1.0  0.42880  0.74158  0.91983  1.0000
  C   C2643     1.0  0.43902  0.75316  0.91410  1.0000
  H   H4473     1.0  0.54979  0.94257  0.68743  1.0000
  C   C2644     1.0  0.45211  0.89655  0.68123  1.0000
  C   C2645     1.0  0.43819  0.88258  0.80952  1.0000
  H   H4474     1.0  0.43703  0.78673  0.90397  1.0000
  S   S756      1.0  0.43817  0.81581  0.90727  1.0000
  H   H4475     1.0  0.58233  0.90436  0.58185  1.0000
  H   H4476     1.0  0.43399  0.97533  0.60843  1.0000
  C   C2646     1.0  0.57292  0.97232  0.72728  1.0000
  H   H4477     1.0  0.54276  0.71841  0.97048  1.0000
  H   H4478     1.0  0.44123  0.69836  0.88440  1.0000
  Fe  Fe380     1.0  0.44496  0.83383  0.89287  1.0000
  H   H4479     1.0  0.55709  0.82247  0.86140  1.0000
  Fe  Fe381     1.0  0.43843  0.69736  0.95047  1.0000
  C   C2647     1.0  0.43765  0.65460  0.91377  1.0000
  N   N184      1.0  0.48086  0.80104  0.97229  1.0000
  H   H4480     1.0  0.55476  0.96844  0.71609  1.0000
  C   C2648     1.0  0.41818  0.71582  0.97369  1.0000
  C   C2649     1.0  0.45366  0.58126  0.97669  1.0000
  C   C2650     1.0  0.52889  0.81073  0.90338  1.0000
  C   C2651     1.0  0.46187  0.62678  0.96416  1.0000
  S   S757      1.0  0.43790  0.81589  0.94371  1.0000
  C   C2652     1.0  0.44932  0.87990  0.82737  1.0000
  H   H4481     1.0  0.39716  0.88151  0.53876  1.0000
  Fe  Fe382     1.0  0.41693  0.61556  0.93248  1.0000
  C   C2653     1.0  0.47162  0.63434  0.96515  1.0000
  H   H4482     1.0  0.44326  0.89338  0.68832  1.0000
  C   C2654     1.0  0.51552  0.96893  0.62756  1.0000
  C   C2655     1.0  0.43338  0.76684  0.91114  1.0000
  C   C2656     1.0  0.58555  0.96114  0.81709  1.0000
  H   H4483     1.0  0.53091  0.69680  0.97036  1.0000
  H   H4484     1.0  0.50135  0.67545  0.97065  1.0000
  H   H4485     1.0  0.49324  0.70177  0.97563  1.0000
  C   C2657     1.0  0.53662  0.60151  0.97968  1.0000
  C   C2658     1.0  0.55965  0.60247  0.97537  1.0000
  H   H4486     1.0  0.39602  0.98155  0.51978  1.0000
  H   H4487     1.0  0.52527  0.82166  0.88396  1.0000
  H   H4488     1.0  0.40921  0.62058  0.97128  1.0000
  H   H4489     1.0  0.53740  0.80431  0.90758  1.0000
  H   H4490     1.0  0.53726  0.91826  0.57475  1.0000
  H   H4491     1.0  0.47206  0.94549  0.73980  1.0000
  H   H4492     1.0  0.56932  0.91466  0.88823  1.0000
  C   C2659     1.0  0.53258  0.82062  0.88997  1.0000
  H   H4493     1.0  0.53070  0.83054  0.89233  1.0000
  H   H4494     1.0  0.41493  0.89319  0.82570  1.0000
  N   N185      1.0  0.44053  0.87411  0.82287  1.0000
  C   C2660     1.0  0.42841  0.87904  0.80368  1.0000
  H   H4495     1.0  0.49502  0.63809  0.97080  1.0000
  C   C2661     1.0  0.54108  0.79829  0.87514  1.0000
  N   N186      1.0  0.54651  0.81710  0.88197  1.0000
  H   H4496     1.0  0.57745  0.63226  0.95186  1.0000
  H   H4497     1.0  0.54782  0.64457  0.95235  1.0000
  H   H4498     1.0  0.56391  0.87142  0.92024  1.0000
  H   H4499     1.0  0.39387  0.70995  0.87955  1.0000
  H   H4500     1.0  0.54012  0.96856  0.68352  1.0000
  C   C2662     1.0  0.55574  0.81942  0.88894  1.0000
  H   H4501     1.0  0.54395  0.98242  0.73002  1.0000
  H   H4502     1.0  0.51234  0.98414  0.58776  1.0000
  H   H4503     1.0  0.46693  0.64509  0.96432  1.0000
  H   H4504     1.0  0.55549  0.81256  0.89892  1.0000
  S   S758      1.0  0.44879  0.90992  0.78733  1.0000
  Fe  Fe383     1.0  0.44531  0.69189  0.92290  1.0000
  Fe  Fe384     1.0  0.43517  0.94216  0.81875  1.0000
  S   S759      1.0  0.43307  0.85026  0.87949  1.0000
  N   N187      1.0  0.49838  0.65523  0.97523  1.0000
  H   H4505     1.0  0.47772  0.96288  0.64836  1.0000
  H   H4506     1.0  0.39237  0.61245  0.96341  1.0000
  H   H4507     1.0  0.41702  0.97709  0.69661  1.0000
  S   S760      1.0  0.42843  0.68988  0.97149  1.0000
  C   C2663     1.0  0.51947  0.97713  0.73710  1.0000
  C   C2664     1.0  0.53133  0.91578  0.56915  1.0000
  C   C2665     1.0  0.44879  0.84310  0.95583  1.0000
  C   C2666     1.0  0.40216  0.69371  0.91801  1.0000
  H   H4508     1.0  0.50874  0.86090  0.97310  1.0000
  C   C2667     1.0  0.58463  0.97366  0.57989  1.0000
  C   C2668     1.0  0.58276  0.55788  0.91672  1.0000
  H   H4509     1.0  0.47772  0.65436  0.97986  1.0000
  H   H4510     1.0  0.42276  0.77020  0.91247  1.0000
  H   H4511     1.0  0.48664  0.67435  0.95379  1.0000
  C   C2669     1.0  0.42376  0.96681  0.54441  1.0000
  H   H4512     1.0  0.55250  0.82958  0.89104  1.0000
  H   H4513     1.0  0.45790  0.95922  0.72277  1.0000
  H   H4514     1.0  0.44540  0.89076  0.82678  1.0000
  H   H4515     1.0  0.42891  0.81543  0.97169  1.0000
  C   C2670     1.0  0.44007  0.86427  0.87134  1.0000
  C   C2671     1.0  0.45028  0.73522  0.96415  1.0000
  C   C2672     1.0  0.46627  0.64767  0.93449  1.0000
  H   H4516     1.0  0.44265  0.91812  0.74175  1.0000
  H   H4517     1.0  0.40735  0.69654  0.92404  1.0000
  S   S761      1.0  0.43952  0.97117  0.67552  1.0000
  H   H4518     1.0  0.50733  0.66768  0.95716  1.0000
  C   C2673     1.0  0.46627  0.88945  0.65397  1.0000
  C   C2674     1.0  0.57532  0.77283  0.96463  1.0000
  H   H4519     1.0  0.44878  0.95340  0.73907  1.0000
  S   S762      1.0  0.42754  0.70428  0.93397  1.0000
  C   C2675     1.0  0.43767  0.88748  0.85908  1.0000
  H   H4520     1.0  0.56865  0.67972  0.93311  1.0000
  H   H4521     1.0  0.41850  0.87936  0.81042  1.0000
  H   H4522     1.0  0.58224  0.74770  0.92396  1.0000
  H   H4523     1.0  0.51752  0.96340  0.65869  1.0000
  H   H4524     1.0  0.52120  0.91657  0.59497  1.0000
  C   C2676     1.0  0.43215  0.87633  0.86594  1.0000
  H   H4525     1.0  0.40061  0.68354  0.92318  1.0000
  H   H4526     1.0  0.50749  0.97749  0.80601  1.0000
  S   S763      1.0  0.43343  0.92078  0.82269  1.0000
  H   H4527     1.0  0.42975  0.86865  0.84326  1.0000
  H   H4528     1.0  0.46423  0.95723  0.74985  1.0000
  H   H4529     1.0  0.52592  0.85335  0.96750  1.0000
  H   H4530     1.0  0.58181  0.98164  0.83615  1.0000
  H   H4531     1.0  0.52021  0.94365  0.68563  1.0000
  C   C2677     1.0  0.40382  0.98372  0.54885  1.0000
  H   H4532     1.0  0.45226  0.90509  0.76132  1.0000
  C   C2678     1.0  0.39016  0.71237  0.88955  1.0000
  N   N188      1.0  0.46238  0.62509  0.95048  1.0000
  H   H4533     1.0  0.48232  0.96563  0.68584  1.0000
  C   C2679     1.0  0.49632  0.79842  0.94938  1.0000
  H   H4534     1.0  0.55606  0.73976  0.96221  1.0000
  H   H4535     1.0  0.51956  0.83215  0.96892  1.0000
  C   C2680     1.0  0.42065  0.70427  0.88133  1.0000
  H   H4536     1.0  0.48020  0.94989  0.83758  1.0000
  S   S764      1.0  0.40373  0.60103  0.94066  1.0000
  C   C2681     1.0  0.43136  0.93432  0.75119  1.0000
  H   H4537     1.0  0.50280  0.79049  0.94419  1.0000
  C   C2682     1.0  0.53628  0.96116  0.68109  1.0000
  H   H4538     1.0  0.45299  0.88406  0.64495  1.0000
  H   H4539     1.0  0.50570  0.55992  0.96683  1.0000
  C   C2683     1.0  0.43635  0.66528  0.91951  1.0000
  H   H4540     1.0  0.53347  0.92138  0.92691  1.0000
  C   C2684     1.0  0.42759  0.66618  0.93182  1.0000
  H   H4541     1.0  0.40786  0.91416  0.54804  1.0000
  H   H4542     1.0  0.38768  0.97514  0.56326  1.0000
  H   H4543     1.0  0.55485  0.91077  0.91883  1.0000
  C   C2685     1.0  0.47592  0.96964  0.82557  1.0000
  C   C2686     1.0  0.45547  0.96023  0.73327  1.0000
  H   H4544     1.0  0.52398  0.97773  0.78627  1.0000
  C   C2687     1.0  0.45375  0.61563  0.95206  1.0000
  H   H4545     1.0  0.49158  0.96829  0.71276  1.0000
  C   C2688     1.0  0.39087  0.56033  0.94447  1.0000
  H   H4546     1.0  0.50037  0.78833  0.96869  1.0000
  C   C2689     1.0  0.57714  0.67148  0.93074  1.0000
  H   H4547     1.0  0.43737  0.78634  0.96042  1.0000
  H   H4548     1.0  0.58079  0.76521  0.97175  1.0000
  C   C2690     1.0  0.44020  0.92206  0.75062  1.0000
  H   H4549     1.0  0.49670  0.75275  0.96176  1.0000
  H   H4550     1.0  0.57190  0.82490  0.97868  1.0000
  H   H4551     1.0  0.45839  0.72678  0.96143  1.0000
  H   H4552     1.0  0.45044  0.74519  0.94353  1.0000
  C   C2691     1.0  0.45686  0.63816  0.94182  1.0000
  H   H4553     1.0  0.53410  0.93404  0.55386  1.0000
  H   H4554     1.0  0.45890  0.84194  0.83130  1.0000
  H   H4555     1.0  0.57500  0.98101  0.58100  1.0000
  H   H4556     1.0  0.57839  0.87875  0.87526  1.0000
  H   H4557     1.0  0.42324  0.96183  0.79156  1.0000
  H   H4558     1.0  0.46048  0.65739  0.92999  1.0000
  S   S765      1.0  0.47710  0.73839  0.97825  1.0000
  H   H4559     1.0  0.52177  0.71925  0.96407  1.0000
  C   C2692     1.0  0.57065  0.56404  0.92388  1.0000
  H   H4560     1.0  0.57609  0.93490  0.54695  1.0000
  H   H4561     1.0  0.44805  0.64391  0.94776  1.0000
  H   H4562     1.0  0.48111  0.63313  0.95779  1.0000
  H   H4563     1.0  0.55387  0.90232  0.88639  1.0000
  H   H4564     1.0  0.50491  0.97840  0.78034  1.0000
  H   H4565     1.0  0.49880  0.95693  0.84082  1.0000
  H   H4566     1.0  0.46304  0.61702  0.97143  1.0000
  H   H4567     1.0  0.48419  0.77310  0.93937  1.0000
  H   H4568     1.0  0.56019  0.63833  0.93877  1.0000
  H   H4569     1.0  0.49105  0.95015  0.70389  1.0000
  H   H4570     1.0  0.58454  0.97598  0.53445  1.0000
  H   H4571     1.0  0.52522  0.88401  0.90932  1.0000
  C   C2693     1.0  0.51176  0.93312  0.57444  1.0000
  N   N189      1.0  0.44156  0.76031  0.95533  1.0000
  C   C2694     1.0  0.46915  0.91132  0.65464  1.0000
  H   H4572     1.0  0.57600  0.81981  0.88776  1.0000
  H   H4573     1.0  0.49026  0.93615  0.57672  1.0000
  H   H4574     1.0  0.41100  0.73626  0.97554  1.0000
  H   H4575     1.0  0.53383  0.73487  0.96459  1.0000
  C   C2695     1.0  0.58087  0.91916  0.56359  1.0000
  C   C2696     1.0  0.39231  0.56109  0.90525  1.0000
  H   H4576     1.0  0.48641  0.96797  0.82009  1.0000
  C   C2697     1.0  0.48293  0.96358  0.71757  1.0000
  H   H4577     1.0  0.41384  0.96701  0.71756  1.0000
  C   C2698     1.0  0.51498  0.94947  0.67757  1.0000
  H   H4578     1.0  0.47427  0.63033  0.97506  1.0000
  H   H4579     1.0  0.45729  0.96542  0.62418  1.0000
  H   H4580     1.0  0.52996  0.95725  0.69079  1.0000
  C   C2699     1.0  0.44252  0.77084  0.94255  1.0000
  H   H4581     1.0  0.49841  0.96325  0.73306  1.0000
  C   C2700     1.0  0.50310  0.64344  0.96868  1.0000
  H   H4582     1.0  0.45418  0.61373  0.94218  1.0000
  N   N190      1.0  0.47816  0.96335  0.85011  1.0000
  H   H4583     1.0  0.50269  0.83923  0.97435  1.0000
  C   C2701     1.0  0.48003  0.90440  0.66263  1.0000
  H   H4584     1.0  0.45527  0.78285  0.92768  1.0000
  H   H4585     1.0  0.42170  0.87707  0.86719  1.0000
  H   H4586     1.0  0.41458  0.91264  0.66219  1.0000
  H   H4587     1.0  0.40851  0.55038  0.96222  1.0000
  H   H4588     1.0  0.54025  0.91296  0.89420  1.0000
  H   H4589     1.0  0.50166  0.77005  0.93502  1.0000
  H   H4590     1.0  0.43762  0.62058  0.96914  1.0000
  H   H4591     1.0  0.41992  0.68605  0.90511  1.0000
  C   C2702     1.0  0.40387  0.97227  0.72182  1.0000
  C   C2703     1.0  0.44175  0.97692  0.78546  1.0000
  C   C2704     1.0  0.54595  0.96846  0.64803  1.0000
  N   N191      1.0  0.47821  0.96435  0.73208  1.0000
  C   C2705     1.0  0.55851  0.91875  0.89059  1.0000
  H   H4592     1.0  0.48808  0.95687  0.62287  1.0000
  H   H4593     1.0  0.56472  0.77466  0.96981  1.0000
  H   H4594     1.0  0.57190  0.82478  0.87179  1.0000
  H   H4595     1.0  0.51241  0.72934  0.97545  1.0000
  H   H4596     1.0  0.50327  0.71288  0.96505  1.0000
  H   H4597     1.0  0.44322  0.96879  0.78036  1.0000
  H   H4598     1.0  0.40166  0.98107  0.68361  1.0000
  H   H4599     1.0  0.57996  0.87475  0.91630  1.0000
  H   H4600     1.0  0.58010  0.59085  0.93495  1.0000
  H   H4601     1.0  0.42204  0.96298  0.55539  1.0000
  H   H4602     1.0  0.57199  0.65066  0.97795  1.0000
  H   H4603     1.0  0.56615  0.97877  0.56414  1.0000
  H   H4604     1.0  0.56859  0.67918  0.95409  1.0000
  H   H4605     1.0  0.44083  0.78025  0.97666  1.0000
  H   H4606     1.0  0.48490  0.97811  0.62854  1.0000
  C   C2706     1.0  0.56256  0.74294  0.97815  1.0000
  H   H4607     1.0  0.40107  0.57248  0.94997  1.0000
  H   H4608     1.0  0.40795  0.96838  0.78650  1.0000
  H   H4609     1.0  0.58345  0.95921  0.56278  1.0000
  H   H4610     1.0  0.54909  0.98247  0.74933  1.0000
  H   H4611     1.0  0.57842  0.78240  0.96236  1.0000
  C   C2707     1.0  0.47338  0.97249  0.68361  1.0000
  S   S766      1.0  0.57205  0.60778  0.97876  1.0000
  H   H4612     1.0  0.39462  0.58859  0.96951  1.0000
  H   H4613     1.0  0.58322  0.63556  0.97404  1.0000
  C   C2708     1.0  0.46405  0.79776  0.96066  1.0000
  H   H4614     1.0  0.46017  0.81064  0.97432  1.0000
  H   H4615     1.0  0.40651  0.65410  0.97976  1.0000
  H   H4616     1.0  0.55689  0.96276  0.74101  1.0000
  H   H4617     1.0  0.50742  0.97206  0.84941  1.0000
  H   H4618     1.0  0.51105  0.97221  0.68640  1.0000
  H   H4619     1.0  0.50787  0.98349  0.57319  1.0000
  C   C2709     1.0  0.39293  0.58837  0.98031  1.0000
  H   H4620     1.0  0.50031  0.58730  0.97726  1.0000
  C   C2710     1.0  0.52077  0.66239  0.97000  1.0000
  H   H4621     1.0  0.58046  0.77898  0.89373  1.0000
  H   H4622     1.0  0.39573  0.71994  0.90341  1.0000
  C   C2711     1.0  0.38777  0.87796  0.54250  1.0000
  C   C2712     1.0  0.51492  0.63258  0.97287  1.0000
  H   H4623     1.0  0.39227  0.70039  0.91806  1.0000
  H   H4624     1.0  0.43539  0.98285  0.64110  1.0000
  H   H4625     1.0  0.41385  0.95820  0.52250  1.0000
  H   H4626     1.0  0.39682  0.56229  0.93406  1.0000
  H   H4627     1.0  0.41263  0.98014  0.60420  1.0000
  H   H4628     1.0  0.45622  0.87517  0.97835  1.0000
  C   C2713     1.0  0.56519  0.97709  0.86182  1.0000
  H   H4629     1.0  0.43442  0.97427  0.70425  1.0000
  H   H4630     1.0  0.57576  0.97644  0.73420  1.0000
  C   C2714     1.0  0.58161  0.64657  0.97184  1.0000
  C   C2715     1.0  0.56558  0.83475  0.97809  1.0000
  C   C2716     1.0  0.43636  0.83045  0.97535  1.0000
  H   H4631     1.0  0.57965  0.67306  0.91966  1.0000
  C   C2717     1.0  0.57628  0.95862  0.57264  1.0000
  H   H4632     1.0  0.43451  0.97019  0.63375  1.0000
  H   H4633     1.0  0.40322  0.96905  0.56821  1.0000
  N   N192      1.0  0.56393  0.98272  0.71907  1.0000
  H   H4634     1.0  0.46787  0.82552  0.97953  1.0000
  C   C2718     1.0  0.43474  0.97557  0.82267  1.0000
  H   H4635     1.0  0.43921  0.97230  0.79632  1.0000
  H   H4636     1.0  0.53955  0.69815  0.98155  1.0000
  C   C2719     1.0  0.46914  0.97577  0.85432  1.0000
  H   H4637     1.0  0.41079  0.98333  0.61994  1.0000
  C   C2720     1.0  0.45448  0.97865  0.85363  1.0000
  H   H4638     1.0  0.46624  0.97980  0.74274  1.0000
  H   H4639     1.0  0.51268  0.98171  0.64092  1.0000
  H   H4640     1.0  0.39268  0.52151  0.96754  1.0000
  H   H4641     1.0  0.58477  0.79511  0.90379  1.0000
  N   N193      1.0  0.58253  0.95965  0.58317  1.0000
  H   H4642     1.0  0.44185  0.97589  0.75995  1.0000
  H   H4643     1.0  0.54637  0.97822  0.83419  1.0000
  H   H4644     1.0  0.52817  0.97823  0.81069  1.0000
  H   H4645     1.0  0.45330  0.98169  0.84317  1.0000
  H   H4646     1.0  0.41353  0.98328  0.79696  1.0000
  S   S767      1.0  0.38713  0.91943  0.53412  1.0000
  C   C2721     1.0  0.41774  0.98371  0.78607  1.0000
  H   H4647     1.0  0.53334  0.72906  0.98190  1.0000
  H   H4648     1.0  0.74796  0.00642  0.47073  1.0000
  C   C2722     1.0  0.71932  0.99014  0.38892  1.0000
  C   C2723     1.0  0.71895  0.98531  0.37819  1.0000
  H   H4649     1.0  0.59831  0.01564  0.33072  1.0000
  C   C2724     1.0  0.76200  0.47893  0.03758  1.0000
  H   H4650     1.0  0.61596  0.46081  0.99441  1.0000
  H   H4651     1.0  0.59278  0.33785  0.05903  1.0000
  H   H4652     1.0  0.61926  0.38452  0.98278  1.0000
  C   C2725     1.0  0.58982  0.02407  0.32888  1.0000
  Fe  Fe385     1.0  0.61822  0.02742  0.42935  1.0000
  S   S768      1.0  0.61327  0.04657  0.41463  1.0000
  S   S769      1.0  0.61265  0.02416  0.45180  1.0000
  Fe  Fe386     1.0  0.63302  0.01251  0.40768  1.0000
  S   S770      1.0  0.62958  0.03023  0.39094  1.0000
  H   H4653     1.0  0.78329  0.03316  0.36281  1.0000
  Fe  Fe387     1.0  0.63440  0.04094  0.40377  1.0000
  S   S771      1.0  0.64776  0.05555  0.39518  1.0000
  Fe  Fe388     1.0  0.60878  0.03417  0.40316  1.0000
  H   H4654     1.0  0.76555  0.99076  0.43429  1.0000
  S   S772      1.0  0.63955  0.02268  0.41927  1.0000
  S   S773      1.0  0.61196  0.01545  0.41901  1.0000
  H   H4655     1.0  0.59458  0.23404  0.04384  1.0000
  C   C2726     1.0  0.64977  0.46487  0.01219  1.0000
  H   H4656     1.0  0.71556  0.04980  0.46760  1.0000
  H   H4657     1.0  0.59216  0.14042  0.01480  1.0000
  Fe  Fe389     1.0  0.72209  0.00742  0.43329  1.0000
  S   S774      1.0  0.72675  0.02695  0.43156  1.0000
  H   H4658     1.0  0.76838  0.39530  0.98720  1.0000
  Fe  Fe390     1.0  0.72519  0.01159  0.40337  1.0000
  S   S775      1.0  0.72984  0.03161  0.39913  1.0000
  H   H4659     1.0  0.59086  0.36667  0.98855  1.0000
  Fe  Fe391     1.0  0.74277  0.02198  0.41393  1.0000
  S   S776      1.0  0.76480  0.01975  0.40986  1.0000
  Fe  Fe392     1.0  0.71328  0.03451  0.41705  1.0000
  S   S777      1.0  0.69727  0.05309  0.41758  1.0000
  S   S778      1.0  0.73913  0.00167  0.41694  1.0000
  S   S779      1.0  0.70755  0.01524  0.42001  1.0000
  C   C2727     1.0  0.62092  0.98695  0.44827  1.0000
  H   H4660     1.0  0.58869  0.02493  0.31866  1.0000
  C   C2728     1.0  0.69405  0.03483  0.37863  1.0000
  H   H4661     1.0  0.58913  0.99513  0.43532  1.0000
  H   H4662     1.0  0.72426  0.04675  0.45150  1.0000
  H   H4663     1.0  0.70443  0.04395  0.44647  1.0000
  H   H4664     1.0  0.69737  0.01185  0.47098  1.0000
  C   C2729     1.0  0.70303  0.04893  0.45476  1.0000
  H   H4665     1.0  0.72686  0.48142  0.01408  1.0000
  C   C2730     1.0  0.58858  0.99077  0.42728  1.0000
  C   C2731     1.0  0.63587  0.35164  0.98409  1.0000
  H   H4666     1.0  0.68667  0.47676  0.03295  1.0000
  Fe  Fe393     1.0  0.64584  0.42335  0.99011  1.0000
  S   S780      1.0  0.64828  0.40302  0.00340  1.0000
  C   C2732     1.0  0.63257  0.98502  0.40423  1.0000
  Fe  Fe394     1.0  0.63479  0.43753  0.01319  1.0000
  S   S781      1.0  0.63606  0.41822  0.02861  1.0000
  S   S782      1.0  0.62562  0.45820  0.01706  1.0000
  Fe  Fe395     1.0  0.65609  0.41230  0.01528  1.0000
  S   S783      1.0  0.67571  0.40215  0.02114  1.0000
  Fe  Fe396     1.0  0.62811  0.41066  0.01531  1.0000
  S   S784      1.0  0.60951  0.40250  0.01995  1.0000
  S   S785      1.0  0.65512  0.43206  0.00083  1.0000
  S   S786      1.0  0.62532  0.43059  0.00103  1.0000
  C   C2733     1.0  0.70497  0.47913  0.00869  1.0000
  C   C2734     1.0  0.65256  0.98607  0.45890  1.0000
  H   H4667     1.0  0.68260  0.03087  0.47972  1.0000
  Fe  Fe397     1.0  0.73599  0.43537  0.01272  1.0000
  S   S787      1.0  0.74227  0.45492  0.00627  1.0000
  S   S788      1.0  0.71413  0.44044  0.01289  1.0000
  Fe  Fe398     1.0  0.76459  0.42004  0.01377  1.0000
  S   S789      1.0  0.77252  0.43851  0.00710  1.0000
  H   H4668     1.0  0.59462  0.22556  0.07236  1.0000
  Fe  Fe399     1.0  0.75448  0.44635  0.02155  1.0000
  S   S790      1.0  0.75357  0.45793  0.03627  1.0000
  Fe  Fe400     1.0  0.75941  0.44486  0.99255  1.0000
  C   C2735     1.0  0.61218  0.35978  0.98595  1.0000
  S   S791      1.0  0.74713  0.42750  0.02928  1.0000
  S   S792      1.0  0.75263  0.42578  0.99802  1.0000
  C   C2736     1.0  0.63429  0.02169  0.47811  1.0000
  C   C2737     1.0  0.58762  0.06069  0.32859  1.0000
  C   C2738     1.0  0.59178  0.02204  0.38188  1.0000
  H   H4669     1.0  0.77664  0.41664  0.04658  1.0000
  H   H4670     1.0  0.63757  0.38783  0.98650  1.0000
  C   C2739     1.0  0.74380  0.99838  0.47063  1.0000
  H   H4671     1.0  0.67750  0.07209  0.45493  1.0000
  C   C2740     1.0  0.76373  0.46937  0.03031  1.0000
  H   H4672     1.0  0.69595  0.42100  0.99241  1.0000
  S   S793      1.0  0.60211  0.34429  0.02508  1.0000
  H   H4673     1.0  0.70877  0.47941  0.03277  1.0000
  S   S794      1.0  0.72635  0.00386  0.38557  1.0000
  C   C2741     1.0  0.77383  0.46874  0.01881  1.0000
  H   H4674     1.0  0.63285  0.47170  0.98835  1.0000
  H   H4675     1.0  0.65549  0.03304  0.44963  1.0000
  H   H4676     1.0  0.69439  0.47859  0.01116  1.0000
  C   C2742     1.0  0.59982  0.37077  0.98341  1.0000
  C   C2743     1.0  0.77931  0.98621  0.45250  1.0000
  H   H4677     1.0  0.77854  0.44185  0.06751  1.0000
  S   S795      1.0  0.59000  0.04172  0.39499  1.0000
  H   H4678     1.0  0.59708  0.16209  0.00597  1.0000
  H   H4679     1.0  0.62840  0.00034  0.38699  1.0000
  H   H4680     1.0  0.65196  0.00538  0.44416  1.0000
  H   H4681     1.0  0.68563  0.40321  0.99095  1.0000
  H   H4682     1.0  0.66633  0.06221  0.47897  1.0000
  H   H4683     1.0  0.68217  0.06597  0.43986  1.0000
  C   C2744     1.0  0.59518  0.37187  0.01838  1.0000
  C   C2745     1.0  0.63598  0.46895  0.01540  1.0000
  C   C2746     1.0  0.60420  0.36056  0.02320  1.0000
  H   H4684     1.0  0.58757  0.01349  0.41037  1.0000
  H   H4685     1.0  0.70848  0.46946  0.99240  1.0000
  C   C2747     1.0  0.72929  0.99028  0.46250  1.0000
  C   C2748     1.0  0.60815  0.38624  0.02062  1.0000
  H   H4686     1.0  0.75829  0.98859  0.37892  1.0000
  H   H4687     1.0  0.61165  0.99045  0.38372  1.0000
  C   C2749     1.0  0.61519  0.36214  0.02669  1.0000
  C   C2750     1.0  0.61728  0.37492  0.02523  1.0000
  H   H4688     1.0  0.62217  0.35344  0.03052  1.0000
  H   H4689     1.0  0.62573  0.37602  0.02804  1.0000
  C   C2751     1.0  0.68629  0.41264  0.01975  1.0000
  C   C2752     1.0  0.69970  0.40721  0.01998  1.0000
  C   C2753     1.0  0.70840  0.41554  0.01815  1.0000
  C   C2754     1.0  0.70370  0.42935  0.01602  1.0000
  C   C2755     1.0  0.69028  0.43473  0.01596  1.0000
  C   C2756     1.0  0.68161  0.42642  0.01792  1.0000
  H   H4690     1.0  0.70337  0.39654  0.02149  1.0000
  H   H4691     1.0  0.71871  0.41130  0.01828  1.0000
  H   H4692     1.0  0.68653  0.44539  0.01450  1.0000
  H   H4693     1.0  0.67125  0.43071  0.01820  1.0000
  H   H4694     1.0  0.66612  0.00771  0.41156  1.0000
  H   H4695     1.0  0.69928  0.02989  0.47922  1.0000
  H   H4696     1.0  0.66608  0.99226  0.43981  1.0000
  H   H4697     1.0  0.68849  0.02260  0.45886  1.0000
  C   C2757     1.0  0.77204  0.05417  0.46537  1.0000
  H   H4698     1.0  0.59484  0.13926  0.99754  1.0000
  C   C2758     1.0  0.77260  0.03106  0.41196  1.0000
  H   H4699     1.0  0.58844  0.04786  0.30753  1.0000
  H   H4700     1.0  0.78228  0.05311  0.37234  1.0000
  H   H4701     1.0  0.69207  0.99548  0.38520  1.0000
  H   H4702     1.0  0.68268  0.99149  0.36930  1.0000
  H   H4703     1.0  0.66783  0.99523  0.47552  1.0000
  H   H4704     1.0  0.59347  0.18081  0.01547  1.0000
  H   H4705     1.0  0.68341  0.02277  0.40263  1.0000
  H   H4706     1.0  0.70577  0.02224  0.45708  1.0000
  H   H4707     1.0  0.72336  0.98979  0.36809  1.0000
  H   H4708     1.0  0.67819  0.00575  0.42095  1.0000
  H   H4709     1.0  0.64679  0.99072  0.46751  1.0000
  H   H4710     1.0  0.58847  0.22293  0.03795  1.0000
  H   H4711     1.0  0.67476  0.99734  0.39107  1.0000
  H   H4712     1.0  0.58991  0.39336  0.01380  1.0000
  H   H4713     1.0  0.71834  0.03356  0.46406  1.0000
  H   H4714     1.0  0.59599  0.15946  0.98543  1.0000
  C   C2759     1.0  0.66519  0.03282  0.37276  1.0000
  C   C2760     1.0  0.63633  0.03005  0.45049  1.0000
  H   H4715     1.0  0.66549  0.06755  0.44985  1.0000
  H   H4716     1.0  0.59421  0.03432  0.34097  1.0000
  H   H4717     1.0  0.77500  0.00798  0.44470  1.0000
  H   H4718     1.0  0.69085  0.02443  0.36576  1.0000
  C   C2761     1.0  0.69616  0.02188  0.46423  1.0000
  H   H4719     1.0  0.59690  0.06119  0.32075  1.0000
  H   H4720     1.0  0.70653  0.40860  0.98428  1.0000
  H   H4721     1.0  0.77257  0.99161  0.41039  1.0000
  S   S796      1.0  0.64432  0.99194  0.40651  1.0000
  H   H4722     1.0  0.68970  0.06555  0.46987  1.0000
  H   H4723     1.0  0.61513  0.01888  0.47876  1.0000
  C   C2762     1.0  0.78247  0.47744  0.01482  1.0000
  H   H4724     1.0  0.62671  0.33924  0.00277  1.0000
  H   H4725     1.0  0.77774  0.00267  0.46123  1.0000
  C   C2763     1.0  0.62600  0.99132  0.39380  1.0000
  H   H4726     1.0  0.64407  0.33734  0.00031  1.0000
  H   H4727     1.0  0.70216  0.01485  0.37560  1.0000
  C   C2764     1.0  0.68490  0.01320  0.39972  1.0000
  H   H4728     1.0  0.77917  0.46300  0.06776  1.0000
  H   H4729     1.0  0.72029  0.41853  0.99031  1.0000
  H   H4730     1.0  0.65451  0.03443  0.37311  1.0000
  H   H4731     1.0  0.75550  0.04615  0.46560  1.0000
  C   C2765     1.0  0.77995  0.07659  0.44108  1.0000
  C   C2766     1.0  0.76184  0.05277  0.45842  1.0000
  H   H4732     1.0  0.60135  0.01757  0.38433  1.0000
  H   H4733     1.0  0.63979  0.37298  0.99881  1.0000
  C   C2767     1.0  0.66117  0.05456  0.40214  1.0000
  C   C2768     1.0  0.66492  0.04409  0.41261  1.0000
  C   C2769     1.0  0.67620  0.04334  0.41722  1.0000
  C   C2770     1.0  0.68356  0.05325  0.41159  1.0000
  C   C2771     1.0  0.67959  0.06383  0.40139  1.0000
  C   C2772     1.0  0.66858  0.06438  0.39658  1.0000
  H   H4734     1.0  0.65922  0.03654  0.41713  1.0000
  H   H4735     1.0  0.67903  0.03528  0.42532  1.0000
  H   H4736     1.0  0.68511  0.07159  0.39709  1.0000
  H   H4737     1.0  0.66575  0.07253  0.38854  1.0000
  H   H4738     1.0  0.77204  0.04623  0.47469  1.0000
  C   C2773     1.0  0.61650  0.98580  0.39200  1.0000
  H   H4739     1.0  0.61021  0.35586  0.99692  1.0000
  H   H4740     1.0  0.58697  0.99463  0.40183  1.0000
  H   H4741     1.0  0.66608  0.03136  0.39277  1.0000
  H   H4742     1.0  0.68445  0.04182  0.38115  1.0000
  N   N194      1.0  0.68179  0.01559  0.38619  1.0000
  H   H4743     1.0  0.76865  0.06396  0.41071  1.0000
  H   H4744     1.0  0.62747  0.99610  0.46001  1.0000
  C   C2774     1.0  0.73446  0.00076  0.46288  1.0000
  H   H4745     1.0  0.66687  0.04297  0.37114  1.0000
  C   C2775     1.0  0.59748  0.46689  0.98858  1.0000
  H   H4746     1.0  0.68036  0.99390  0.41121  1.0000
  H   H4747     1.0  0.73125  0.01067  0.45725  1.0000
  C   C2776     1.0  0.78606  0.02687  0.41221  1.0000
  C   C2777     1.0  0.64577  0.02549  0.46985  1.0000
  S   S797      1.0  0.65915  0.02471  0.47649  1.0000
  C   C2778     1.0  0.62401  0.02172  0.47247  1.0000
  C   C2779     1.0  0.62510  0.02561  0.45864  1.0000
  S   S798      1.0  0.71785  0.99283  0.45270  1.0000
  H   H4748     1.0  0.59189  0.21700  0.06174  1.0000
  H   H4749     1.0  0.72041  0.47888  0.98991  1.0000
  H   H4750     1.0  0.68816  0.00655  0.36158  1.0000
  C   C2780     1.0  0.61277  0.46387  0.98476  1.0000
  H   H4751     1.0  0.69940  0.03251  0.38678  1.0000
  C   C2781     1.0  0.59256  0.03677  0.33064  1.0000
  C   C2782     1.0  0.63815  0.37697  0.98848  1.0000
  C   C2783     1.0  0.77636  0.98940  0.42992  1.0000
  H   H4752     1.0  0.69552  0.00841  0.39942  1.0000
  H   H4753     1.0  0.78477  0.02283  0.37930  1.0000
  H   H4754     1.0  0.77516  0.46141  0.01315  1.0000
  C   C2784     1.0  0.63023  0.48199  0.01712  1.0000
  H   H4755     1.0  0.59402  0.06933  0.34119  1.0000
  H   H4756     1.0  0.75499  0.06252  0.45587  1.0000
  C   C2785     1.0  0.69239  0.02198  0.37605  1.0000
  H   H4757     1.0  0.66836  0.47047  0.00856  1.0000
  C   C2786     1.0  0.68810  0.05538  0.47498  1.0000
  H   H4758     1.0  0.58863  0.18797  0.99987  1.0000
  C   C2787     1.0  0.70977  0.47889  0.99375  1.0000
  H   H4759     1.0  0.60845  0.48196  0.00036  1.0000
  C   C2788     1.0  0.67680  0.00462  0.41145  1.0000
  H   H4760     1.0  0.75411  0.47950  0.04641  1.0000
  H   H4761     1.0  0.65432  0.45481  0.01105  1.0000
  H   H4762     1.0  0.68168  0.04405  0.45061  1.0000
  H   H4763     1.0  0.71018  0.46959  0.01431  1.0000
  C   C2789     1.0  0.67944  0.05024  0.45810  1.0000
  S   S799      1.0  0.59194  0.33068  0.99982  1.0000
  C   C2790     1.0  0.70313  0.41954  0.98290  1.0000
  H   H4764     1.0  0.61913  0.37279  0.99814  1.0000
  C   C2791     1.0  0.67611  0.06478  0.45023  1.0000
  H   H4765     1.0  0.70014  0.04004  0.36952  1.0000
  H   H4766     1.0  0.59879  0.05165  0.34466  1.0000
  C   C2792     1.0  0.77347  0.05357  0.41130  1.0000
  C   C2793     1.0  0.65920  0.99661  0.44812  1.0000
  H   H4767     1.0  0.76945  0.43303  0.04929  1.0000
  C   C2794     1.0  0.68089  0.00203  0.36994  1.0000
  H   H4768     1.0  0.70213  0.05967  0.44981  1.0000
  C   C2795     1.0  0.66807  0.02421  0.38635  1.0000
  C   C2796     1.0  0.62483  0.37481  0.98767  1.0000
  H   H4769     1.0  0.76594  0.04854  0.44944  1.0000
  H   H4770     1.0  0.78515  0.46780  0.05002  1.0000
  H   H4771     1.0  0.75585  0.04764  0.41150  1.0000
  H   H4772     1.0  0.77933  0.08067  0.43044  1.0000
  N   N195      1.0  0.69065  0.04677  0.46513  1.0000
  H   H4773     1.0  0.78158  0.43032  0.03411  1.0000
  C   C2797     1.0  0.78115  0.00031  0.45118  1.0000
  C   C2798     1.0  0.68252  0.00223  0.38371  1.0000
  C   C2799     1.0  0.78153  0.03307  0.37356  1.0000
  C   C2800     1.0  0.74821  0.98546  0.47769  1.0000
  H   H4774     1.0  0.67025  0.04766  0.46503  1.0000
  H   H4775     1.0  0.63694  0.03395  0.43994  1.0000
  H   H4776     1.0  0.77518  0.45053  0.05200  1.0000
  S   S800      1.0  0.77971  0.40082  0.01768  1.0000
  H   H4777     1.0  0.66515  0.00041  0.45258  1.0000
  H   H4778     1.0  0.63506  0.99903  0.44273  1.0000
  C   C2801     1.0  0.59067  0.06018  0.34203  1.0000
  H   H4779     1.0  0.76852  0.98679  0.45603  1.0000
  C   C2802     1.0  0.65771  0.47376  0.01081  1.0000
  H   H4780     1.0  0.78000  0.02950  0.45517  1.0000
  C   C2803     1.0  0.77878  0.42658  0.04506  1.0000
  H   H4781     1.0  0.63324  0.35191  0.00532  1.0000
  H   H4782     1.0  0.59889  0.37949  0.98750  1.0000
  C   C2804     1.0  0.63476  0.34479  0.99901  1.0000
  H   H4783     1.0  0.60232  0.00277  0.47476  1.0000
  H   H4784     1.0  0.59789  0.99164  0.41954  1.0000
  H   H4785     1.0  0.76779  0.06367  0.46885  1.0000
  C   C2805     1.0  0.64675  0.02976  0.45604  1.0000
  H   H4786     1.0  0.67053  0.02848  0.36400  1.0000
  H   H4787     1.0  0.59385  0.46940  0.99858  1.0000
  H   H4788     1.0  0.71215  0.43509  0.98423  1.0000
  H   H4789     1.0  0.71401  0.98800  0.41031  1.0000
  H   H4790     1.0  0.67063  0.00672  0.36873  1.0000
  H   H4791     1.0  0.77822  0.99959  0.42692  1.0000
  C   C2806     1.0  0.71591  0.04444  0.45997  1.0000
  H   H4792     1.0  0.59239  0.00663  0.37222  1.0000
  C   C2807     1.0  0.76621  0.04436  0.41182  1.0000
  H   H4793     1.0  0.59002  0.23903  0.02815  1.0000
  C   C2808     1.0  0.59707  0.38464  0.01728  1.0000
  H   H4794     1.0  0.78194  0.05748  0.43746  1.0000
  C   C2809     1.0  0.63208  0.99110  0.45145  1.0000
  H   H4795     1.0  0.66043  0.01813  0.39098  1.0000
  H   H4796     1.0  0.69024  0.98477  0.46377  1.0000
  C   C2810     1.0  0.69207  0.03247  0.47273  1.0000
  H   H4797     1.0  0.60224  0.03807  0.32378  1.0000
  C   C2811     1.0  0.78334  0.44697  0.05746  1.0000
  H   H4798     1.0  0.76978  0.07841  0.44727  1.0000
  H   H4799     1.0  0.59416  0.45763  0.98974  1.0000
  H   H4800     1.0  0.77066  0.03588  0.37735  1.0000
  H   H4801     1.0  0.61279  0.99587  0.44671  1.0000
  H   H4802     1.0  0.69537  0.05139  0.48151  1.0000
  H   H4803     1.0  0.78600  0.04207  0.38687  1.0000
  H   H4804     1.0  0.78598  0.08222  0.44328  1.0000
  C   C2812     1.0  0.78653  0.06164  0.44294  1.0000
  C   C2813     1.0  0.78630  0.45965  0.05896  1.0000
  N   N196      1.0  0.78598  0.05403  0.45721  1.0000
  H   H4805     1.0  0.78610  0.42074  0.06289  1.0000
  H   H4806     1.0  0.58758  0.35935  0.04898  1.0000
  S   S801      1.0  0.58710  0.29405  0.00997  1.0000
  C   C2814     1.0  0.58704  0.22159  0.07043  1.0000
  H   H4807     1.0  0.58672  0.37080  0.01560  1.0000
  C   C2815     1.0  0.58741  0.14006  0.00699  1.0000
  H   H4808     1.0  0.58761  0.26885  0.00521  1.0000
  C   C2816     1.0  0.58737  0.23333  0.03859  1.0000
  C   C2817     1.0  0.77926  0.98473  0.41680  1.0000
  C   C2818     1.0  0.71369  0.98431  0.40199  1.0000
  H   H4809     1.0  0.73836  0.45509  0.98225  1.0000
  C   C2819     1.0  0.71520  0.42492  0.98228  1.0000
  H   H4810     1.0  0.78164  0.46778  0.98297  1.0000
  H   H4811     1.0  0.63587  0.34404  0.97880  1.0000
  H   H4812     1.0  0.62764  0.41743  0.98108  1.0000
  H   H4813     1.0  0.61309  0.40886  0.97298  1.0000
  N   N197      1.0  0.77828  0.47539  0.88454  1.0000
  H   H4814     1.0  0.64017  0.99594  0.54525  1.0000
  Fe  Fe401     1.0  0.75761  0.00418  0.52105  1.0000
  C   C2820     1.0  0.59325  0.00567  0.48227  1.0000
  S   S802      1.0  0.76189  0.02457  0.51240  1.0000
  H   H4815     1.0  0.68004  0.03108  0.55104  1.0000
  H   H4816     1.0  0.58969  0.12309  0.85549  1.0000
  C   C2821     1.0  0.71246  0.40990  0.95647  1.0000
  H   H4817     1.0  0.59251  0.32765  0.88325  1.0000
  H   H4818     1.0  0.67386  0.06283  0.49158  1.0000
  H   H4819     1.0  0.58867  0.04876  0.56335  1.0000
  Fe  Fe402     1.0  0.74943  0.02599  0.49810  1.0000
  C   C2822     1.0  0.59853  0.10125  0.88110  1.0000
  H   H4820     1.0  0.70154  0.02528  0.55020  1.0000
  C   C2823     1.0  0.68453  0.41980  0.97334  1.0000
  H   H4821     1.0  0.65179  0.45811  0.97788  1.0000
  H   H4822     1.0  0.63924  0.47255  0.87779  1.0000
  C   C2824     1.0  0.59902  0.02209  0.58040  1.0000
  S   S803      1.0  0.75264  0.99485  0.54286  1.0000
  H   H4823     1.0  0.65627  0.47467  0.90942  1.0000
  C   C2825     1.0  0.58827  0.10224  0.89437  1.0000
  C   C2826     1.0  0.69528  0.98726  0.56302  1.0000
  H   H4824     1.0  0.75911  0.47951  0.97483  1.0000
  H   H4825     1.0  0.69853  0.00531  0.56565  1.0000
  S   S804      1.0  0.73213  0.42986  0.92606  1.0000
  Fe  Fe403     1.0  0.62071  0.40946  0.92542  1.0000
  S   S805      1.0  0.63565  0.39678  0.91232  1.0000
  S   S806      1.0  0.61555  0.40303  0.94762  1.0000
  Fe  Fe404     1.0  0.61329  0.43139  0.90237  1.0000
  S   S807      1.0  0.62703  0.42022  0.88705  1.0000
  H   H4826     1.0  0.67566  0.42506  0.97959  1.0000
  Fe  Fe405     1.0  0.61982  0.40209  0.90057  1.0000
  S   S808      1.0  0.61670  0.38385  0.89597  1.0000
  Fe  Fe406     1.0  0.64147  0.41587  0.90019  1.0000
  S   S809      1.0  0.66188  0.41971  0.89011  1.0000
  S   S810      1.0  0.60466  0.41381  0.91449  1.0000
  S   S811      1.0  0.62807  0.42798  0.91462  1.0000
  H   H4827     1.0  0.68413  0.48344  0.89060  1.0000
  C   C2827     1.0  0.62247  0.41059  0.96660  1.0000
  C   C2828     1.0  0.76842  0.48177  0.87579  1.0000
  H   H4828     1.0  0.67926  0.45885  0.96247  1.0000
  H   H4829     1.0  0.67153  0.45363  0.89360  1.0000
  H   H4830     1.0  0.76707  0.42413  0.97151  1.0000
  C   C2829     1.0  0.60503  0.00519  0.52040  1.0000
  H   H4831     1.0  0.64597  0.46059  0.96316  1.0000
  S   S812      1.0  0.76496  0.43149  0.89616  1.0000
  S   S813      1.0  0.64303  0.00925  0.51432  1.0000
  Fe  Fe407     1.0  0.76174  0.99807  0.49426  1.0000
  Fe  Fe408     1.0  0.71585  0.43255  0.91560  1.0000
  S   S814      1.0  0.70616  0.45318  0.91861  1.0000
  S   S815      1.0  0.70282  0.41758  0.92354  1.0000
  Fe  Fe409     1.0  0.71976  0.45992  0.89936  1.0000
  N   N198      1.0  0.61922  0.47493  0.97558  1.0000
  Fe  Fe410     1.0  0.72310  0.45100  0.92767  1.0000
  S   S816      1.0  0.71744  0.45761  0.94689  1.0000
  H   H4832     1.0  0.69030  0.06438  0.51393  1.0000
  C   C2830     1.0  0.58948  0.18022  0.97818  1.0000
  H   H4833     1.0  0.59892  0.07271  0.86036  1.0000
  H   H4834     1.0  0.59274  0.01553  0.48399  1.0000
  C   C2831     1.0  0.59011  0.05895  0.56139  1.0000
  H   H4835     1.0  0.61937  0.37772  0.96355  1.0000
  H   H4836     1.0  0.74991  0.42791  0.96313  1.0000
  H   H4837     1.0  0.64106  0.38206  0.96160  1.0000
  H   H4838     1.0  0.66718  0.02345  0.55200  1.0000
  N   N199      1.0  0.65293  0.45489  0.91893  1.0000
  H   H4839     1.0  0.72257  0.42476  0.97271  1.0000
  H   H4840     1.0  0.62323  0.44715  0.93976  1.0000
  C   C2832     1.0  0.65154  0.45224  0.90629  1.0000
  C   C2833     1.0  0.69097  0.04474  0.51203  1.0000
  C   C2834     1.0  0.78316  0.48145  0.96325  1.0000
  S   S817      1.0  0.67435  0.04549  0.52071  1.0000
  C   C2835     1.0  0.76024  0.47862  0.90594  1.0000
  C   C2836     1.0  0.67019  0.44505  0.93408  1.0000
  C   C2837     1.0  0.71246  0.03311  0.50125  1.0000
  H   H4841     1.0  0.69966  0.44529  0.96928  1.0000
  H   H4842     1.0  0.68565  0.98916  0.56037  1.0000
  C   C2838     1.0  0.61059  0.46397  0.89690  1.0000
  S   S818      1.0  0.77530  0.99391  0.50805  1.0000
  H   H4843     1.0  0.70470  0.02694  0.53266  1.0000
  H   H4844     1.0  0.59653  0.37004  0.87223  1.0000
  H   H4845     1.0  0.59126  0.00095  0.82956  1.0000
  C   C2839     1.0  0.62259  0.46341  0.88748  1.0000
  H   H4846     1.0  0.65307  0.44135  0.90712  1.0000
  H   H4847     1.0  0.74516  0.45664  0.93416  1.0000
  H   H4848     1.0  0.70600  0.40546  0.95334  1.0000
  H   H4849     1.0  0.62597  0.45579  0.88172  1.0000
  H   H4850     1.0  0.63774  0.48100  0.97195  1.0000
  C   C2840     1.0  0.59000  0.07510  0.86822  1.0000
  H   H4851     1.0  0.76812  0.47982  0.94559  1.0000
  N   N200      1.0  0.77650  0.41182  0.95686  1.0000
  H   H4852     1.0  0.75616  0.47283  0.91590  1.0000
  H   H4853     1.0  0.59478  0.06153  0.55059  1.0000
  H   H4854     1.0  0.60675  0.35993  0.90361  1.0000
  H   H4855     1.0  0.76771  0.46077  0.89837  1.0000
  S   S819      1.0  0.71370  0.47819  0.88412  1.0000
  H   H4856     1.0  0.59710  0.00970  0.52807  1.0000
  C   C2841     1.0  0.67306  0.41905  0.89965  1.0000
  C   C2842     1.0  0.68397  0.42491  0.89342  1.0000
  C   C2843     1.0  0.69309  0.42461  0.90070  1.0000
  C   C2844     1.0  0.69154  0.41811  0.91417  1.0000
  C   C2845     1.0  0.68070  0.41210  0.92037  1.0000
  C   C2846     1.0  0.67137  0.41272  0.91318  1.0000
  H   H4857     1.0  0.68531  0.42983  0.88296  1.0000
  H   H4858     1.0  0.70141  0.42926  0.89584  1.0000
  H   H4859     1.0  0.67944  0.40710  0.93082  1.0000
  H   H4860     1.0  0.66300  0.40816  0.91805  1.0000
  C   C2847     1.0  0.62616  0.40838  0.95366  1.0000
  C   C2848     1.0  0.63830  0.41060  0.94547  1.0000
  H   H4861     1.0  0.68107  0.44233  0.93307  1.0000
  H   H4862     1.0  0.64136  0.40853  0.93559  1.0000
  H   H4863     1.0  0.69492  0.02503  0.50847  1.0000
  C   C2849     1.0  0.77169  0.46925  0.89847  1.0000
  H   H4864     1.0  0.58896  0.11068  0.89808  1.0000
  S   S820      1.0  0.60101  0.45224  0.89948  1.0000
  C   C2850     1.0  0.69134  0.44033  0.97126  1.0000
  H   H4865     1.0  0.59744  0.34737  0.87182  1.0000
  H   H4866     1.0  0.63855  0.45077  0.97883  1.0000
  C   C2851     1.0  0.70559  0.42421  0.95810  1.0000
  H   H4867     1.0  0.59956  0.37402  0.97268  1.0000
  S   S821      1.0  0.64566  0.04010  0.50857  1.0000
  C   C2852     1.0  0.70183  0.99116  0.52997  1.0000
  C   C2853     1.0  0.61889  0.08695  0.86037  1.0000
  H   H4868     1.0  0.68167  0.00481  0.54376  1.0000
  H   H4869     1.0  0.68611  0.01913  0.53277  1.0000
  H   H4870     1.0  0.64586  0.46785  0.93967  1.0000
  H   H4871     1.0  0.76669  0.41276  0.94130  1.0000
  H   H4872     1.0  0.69396  0.99711  0.52452  1.0000
  H   H4873     1.0  0.70930  0.98515  0.52318  1.0000
  S   S822      1.0  0.74362  0.00658  0.50809  1.0000
  C   C2854     1.0  0.62726  0.36890  0.96607  1.0000
  H   H4874     1.0  0.60146  0.11100  0.87661  1.0000
  H   H4875     1.0  0.63959  0.47422  0.91503  1.0000
  H   H4876     1.0  0.76874  0.42837  0.94213  1.0000
  H   H4877     1.0  0.63333  0.01873  0.48880  1.0000
  C   C2855     1.0  0.63009  0.47292  0.88525  1.0000
  H   H4878     1.0  0.66918  0.48390  0.97694  1.0000
  C   C2856     1.0  0.59628  0.02187  0.55865  1.0000
  C   C2857     1.0  0.62667  0.98748  0.50279  1.0000
  N   N201      1.0  0.60136  0.99294  0.50415  1.0000
  H   H4879     1.0  0.75639  0.40823  0.97940  1.0000
  H   H4880     1.0  0.65594  0.41715  0.94375  1.0000
  H   H4881     1.0  0.62362  0.08995  0.86668  1.0000
  C   C2858     1.0  0.64931  0.46970  0.91784  1.0000
  S   S823      1.0  0.65215  0.42588  0.96788  1.0000
  H   H4882     1.0  0.61616  0.45483  0.98047  1.0000
  H   H4883     1.0  0.64913  0.36513  0.95965  1.0000
  C   C2859     1.0  0.59946  0.00582  0.50828  1.0000
  H   H4884     1.0  0.70019  0.42852  0.94986  1.0000
  S   S824      1.0  0.73598  0.45963  0.90873  1.0000
  H   H4885     1.0  0.78426  0.45546  0.88075  1.0000
  H   H4886     1.0  0.61812  0.07642  0.86436  1.0000
  H   H4887     1.0  0.65945  0.45416  0.88496  1.0000
  C   C2860     1.0  0.66644  0.98956  0.48606  1.0000
  C   C2861     1.0  0.73995  0.45565  0.97175  1.0000
  C   C2862     1.0  0.64922  0.47454  0.93013  1.0000
  H   H4888     1.0  0.62642  0.36121  0.96136  1.0000
  H   H4889     1.0  0.67349  0.45641  0.91384  1.0000
  C   C2863     1.0  0.59880  0.36820  0.90101  1.0000
  S   S825      1.0  0.73445  0.04438  0.49165  1.0000
  H   H4890     1.0  0.72172  0.41010  0.94867  1.0000
  H   H4891     1.0  0.64033  0.37654  0.94776  1.0000
  C   C2864     1.0  0.64255  0.41834  0.96277  1.0000
  H   H4892     1.0  0.78020  0.47371  0.96041  1.0000
  C   C2865     1.0  0.75259  0.45524  0.96355  1.0000
  S   S826      1.0  0.76598  0.45323  0.97066  1.0000
  H   H4893     1.0  0.62550  0.02972  0.55566  1.0000
  H   H4894     1.0  0.77065  0.39343  0.95930  1.0000
  H   H4895     1.0  0.59839  0.36872  0.85564  1.0000
  C   C2866     1.0  0.59135  0.36829  0.86545  1.0000
  C   C2867     1.0  0.71782  0.04412  0.49961  1.0000
  C   C2868     1.0  0.70967  0.05545  0.50394  1.0000
  C   C2869     1.0  0.69640  0.05566  0.51032  1.0000
  C   C2870     1.0  0.64274  0.45972  0.97411  1.0000
  C   C2871     1.0  0.60547  0.09645  0.85873  1.0000
  C   C2872     1.0  0.61612  0.02691  0.56033  1.0000
  C   C2873     1.0  0.64030  0.37328  0.95860  1.0000
  C   C2874     1.0  0.58996  0.38742  0.93838  1.0000
  C   C2875     1.0  0.63305  0.47246  0.97770  1.0000
  H   H4896     1.0  0.59758  0.05889  0.56675  1.0000
  H   H4897     1.0  0.59244  0.47462  0.98127  1.0000
  H   H4898     1.0  0.59038  0.18129  0.96733  1.0000
  C   C2876     1.0  0.60849  0.02540  0.55246  1.0000
  H   H4899     1.0  0.60752  0.10658  0.85456  1.0000
  H   H4900     1.0  0.62577  0.46370  0.93292  1.0000
  H   H4901     1.0  0.74812  0.41251  0.96046  1.0000
  H   H4902     1.0  0.65876  0.46857  0.89050  1.0000
  C   C2877     1.0  0.62882  0.45347  0.93116  1.0000
  H   H4903     1.0  0.59670  0.36576  0.94016  1.0000
  H   H4904     1.0  0.59193  0.40195  0.89109  1.0000
  H   H4905     1.0  0.58750  0.06548  0.87421  1.0000
  C   C2878     1.0  0.74371  0.45651  0.94461  1.0000
  C   C2879     1.0  0.75183  0.42176  0.95574  1.0000
  H   H4906     1.0  0.76616  0.46347  0.87169  1.0000
  C   C2880     1.0  0.66718  0.44928  0.92003  1.0000
  C   C2881     1.0  0.77706  0.43611  0.91359  1.0000
  H   H4907     1.0  0.59892  0.18109  0.97971  1.0000
  H   H4908     1.0  0.71866  0.02442  0.49768  1.0000
  Fe  Fe411     1.0  0.66274  0.03193  0.51882  1.0000
  C   C2882     1.0  0.72919  0.45674  0.96644  1.0000
  H   H4909     1.0  0.75304  0.47006  0.88450  1.0000
  H   H4910     1.0  0.72386  0.01109  0.55129  1.0000
  H   H4911     1.0  0.59666  0.32433  0.86659  1.0000
  H   H4912     1.0  0.76427  0.45538  0.94352  1.0000
  C   C2883     1.0  0.77679  0.42110  0.96502  1.0000
  H   H4913     1.0  0.72444  0.02647  0.53938  1.0000
  Fe  Fe412     1.0  0.74355  0.43869  0.90598  1.0000
  C   C2884     1.0  0.59191  0.99485  0.49533  1.0000
  H   H4914     1.0  0.61267  0.01122  0.51724  1.0000
  H   H4915     1.0  0.60762  0.09449  0.88406  1.0000
  C   C2885     1.0  0.70195  0.99927  0.55790  1.0000
  N   N202      1.0  0.70074  0.00776  0.54424  1.0000
  C   C2886     1.0  0.64654  0.41548  0.95007  1.0000
  H   H4916     1.0  0.64696  0.37296  0.98137  1.0000
  S   S827      1.0  0.65154  0.01938  0.53658  1.0000
  H   H4917     1.0  0.66619  0.45301  0.93974  1.0000
  H   H4918     1.0  0.67764  0.01592  0.56355  1.0000
  H   H4919     1.0  0.71945  0.45707  0.97290  1.0000
  H   H4920     1.0  0.72745  0.01170  0.53357  1.0000
  H   H4921     1.0  0.58671  0.00637  0.81378  1.0000
  C   C2887     1.0  0.58862  0.32595  0.87545  1.0000
  S   S828      1.0  0.61340  0.02888  0.53484  1.0000
  H   H4922     1.0  0.71804  0.99391  0.53605  1.0000
  C   C2888     1.0  0.68297  0.44852  0.96090  1.0000
  H   H4923     1.0  0.76724  0.44008  0.91888  1.0000
  H   H4924     1.0  0.71159  0.00727  0.52384  1.0000
  C   C2889     1.0  0.62041  0.47503  0.96115  1.0000
  H   H4925     1.0  0.62569  0.46512  0.95892  1.0000
  H   H4926     1.0  0.67228  0.04711  0.49047  1.0000
  C   C2890     1.0  0.76003  0.47268  0.87491  1.0000
  C   C2891     1.0  0.70645  0.01973  0.54211  1.0000
  H   H4927     1.0  0.60950  0.99516  0.52551  1.0000
  H   H4928     1.0  0.61717  0.02686  0.58022  1.0000
  C   C2892     1.0  0.60082  0.38126  0.89737  1.0000
  C   C2893     1.0  0.68654  0.01290  0.54295  1.0000
  H   H4929     1.0  0.60067  0.07607  0.88215  1.0000
  H   H4930     1.0  0.61822  0.99069  0.55019  1.0000
  H   H4931     1.0  0.59281  0.98535  0.49242  1.0000
  Fe  Fe413     1.0  0.65474  0.02279  0.49869  1.0000
  H   H4932     1.0  0.74577  0.42763  0.94832  1.0000
  C   C2894     1.0  0.61136  0.02533  0.57425  1.0000
  H   H4933     1.0  0.60394  0.01309  0.49982  1.0000
  H   H4934     1.0  0.59691  0.47451  0.91146  1.0000
  H   H4935     1.0  0.64140  0.45656  0.90465  1.0000
  C   C2895     1.0  0.76643  0.41874  0.94836  1.0000
  H   H4936     1.0  0.59037  0.02059  0.55262  1.0000
  H   H4937     1.0  0.71370  0.06402  0.50260  1.0000
  H   H4938     1.0  0.67124  0.44017  0.91592  1.0000
  H   H4939     1.0  0.64534  0.44751  0.94026  1.0000
  H   H4940     1.0  0.75393  0.47812  0.86741  1.0000
  C   C2896     1.0  0.66096  0.45755  0.89323  1.0000
  C   C2897     1.0  0.64376  0.44776  0.93038  1.0000
  C   C2898     1.0  0.63948  0.98650  0.54407  1.0000
  C   C2899     1.0  0.61520  0.98868  0.49629  1.0000
  C   C2900     1.0  0.70861  0.00023  0.53346  1.0000
  H   H4941     1.0  0.66657  0.43594  0.93993  1.0000
  C   C2901     1.0  0.72139  0.01687  0.54160  1.0000
  C   C2902     1.0  0.60623  0.47398  0.90423  1.0000
  H   H4942     1.0  0.71320  0.43025  0.95533  1.0000
  H   H4943     1.0  0.62567  0.45341  0.92218  1.0000
  S   S829      1.0  0.67247  0.01557  0.50785  1.0000
  Fe  Fe414     1.0  0.65985  0.00376  0.52453  1.0000
  S   S830      1.0  0.59287  0.02137  0.59772  1.0000
  C   C2903     1.0  0.77861  0.43139  0.90218  1.0000
  C   C2904     1.0  0.67753  0.02126  0.55307  1.0000
  Fe  Fe415     1.0  0.63532  0.02583  0.52533  1.0000
  S   S831      1.0  0.72803  0.43947  0.89520  1.0000
  C   C2905     1.0  0.68561  0.40494  0.98020  1.0000
  N   N203      1.0  0.66447  0.38434  0.87768  1.0000
  C   C2906     1.0  0.66002  0.39852  0.87041  1.0000
  C   C2907     1.0  0.67097  0.38486  0.88828  1.0000
  C   C2908     1.0  0.65228  0.37862  0.88402  1.0000
  C   C2909     1.0  0.67385  0.37677  0.86757  1.0000
  C   C2910     1.0  0.65172  0.40057  0.86006  1.0000
  C   C2911     1.0  0.68403  0.38973  0.88314  1.0000
  C   C2912     1.0  0.65299  0.36676  0.89614  1.0000
  C   C2913     1.0  0.68085  0.36238  0.87297  1.0000
  H   H4944     1.0  0.65391  0.40472  0.87767  1.0000
  H   H4945     1.0  0.66856  0.40320  0.86498  1.0000
  H   H4946     1.0  0.67329  0.37504  0.89508  1.0000
  H   H4947     1.0  0.66402  0.39134  0.89496  1.0000
  H   H4948     1.0  0.64378  0.38639  0.88764  1.0000
  H   H4949     1.0  0.64913  0.37549  0.87652  1.0000
  H   H4950     1.0  0.66856  0.37599  0.86036  1.0000
  H   H4951     1.0  0.68153  0.38231  0.86110  1.0000
  H   H4952     1.0  0.64233  0.39714  0.86464  1.0000
  H   H4953     1.0  0.64890  0.41141  0.85576  1.0000
  H   H4954     1.0  0.65736  0.39579  0.85160  1.0000
  H   H4955     1.0  0.68278  0.40008  0.87714  1.0000
  H   H4956     1.0  0.68766  0.38980  0.89188  1.0000
  H   H4957     1.0  0.69186  0.38303  0.87737  1.0000
  H   H4958     1.0  0.64381  0.36295  0.89876  1.0000
  H   H4959     1.0  0.65324  0.36992  0.90510  1.0000
  H   H4960     1.0  0.66140  0.35838  0.89420  1.0000
  H   H4961     1.0  0.67486  0.35523  0.87363  1.0000
  H   H4962     1.0  0.68328  0.36083  0.88274  1.0000
  H   H4963     1.0  0.69055  0.35987  0.86605  1.0000
  H   H4964     1.0  0.60190  0.47041  0.96087  1.0000
  C   C2914     1.0  0.59544  0.37331  0.94597  1.0000
  H   H4965     1.0  0.71251  0.99503  0.55819  1.0000
  C   C2915     1.0  0.69898  0.03350  0.50728  1.0000
  C   C2916     1.0  0.63068  0.41555  0.97116  1.0000
  H   H4966     1.0  0.58910  0.37054  0.95597  1.0000
  H   H4967     1.0  0.60238  0.09413  0.85068  1.0000
  H   H4968     1.0  0.59897  0.36024  0.83234  1.0000
  C   C2917     1.0  0.73106  0.45702  0.95293  1.0000
  N   N204      1.0  0.69633  0.42568  0.97135  1.0000
  H   H4969     1.0  0.78657  0.40754  0.92884  1.0000
  H   H4970     1.0  0.71567  0.40327  0.96548  1.0000
  H   H4971     1.0  0.61723  0.99575  0.48657  1.0000
  C   C2918     1.0  0.75449  0.45581  0.94990  1.0000
  H   H4972     1.0  0.60539  0.37286  0.94733  1.0000
  Fe  Fe416     1.0  0.77863  0.01442  0.49819  1.0000
  N   N205      1.0  0.59460  0.09633  0.87120  1.0000
  H   H4973     1.0  0.64581  0.43715  0.92987  1.0000
  H   H4974     1.0  0.62766  0.99742  0.50294  1.0000
  H   H4975     1.0  0.62573  0.08745  0.85038  1.0000
  H   H4976     1.0  0.59260  0.39452  0.94243  1.0000
  C   C2919     1.0  0.67964  0.98539  0.49067  1.0000
  H   H4977     1.0  0.59596  0.38848  0.92792  1.0000
  H   H4978     1.0  0.67751  0.98745  0.50081  1.0000
  C   C2920     1.0  0.59165  0.02003  0.57259  1.0000
  C   C2921     1.0  0.77380  0.39856  0.96522  1.0000
  H   H4979     1.0  0.67420  0.44456  0.96198  1.0000
  H   H4980     1.0  0.68900  0.44926  0.95055  1.0000
  H   H4981     1.0  0.58886  0.16308  0.87689  1.0000
  H   H4982     1.0  0.68530  0.48224  0.86976  1.0000
  H   H4983     1.0  0.59164  0.98735  0.58651  1.0000
  C   C2922     1.0  0.59232  0.08249  0.87755  1.0000
  H   H4984     1.0  0.70002  0.48260  0.96393  1.0000
  H   H4985     1.0  0.59890  0.34350  0.85081  1.0000
  H   H4986     1.0  0.68573  0.99252  0.48393  1.0000
  C   C2923     1.0  0.76345  0.39866  0.97862  1.0000
  H   H4987     1.0  0.68523  0.44177  0.98130  1.0000
  H   H4988     1.0  0.65914  0.47596  0.92972  1.0000
  H   H4989     1.0  0.69902  0.48220  0.85591  1.0000
  H   H4990     1.0  0.77899  0.46489  0.90494  1.0000
  C   C2924     1.0  0.67430  0.05685  0.48443  1.0000
  S   S832      1.0  0.76659  0.01767  0.48300  1.0000
  H   H4991     1.0  0.75203  0.48278  0.90066  1.0000
  H   H4992     1.0  0.78308  0.39188  0.96789  1.0000
  H   H4993     1.0  0.77890  0.43066  0.95832  1.0000
  H   H4994     1.0  0.68179  0.42126  0.96363  1.0000
  C   C2925     1.0  0.59047  0.39186  0.89403  1.0000
  C   C2926     1.0  0.60745  0.47845  0.95633  1.0000
  H   H4995     1.0  0.60989  0.47922  0.94537  1.0000
  H   H4996     1.0  0.62644  0.48220  0.95448  1.0000
  H   H4997     1.0  0.59000  0.09289  0.90206  1.0000
  H   H4998     1.0  0.69434  0.39839  0.97527  1.0000
  H   H4999     1.0  0.58876  0.01067  0.51056  1.0000
  H   H5000     1.0  0.65934  0.99665  0.49193  1.0000
  C   C2927     1.0  0.62596  0.48266  0.89287  1.0000
  H   H5001     1.0  0.67672  0.40190  0.97984  1.0000
  C   C2928     1.0  0.61400  0.48319  0.90237  1.0000
  H   H5002     1.0  0.61230  0.35146  0.98156  1.0000
  C   C2929     1.0  0.58783  0.35455  0.87119  1.0000
  C   C2930     1.0  0.58876  0.36091  0.83857  1.0000
  C   C2931     1.0  0.58848  0.34841  0.85016  1.0000
  H   H5003     1.0  0.69300  0.98483  0.57411  1.0000
  N   N206      1.0  0.62530  0.36394  0.98100  1.0000
  H   H5004     1.0  0.64592  0.35363  0.98030  1.0000
  H   H5005     1.0  0.78649  0.40578  0.98023  1.0000
  H   H5006     1.0  0.78492  0.42263  0.98084  1.0000
  H   H5007     1.0  0.75745  0.39127  0.98012  1.0000
  H   H5008     1.0  0.59611  0.95762  0.13480  1.0000
  C   C2932     1.0  0.59422  0.55806  0.00991  1.0000
  H   H5009     1.0  0.75712  0.94834  0.42402  1.0000
  C   C2933     1.0  0.59259  0.94622  0.10439  1.0000
  H   H5010     1.0  0.65087  0.91710  0.45586  1.0000
  H   H5011     1.0  0.73079  0.51825  0.98507  1.0000
  H   H5012     1.0  0.64089  0.95363  0.39757  1.0000
  H   H5013     1.0  0.71685  0.57883  0.99400  1.0000
  H   H5014     1.0  0.59588  0.86038  0.38478  1.0000
  C   C2934     1.0  0.64823  0.94586  0.39274  1.0000
  H   H5015     1.0  0.58779  0.54359  0.02769  1.0000
  H   H5016     1.0  0.62458  0.89700  0.38942  1.0000
  C   C2935     1.0  0.69800  0.50365  0.00690  1.0000
  H   H5017     1.0  0.72519  0.56390  0.98831  1.0000
  C   C2936     1.0  0.58858  0.87820  0.41075  1.0000
  C   C2937     1.0  0.62915  0.97366  0.41329  1.0000
  H   H5018     1.0  0.61657  0.97952  0.45662  1.0000
  C   C2938     1.0  0.61342  0.97415  0.40079  1.0000
  Fe  Fe417     1.0  0.60594  0.92376  0.43342  1.0000
  S   S833      1.0  0.60932  0.90757  0.42244  1.0000
  H   H5019     1.0  0.59896  0.53620  0.01437  1.0000
  Fe  Fe418     1.0  0.60502  0.94529  0.40814  1.0000
  S   S834      1.0  0.60857  0.93105  0.39506  1.0000
  S   S835      1.0  0.60207  0.96690  0.39811  1.0000
  N   N207      1.0  0.70656  0.49081  0.01289  1.0000
  H   H5020     1.0  0.77502  0.91386  0.40724  1.0000
  Fe  Fe419     1.0  0.62365  0.91863  0.40696  1.0000
  S   S836      1.0  0.64423  0.90982  0.39676  1.0000
  C   C2939     1.0  0.70363  0.51091  0.99255  1.0000
  S   S837      1.0  0.62141  0.93373  0.41864  1.0000
  C   C2940     1.0  0.74662  0.94953  0.38995  1.0000
  N   N208      1.0  0.75504  0.96013  0.40428  1.0000
  C   C2941     1.0  0.72982  0.93805  0.47839  1.0000
  S   S838      1.0  0.77891  0.53767  0.00721  1.0000
  H   H5021     1.0  0.61568  0.88637  0.08818  1.0000
  H   H5022     1.0  0.75662  0.50059  0.99041  1.0000
  Fe  Fe420     1.0  0.66194  0.54459  0.00766  1.0000
  Fe  Fe421     1.0  0.70274  0.94076  0.41291  1.0000
  H   H5023     1.0  0.68905  0.91232  0.47644  1.0000
  C   C2942     1.0  0.66263  0.96193  0.38771  1.0000
  H   H5024     1.0  0.59169  0.93798  0.15527  1.0000
  S   S839      1.0  0.68752  0.93409  0.43070  1.0000
  S   S840      1.0  0.68541  0.89883  0.43281  1.0000
  C   C2943     1.0  0.72240  0.57486  0.98497  1.0000
  H   H5025     1.0  0.59446  0.53691  0.99420  1.0000
  S   S841      1.0  0.58921  0.93673  0.42396  1.0000
  H   H5026     1.0  0.78374  0.97939  0.46085  1.0000
  H   H5027     1.0  0.71812  0.51201  0.01095  1.0000
  S   S842      1.0  0.66215  0.49763  0.01099  1.0000
  H   H5028     1.0  0.67725  0.90772  0.45830  1.0000
  Fe  Fe422     1.0  0.76048  0.54098  0.99984  1.0000
  S   S843      1.0  0.74695  0.54986  0.01675  1.0000
  C   C2944     1.0  0.75905  0.49015  0.98926  1.0000
  Fe  Fe423     1.0  0.77457  0.51777  0.01785  1.0000
  S   S844      1.0  0.76175  0.52400  0.03649  1.0000
  Fe  Fe424     1.0  0.74484  0.52887  0.02630  1.0000
  S   S845      1.0  0.72520  0.52293  0.03566  1.0000
  Fe  Fe425     1.0  0.76515  0.54428  0.02527  1.0000
  S   S846      1.0  0.76953  0.55711  0.03623  1.0000
  S   S847      1.0  0.75750  0.52031  0.00892  1.0000
  H   H5029     1.0  0.66722  0.93010  0.40642  1.0000
  C   C2945     1.0  0.58936  0.97580  0.43369  1.0000
  C   C2946     1.0  0.72102  0.49115  0.00950  1.0000
  C   C2947     1.0  0.66399  0.96477  0.44208  1.0000
  H   H5030     1.0  0.66076  0.97844  0.46267  1.0000
  H   H5031     1.0  0.61193  0.57332  0.01821  1.0000
  H   H5032     1.0  0.65413  0.57347  0.05498  1.0000
  H   H5033     1.0  0.63910  0.92723  0.47376  1.0000
  H   H5034     1.0  0.73319  0.95739  0.42837  1.0000
  C   C2948     1.0  0.61064  0.86396  0.40229  1.0000
  H   H5035     1.0  0.61157  0.55141  0.98931  1.0000
  C   C2949     1.0  0.75291  0.97474  0.39765  1.0000
  H   H5036     1.0  0.70365  0.48706  0.98765  1.0000
  H   H5037     1.0  0.75464  0.94044  0.38938  1.0000
  C   C2950     1.0  0.64788  0.58402  0.01718  1.0000
  H   H5038     1.0  0.63412  0.56705  0.06351  1.0000
  H   H5039     1.0  0.75093  0.48543  0.99597  1.0000
  C   C2951     1.0  0.63722  0.58027  0.02976  1.0000
  C   C2952     1.0  0.69186  0.54464  0.01349  1.0000
  H   H5040     1.0  0.67224  0.96328  0.38839  1.0000
  C   C2953     1.0  0.71435  0.54167  0.01583  1.0000
  C   C2954     1.0  0.71248  0.53126  0.02698  1.0000
  C   C2955     1.0  0.70030  0.52739  0.03123  1.0000
  C   C2956     1.0  0.69004  0.53399  0.02443  1.0000
  H   H5041     1.0  0.72371  0.54466  0.01238  1.0000
  H   H5042     1.0  0.69881  0.51932  0.03985  1.0000
  H   H5043     1.0  0.68068  0.53101  0.02782  1.0000
  H   H5044     1.0  0.73745  0.94678  0.38991  1.0000
  H   H5045     1.0  0.60406  0.84872  0.41969  1.0000
  N   N209      1.0  0.64223  0.57250  0.04218  1.0000
  C   C2957     1.0  0.75355  0.92097  0.43568  1.0000
  H   H5046     1.0  0.59181  0.88427  0.07442  1.0000
  H   H5047     1.0  0.65423  0.59872  0.04382  1.0000
  H   H5048     1.0  0.59220  0.91594  0.36049  1.0000
  S   S848      1.0  0.69521  0.93809  0.46201  1.0000
  C   C2958     1.0  0.60190  0.55558  0.98631  1.0000
  Fe  Fe426     1.0  0.70241  0.93226  0.44231  1.0000
  H   H5049     1.0  0.63372  0.52495  0.98519  1.0000
  C   C2959     1.0  0.65193  0.48680  0.01254  1.0000
  H   H5050     1.0  0.65546  0.93233  0.45488  1.0000
  C   C2960     1.0  0.66315  0.88696  0.46908  1.0000
  H   H5051     1.0  0.70420  0.97065  0.46320  1.0000
  C   C2961     1.0  0.64587  0.59361  0.04682  1.0000
  C   C2962     1.0  0.70933  0.93140  0.48139  1.0000
  H   H5052     1.0  0.61131  0.88615  0.40850  1.0000
  H   H5053     1.0  0.68828  0.50199  0.00695  1.0000
  H   H5054     1.0  0.59155  0.77867  0.01271  1.0000
  H   H5055     1.0  0.67364  0.92225  0.46413  1.0000
  C   C2963     1.0  0.65568  0.90674  0.40677  1.0000
  C   C2964     1.0  0.65133  0.90629  0.42047  1.0000
  C   C2965     1.0  0.66051  0.90387  0.42839  1.0000
  C   C2966     1.0  0.67405  0.90243  0.42258  1.0000
  C   C2967     1.0  0.67841  0.90301  0.40884  1.0000
  C   C2968     1.0  0.66925  0.90491  0.40099  1.0000
  H   H5056     1.0  0.64091  0.90741  0.42507  1.0000
  H   H5057     1.0  0.65708  0.90301  0.43904  1.0000
  H   H5058     1.0  0.68887  0.90159  0.40434  1.0000
  H   H5059     1.0  0.67268  0.90501  0.39044  1.0000
  H   H5060     1.0  0.59231  0.88718  0.42509  1.0000
  H   H5061     1.0  0.66409  0.97912  0.37125  1.0000
  C   C2969     1.0  0.61943  0.96835  0.41167  1.0000
  H   H5062     1.0  0.67008  0.96633  0.44802  1.0000
  H   H5063     1.0  0.61645  0.95990  0.41896  1.0000
  S   S849      1.0  0.66251  0.53266  0.99337  1.0000
  H   H5064     1.0  0.67113  0.87971  0.47361  1.0000
  H   H5065     1.0  0.72533  0.49241  0.99866  1.0000
  C   C2970     1.0  0.71944  0.94296  0.45963  1.0000
  C   C2971     1.0  0.72982  0.94341  0.46485  1.0000
  H   H5066     1.0  0.71920  0.94753  0.44930  1.0000
  H   H5067     1.0  0.73769  0.94817  0.45851  1.0000
  H   H5068     1.0  0.58726  0.90185  0.06793  1.0000
  C   C2972     1.0  0.78058  0.48710  0.02204  1.0000
  Fe  Fe427     1.0  0.59388  0.92149  0.41158  1.0000
  C   C2973     1.0  0.60626  0.92841  0.46485  1.0000
  C   C2974     1.0  0.60651  0.94182  0.45916  1.0000
  C   C2975     1.0  0.60669  0.95021  0.46715  1.0000
  C   C2976     1.0  0.78140  0.51207  0.06265  1.0000
  H   H5069     1.0  0.71196  0.97149  0.37209  1.0000
  H   H5070     1.0  0.60644  0.94570  0.44868  1.0000
  H   H5071     1.0  0.61159  0.57891  0.06498  1.0000
  C   C2977     1.0  0.74458  0.95397  0.40304  1.0000
  H   H5072     1.0  0.60300  0.86722  0.10760  1.0000
  N   N210      1.0  0.66213  0.94745  0.39101  1.0000
  H   H5073     1.0  0.65353  0.59048  0.01866  1.0000
  S   S850      1.0  0.67909  0.55378  0.00512  1.0000
  H   H5074     1.0  0.78123  0.95432  0.41095  1.0000
  H   H5075     1.0  0.74372  0.94480  0.41106  1.0000
  H   H5076     1.0  0.68143  0.89238  0.47821  1.0000
  S   S851      1.0  0.61756  0.54886  0.03899  1.0000
  S   S852      1.0  0.71225  0.91111  0.44132  1.0000
  H   H5077     1.0  0.60390  0.95298  0.14906  1.0000
  C   C2978     1.0  0.77028  0.48792  0.03332  1.0000
  C   C2979     1.0  0.61950  0.89021  0.38754  1.0000
  H   H5078     1.0  0.60373  0.90478  0.10099  1.0000
  C   C2980     1.0  0.60299  0.89640  0.10983  1.0000
  H   H5079     1.0  0.60669  0.96058  0.46276  1.0000
  C   C2981     1.0  0.59738  0.54382  0.98464  1.0000
  H   H5080     1.0  0.69192  0.93539  0.36986  1.0000
  H   H5081     1.0  0.59058  0.95471  0.37250  1.0000
  C   C2982     1.0  0.70907  0.93715  0.46798  1.0000
  H   H5082     1.0  0.69056  0.93492  0.38693  1.0000
  C   C2983     1.0  0.74286  0.97513  0.47748  1.0000
  H   H5083     1.0  0.64854  0.97417  0.37537  1.0000
  C   C2984     1.0  0.59874  0.96130  0.14219  1.0000
  H   H5084     1.0  0.67616  0.94254  0.40374  1.0000
  H   H5085     1.0  0.59513  0.85204  0.40667  1.0000
  H   H5086     1.0  0.60611  0.87948  0.37824  1.0000
  C   C2985     1.0  0.75814  0.91730  0.42333  1.0000
  C   C2986     1.0  0.70401  0.54844  0.00925  1.0000
  H   H5087     1.0  0.59723  0.86747  0.09349  1.0000
  C   C2987     1.0  0.66626  0.94106  0.40415  1.0000
  H   H5088     1.0  0.64088  0.59407  0.05735  1.0000
  H   H5089     1.0  0.66235  0.95448  0.44573  1.0000
  H   H5090     1.0  0.63908  0.59959  0.04022  1.0000
  H   H5091     1.0  0.76958  0.94175  0.40399  1.0000
  S   S853      1.0  0.64234  0.55800  0.00486  1.0000
  H   H5092     1.0  0.74058  0.96404  0.43725  1.0000
  C   C2988     1.0  0.60452  0.57412  0.02730  1.0000
  S   S854      1.0  0.71669  0.94112  0.42473  1.0000
  C   C2989     1.0  0.68622  0.94045  0.37814  1.0000
  H   H5093     1.0  0.64672  0.94501  0.41809  1.0000
  H   H5094     1.0  0.77738  0.97475  0.41851  1.0000
  C   C2990     1.0  0.71251  0.97500  0.38044  1.0000
  H   H5095     1.0  0.60329  0.96079  0.10344  1.0000
  H   H5096     1.0  0.65040  0.96504  0.48080  1.0000
  H   H5097     1.0  0.66462  0.92134  0.44380  1.0000
  H   H5098     1.0  0.66884  0.94386  0.37083  1.0000
  N   N211      1.0  0.64386  0.98010  0.45443  1.0000
  H   H5099     1.0  0.60134  0.93941  0.10041  1.0000
  C   C2991     1.0  0.73989  0.96401  0.42708  1.0000
  C   C2992     1.0  0.60476  0.85143  0.40873  1.0000
  H   H5100     1.0  0.70540  0.55671  0.00088  1.0000
  H   H5101     1.0  0.59105  0.89007  0.38443  1.0000
  C   C2993     1.0  0.59048  0.54452  0.01668  1.0000
  H   H5102     1.0  0.77977  0.96775  0.39619  1.0000
  C   C2994     1.0  0.65008  0.55908  0.03951  1.0000
  C   C2995     1.0  0.65490  0.54874  0.05147  1.0000
  H   H5103     1.0  0.64413  0.55443  0.03589  1.0000
  H   H5104     1.0  0.65912  0.56002  0.03146  1.0000
  H   H5105     1.0  0.66046  0.53940  0.04812  1.0000
  H   H5106     1.0  0.66183  0.55201  0.05514  1.0000
  H   H5107     1.0  0.64658  0.54610  0.05978  1.0000
  H   H5108     1.0  0.71178  0.50479  0.98651  1.0000
  C   C2996     1.0  0.65926  0.92175  0.45422  1.0000
  Fe  Fe428     1.0  0.69828  0.91352  0.42826  1.0000
  H   H5109     1.0  0.59627  0.55710  0.05937  1.0000
  H   H5110     1.0  0.69566  0.51101  0.01326  1.0000
  H   H5111     1.0  0.76042  0.96437  0.42054  1.0000
  H   H5112     1.0  0.74328  0.92149  0.44079  1.0000
  S   S855      1.0  0.74760  0.91371  0.41553  1.0000
  C   C2997     1.0  0.76234  0.92371  0.44158  1.0000
  H   H5113     1.0  0.67020  0.96568  0.43175  1.0000
  C   C2998     1.0  0.64842  0.95981  0.47420  1.0000
  H   H5114     1.0  0.68779  0.95075  0.37504  1.0000
  C   C2999     1.0  0.73336  0.97753  0.46999  1.0000
  C   C3000     1.0  0.76875  0.96431  0.44907  1.0000
  C   C3001     1.0  0.70730  0.97389  0.40425  1.0000
  S   S856      1.0  0.65358  0.53029  0.02565  1.0000
  H   H5115     1.0  0.61780  0.86227  0.39281  1.0000
  H   H5116     1.0  0.61221  0.88857  0.10929  1.0000
  H   H5117     1.0  0.58872  0.72318  0.99106  1.0000
  H   H5118     1.0  0.64430  0.97019  0.43920  1.0000
  H   H5119     1.0  0.76472  0.97206  0.37733  1.0000
  C   C3002     1.0  0.75594  0.97856  0.38224  1.0000
  H   H5120     1.0  0.63018  0.58975  0.03121  1.0000
  C   C3003     1.0  0.72434  0.50206  0.01401  1.0000
  C   C3004     1.0  0.77146  0.91660  0.41684  1.0000
  S   S857      1.0  0.60570  0.91746  0.45550  1.0000
  H   H5121     1.0  0.77751  0.56528  0.05517  1.0000
  H   H5122     1.0  0.65235  0.98339  0.43300  1.0000
  H   H5123     1.0  0.60038  0.89780  0.39895  1.0000
  C   C3005     1.0  0.64379  0.94609  0.38015  1.0000
  C   C3006     1.0  0.65939  0.97043  0.37433  1.0000
  H   H5124     1.0  0.65545  0.96699  0.39540  1.0000
  H   H5125     1.0  0.64523  0.95495  0.37208  1.0000
  H   H5126     1.0  0.63304  0.94623  0.38290  1.0000
  H   H5127     1.0  0.64885  0.93690  0.37634  1.0000
  H   H5128     1.0  0.62104  0.59104  0.05565  1.0000
  H   H5129     1.0  0.66351  0.96523  0.36601  1.0000
  H   H5130     1.0  0.74053  0.53225  0.99274  1.0000
  C   C3007     1.0  0.66888  0.91451  0.46358  1.0000
  C   C3008     1.0  0.67153  0.94012  0.38069  1.0000
  H   H5131     1.0  0.70567  0.97783  0.48083  1.0000
  C   C3009     1.0  0.63816  0.49092  0.01561  1.0000
  C   C3010     1.0  0.65127  0.57905  0.04538  1.0000
  C   C3011     1.0  0.61360  0.87675  0.08855  1.0000
  H   H5132     1.0  0.59849  0.97171  0.43767  1.0000
  H   H5133     1.0  0.64643  0.90251  0.47355  1.0000
  H   H5134     1.0  0.64295  0.58974  0.00882  1.0000
  H   H5135     1.0  0.59405  0.91923  0.38197  1.0000
  H   H5136     1.0  0.61597  0.57050  0.99620  1.0000
  Fe  Fe429     1.0  0.63386  0.54296  0.02186  1.0000
  C   C3012     1.0  0.65555  0.89756  0.47735  1.0000
  H   H5137     1.0  0.63138  0.57459  0.02725  1.0000
  H   H5138     1.0  0.64681  0.93614  0.39957  1.0000
  H   H5139     1.0  0.62200  0.86892  0.09180  1.0000
  C   C3013     1.0  0.65700  0.94605  0.41651  1.0000
  H   H5140     1.0  0.61629  0.89521  0.37801  1.0000
  H   H5141     1.0  0.66093  0.57845  0.03799  1.0000
  C   C3014     1.0  0.78293  0.96659  0.44336  1.0000
  C   C3015     1.0  0.59580  0.56503  0.05052  1.0000
  S   S858      1.0  0.63193  0.53044  0.00914  1.0000
  C   C3016     1.0  0.78034  0.95696  0.40038  1.0000
  H   H5142     1.0  0.76809  0.48478  0.99294  1.0000
  C   C3017     1.0  0.63078  0.57017  0.05392  1.0000
  H   H5143     1.0  0.65481  0.57519  0.01383  1.0000
  S   S859      1.0  0.71239  0.92035  0.40928  1.0000
  H   H5144     1.0  0.61312  0.58384  0.04743  1.0000
  N   N212      1.0  0.60098  0.87717  0.39982  1.0000
  C   C3018     1.0  0.60759  0.88807  0.39928  1.0000
  C   C3019     1.0  0.60054  0.87375  0.09810  1.0000
  C   C3020     1.0  0.70211  0.48835  0.02794  1.0000
  N   N213      1.0  0.66315  0.90739  0.47743  1.0000
  Fe  Fe430     1.0  0.64212  0.54452  0.99233  1.0000
  C   C3021     1.0  0.76858  0.95241  0.39892  1.0000
  Fe  Fe431     1.0  0.72545  0.92008  0.42256  1.0000
  H   H5145     1.0  0.73531  0.97431  0.42261  1.0000
  H   H5146     1.0  0.63381  0.96911  0.42168  1.0000
  H   H5147     1.0  0.67087  0.92948  0.38358  1.0000
  H   H5148     1.0  0.73469  0.96084  0.40454  1.0000
  C   C3022     1.0  0.59423  0.58568  0.02781  1.0000
  H   H5149     1.0  0.69176  0.95573  0.47997  1.0000
  H   H5150     1.0  0.62100  0.49162  0.99294  1.0000
  C   C3023     1.0  0.78007  0.91995  0.42243  1.0000
  H   H5151     1.0  0.59498  0.79862  0.01574  1.0000
  C   C3024     1.0  0.59369  0.95836  0.10604  1.0000
  H   H5152     1.0  0.63362  0.50088  0.01711  1.0000
  H   H5153     1.0  0.75877  0.92632  0.45125  1.0000
  H   H5154     1.0  0.59371  0.59375  0.01910  1.0000
  H   H5155     1.0  0.59087  0.58346  0.99945  1.0000
  H   H5156     1.0  0.61181  0.58774  0.98842  1.0000
  H   H5157     1.0  0.66725  0.89147  0.45858  1.0000
  H   H5158     1.0  0.65784  0.95509  0.46829  1.0000
  H   H5159     1.0  0.70678  0.51981  0.99283  1.0000
  H   H5160     1.0  0.76892  0.95366  0.45009  1.0000
  H   H5161     1.0  0.58833  0.75765  0.02786  1.0000
  H   H5162     1.0  0.60204  0.90059  0.11855  1.0000
  S   S860      1.0  0.69755  0.95737  0.39594  1.0000
  H   H5163     1.0  0.62683  0.56178  0.05353  1.0000
  H   H5164     1.0  0.74862  0.95738  0.38092  1.0000
  H   H5165     1.0  0.60400  0.49959  0.99410  1.0000
  H   H5166     1.0  0.76874  0.49544  0.03886  1.0000
  H   H5167     1.0  0.59884  0.86936  0.42752  1.0000
  H   H5168     1.0  0.61172  0.84285  0.40487  1.0000
  Fe  Fe432     1.0  0.65254  0.51924  0.01106  1.0000
  C   C3025     1.0  0.65075  0.97505  0.44185  1.0000
  C   C3026     1.0  0.61861  0.58180  0.05540  1.0000
  C   C3027     1.0  0.60517  0.56368  0.03866  1.0000
  C   C3028     1.0  0.75384  0.95891  0.41900  1.0000
  H   H5169     1.0  0.62423  0.98327  0.43890  1.0000
  H   H5170     1.0  0.66058  0.93988  0.42554  1.0000
  C   C3029     1.0  0.60630  0.92346  0.47846  1.0000
  C   C3030     1.0  0.63878  0.96919  0.46553  1.0000
  H   H5171     1.0  0.65716  0.95646  0.41604  1.0000
  N   N214      1.0  0.59254  0.56402  0.99575  1.0000
  H   H5172     1.0  0.74245  0.97980  0.40086  1.0000
  C   C3031     1.0  0.70655  0.96940  0.39344  1.0000
  C   C3032     1.0  0.77560  0.92328  0.43492  1.0000
  C   C3033     1.0  0.68684  0.96642  0.47889  1.0000
  H   H5173     1.0  0.77014  0.95236  0.38824  1.0000
  H   H5174     1.0  0.63506  0.96276  0.46150  1.0000
  H   H5175     1.0  0.78099  0.51808  0.06973  1.0000
  H   H5176     1.0  0.78229  0.90983  0.46977  1.0000
  H   H5177     1.0  0.59012  0.96985  0.42644  1.0000
  C   C3034     1.0  0.69326  0.97380  0.46503  1.0000
  H   H5178     1.0  0.61402  0.87596  0.07829  1.0000
  C   C3035     1.0  0.59595  0.57757  0.99164  1.0000
  H   H5179     1.0  0.69033  0.97106  0.45716  1.0000
  H   H5180     1.0  0.60602  0.96751  0.13637  1.0000
  H   H5181     1.0  0.76486  0.96629  0.45924  1.0000
  N   N215      1.0  0.58948  0.88555  0.10090  1.0000
  H   H5182     1.0  0.60469  0.55647  0.01046  1.0000
  H   H5183     1.0  0.62689  0.88082  0.38646  1.0000
  C   C3036     1.0  0.78550  0.87394  0.44334  1.0000
  H   H5184     1.0  0.73479  0.50269  0.00941  1.0000
  H   H5185     1.0  0.69557  0.51487  0.98698  1.0000
  H   H5186     1.0  0.61670  0.86408  0.40914  1.0000
  H   H5187     1.0  0.70261  0.96963  0.41431  1.0000
  H   H5188     1.0  0.72348  0.49965  0.02499  1.0000
  H   H5189     1.0  0.63009  0.97351  0.47276  1.0000
  H   H5190     1.0  0.77135  0.51473  0.06063  1.0000
  H   H5191     1.0  0.76183  0.97027  0.44256  1.0000
  C   C3037     1.0  0.59722  0.87986  0.38658  1.0000
  H   H5192     1.0  0.72948  0.96937  0.46971  1.0000
  C   C3038     1.0  0.59080  0.89060  0.11220  1.0000
  H   H5193     1.0  0.75843  0.98003  0.40107  1.0000
  H   H5194     1.0  0.59774  0.90076  0.08488  1.0000
  C   C3039     1.0  0.59060  0.87759  0.42465  1.0000
  H   H5195     1.0  0.74725  0.97913  0.37837  1.0000
  H   H5196     1.0  0.77463  0.87776  0.44465  1.0000
  C   C3040     1.0  0.78548  0.55624  0.03817  1.0000
  C   C3041     1.0  0.61138  0.49036  0.99227  1.0000
  C   C3042     1.0  0.68781  0.48642  0.03385  1.0000
  H   H5197     1.0  0.65620  0.88117  0.46880  1.0000
  H   H5198     1.0  0.78333  0.50132  0.06741  1.0000
  C   C3043     1.0  0.58861  0.89688  0.08880  1.0000
  H   H5199     1.0  0.70271  0.49682  0.03167  1.0000
  H   H5200     1.0  0.78346  0.95110  0.47602  1.0000
  N   N216      1.0  0.78434  0.98083  0.44000  1.0000
  H   H5201     1.0  0.61958  0.48516  0.01975  1.0000
  H   H5202     1.0  0.59126  0.88253  0.12135  1.0000
  C   C3044     1.0  0.61079  0.57766  0.98864  1.0000
  H   H5203     1.0  0.68046  0.49468  0.02933  1.0000
  H   H5204     1.0  0.77070  0.93203  0.47727  1.0000
  C   C3045     1.0  0.77439  0.91112  0.47879  1.0000
  C   C3046     1.0  0.60670  0.94520  0.48079  1.0000
  H   H5205     1.0  0.76477  0.91314  0.47591  1.0000
  H   H5206     1.0  0.59090  0.97259  0.15717  1.0000
  H   H5207     1.0  0.67668  0.96671  0.47845  1.0000
  H   H5208     1.0  0.58883  0.56505  0.01662  1.0000
  H   H5209     1.0  0.68532  0.48622  0.04472  1.0000
  H   H5210     1.0  0.59239  0.58355  0.98246  1.0000
  S   S861      1.0  0.78644  0.92668  0.44253  1.0000
  C   C3047     1.0  0.78642  0.56117  0.04859  1.0000
  C   C3048     1.0  0.58957  0.87046  0.38503  1.0000
  C   C3049     1.0  0.58687  0.96996  0.14999  1.0000
  H   H5211     1.0  0.64369  0.95166  0.48096  1.0000
  C   C3050     1.0  0.74317  0.53187  0.98234  1.0000
  Fe  Fe433     1.0  0.60764  0.92616  0.53866  1.0000
  S   S862      1.0  0.62369  0.93144  0.54449  1.0000
  H   H5212     1.0  0.67860  0.94239  0.53464  1.0000
  Fe  Fe434     1.0  0.61080  0.94527  0.51135  1.0000
  S   S863      1.0  0.62624  0.95256  0.51566  1.0000
  Fe  Fe435     1.0  0.63494  0.93118  0.52336  1.0000
  S   S864      1.0  0.65639  0.92806  0.51280  1.0000
  Fe  Fe436     1.0  0.61375  0.95218  0.53620  1.0000
  H   H5213     1.0  0.59220  0.93085  0.59444  1.0000
  S   S865      1.0  0.61997  0.92367  0.51817  1.0000
  S   S866      1.0  0.59719  0.94715  0.53135  1.0000
  Fe  Fe437     1.0  0.72266  0.91474  0.53051  1.0000
  S   S867      1.0  0.71839  0.93654  0.52123  1.0000
  S   S868      1.0  0.70580  0.90409  0.53960  1.0000
  Fe  Fe438     1.0  0.75181  0.91422  0.52878  1.0000
  S   S869      1.0  0.74935  0.93609  0.51990  1.0000
  S   S870      1.0  0.77139  0.90083  0.53226  1.0000
  Fe  Fe439     1.0  0.72994  0.93814  0.53487  1.0000
  S   S871      1.0  0.72077  0.95169  0.54929  1.0000
  Fe  Fe440     1.0  0.73807  0.93197  0.50733  1.0000
  S   S872      1.0  0.73335  0.91654  0.54487  1.0000
  S   S873      1.0  0.74152  0.90993  0.51537  1.0000
  Fe  Fe441     1.0  0.63011  0.50856  0.90365  1.0000
  S   S874      1.0  0.64685  0.51081  0.91071  1.0000
  Fe  Fe442     1.0  0.61074  0.53088  0.91595  1.0000
  S   S875      1.0  0.62608  0.53522  0.92353  1.0000
  H   H5214     1.0  0.58944  0.64893  0.97509  1.0000
  Fe  Fe443     1.0  0.63949  0.53263  0.90379  1.0000
  S   S876      1.0  0.65580  0.54319  0.89181  1.0000
  Fe  Fe444     1.0  0.63243  0.51307  0.92977  1.0000
  S   S877      1.0  0.63895  0.50329  0.94906  1.0000
  S   S878      1.0  0.62354  0.53045  0.89532  1.0000
  S   S879      1.0  0.61618  0.50862  0.92370  1.0000
  Fe  Fe445     1.0  0.74190  0.54787  0.91631  1.0000
  S   S880      1.0  0.75034  0.52598  0.92084  1.0000
  S   S881      1.0  0.75421  0.56321  0.91092  1.0000
  Fe  Fe446     1.0  0.71376  0.54403  0.91992  1.0000
  S   S882      1.0  0.72026  0.52182  0.92465  1.0000
  S   S883      1.0  0.69198  0.55315  0.92379  1.0000
  Fe  Fe447     1.0  0.73206  0.52517  0.93713  1.0000
  S   S884      1.0  0.73179  0.51564  0.95866  1.0000
  Fe  Fe448     1.0  0.73771  0.52522  0.90775  1.0000
  S   S885      1.0  0.74664  0.51475  0.89079  1.0000
  S   S886      1.0  0.72446  0.54717  0.93351  1.0000
  S   S887      1.0  0.73033  0.54732  0.90203  1.0000
  C   C3051     1.0  0.73560  0.50652  0.88885  1.0000
  C   C3052     1.0  0.69867  0.92539  0.56697  1.0000
  H   H5215     1.0  0.77455  0.92798  0.52738  1.0000
  C   C3053     1.0  0.61311  0.76942  0.93433  1.0000
  H   H5216     1.0  0.63489  0.50580  0.97615  1.0000
  H   H5217     1.0  0.67820  0.53889  0.96600  1.0000
  H   H5218     1.0  0.64701  0.51934  0.86955  1.0000
  H   H5219     1.0  0.74956  0.57328  0.93966  1.0000
  C   C3054     1.0  0.66607  0.54480  0.90121  1.0000
  C   C3055     1.0  0.66081  0.54733  0.91401  1.0000
  C   C3056     1.0  0.66890  0.54976  0.92090  1.0000
  C   C3057     1.0  0.68237  0.54920  0.91524  1.0000
  C   C3058     1.0  0.68777  0.54611  0.90268  1.0000
  C   C3059     1.0  0.67956  0.54419  0.89557  1.0000
  H   H5220     1.0  0.65041  0.54795  0.91837  1.0000
  H   H5221     1.0  0.66471  0.55226  0.93057  1.0000
  H   H5222     1.0  0.69814  0.54577  0.89822  1.0000
  H   H5223     1.0  0.68364  0.54244  0.88561  1.0000
  H   H5224     1.0  0.63671  0.95314  0.53905  1.0000
  H   H5225     1.0  0.58920  0.54737  0.97924  1.0000
  H   H5226     1.0  0.69868  0.98355  0.50383  1.0000
  H   H5227     1.0  0.68700  0.51282  0.92039  1.0000
  C   C3060     1.0  0.73941  0.52485  0.96429  1.0000
  H   H5228     1.0  0.72352  0.96451  0.56812  1.0000
  H   H5229     1.0  0.63409  0.91504  0.48863  1.0000
  C   C3061     1.0  0.66962  0.92161  0.52095  1.0000
  C   C3062     1.0  0.66841  0.91332  0.53372  1.0000
  C   C3063     1.0  0.67961  0.90775  0.53935  1.0000
  C   C3064     1.0  0.69191  0.91076  0.53236  1.0000
  C   C3065     1.0  0.69296  0.91927  0.51974  1.0000
  C   C3066     1.0  0.68190  0.92453  0.51401  1.0000
  H   H5230     1.0  0.65898  0.91089  0.53907  1.0000
  H   H5231     1.0  0.67877  0.90110  0.54911  1.0000
  H   H5232     1.0  0.70239  0.92152  0.51427  1.0000
  H   H5233     1.0  0.68284  0.93088  0.50411  1.0000
  H   H5234     1.0  0.60577  0.53796  0.97841  1.0000
  H   H5235     1.0  0.64651  0.52827  0.93643  1.0000
  H   H5236     1.0  0.76155  0.49071  0.87905  1.0000
  C   C3067     1.0  0.67448  0.89958  0.48409  1.0000
  C   C3068     1.0  0.73682  0.97751  0.55717  1.0000
  H   H5237     1.0  0.66943  0.51443  0.85452  1.0000
  C   C3069     1.0  0.67563  0.49209  0.89127  1.0000
  C   C3070     1.0  0.73009  0.96326  0.54744  1.0000
  H   H5238     1.0  0.60627  0.92788  0.49691  1.0000
  C   C3071     1.0  0.76828  0.56159  0.91710  1.0000
  H   H5239     1.0  0.60081  0.95066  0.59005  1.0000
  C   C3072     1.0  0.72757  0.50004  0.90005  1.0000
  C   C3073     1.0  0.65447  0.91721  0.48575  1.0000
  C   C3074     1.0  0.59859  0.77292  0.94172  1.0000
  H   H5240     1.0  0.59852  0.97281  0.51216  1.0000
  H   H5241     1.0  0.69084  0.57591  0.96283  1.0000
  H   H5242     1.0  0.61432  0.76627  0.92497  1.0000
  H   H5243     1.0  0.71462  0.48626  0.90729  1.0000
  H   H5244     1.0  0.69307  0.53093  0.95615  1.0000
  C   C3075     1.0  0.64221  0.53874  0.95214  1.0000
  C   C3076     1.0  0.76400  0.92713  0.56397  1.0000
  H   H5245     1.0  0.70154  0.92657  0.48774  1.0000
  H   H5246     1.0  0.60411  0.56176  0.97599  1.0000
  C   C3077     1.0  0.78622  0.54885  0.92834  1.0000
  H   H5247     1.0  0.66679  0.93003  0.55137  1.0000
  H   H5248     1.0  0.65441  0.51846  0.88278  1.0000
  H   H5249     1.0  0.70170  0.55344  0.96453  1.0000
  N   N217      1.0  0.71884  0.57316  0.96256  1.0000
  C   C3078     1.0  0.69760  0.50441  0.95680  1.0000
  H   H5250     1.0  0.71377  0.58946  0.94620  1.0000
  H   H5251     1.0  0.65858  0.95838  0.53435  1.0000
  H   H5252     1.0  0.59877  0.56077  0.89963  1.0000
  C   C3079     1.0  0.75165  0.53966  0.97316  1.0000
  H   H5253     1.0  0.66551  0.50131  0.86804  1.0000
  C   C3080     1.0  0.73573  0.50536  0.87608  1.0000
  C   C3081     1.0  0.72819  0.49738  0.87455  1.0000
  H   H5254     1.0  0.70816  0.54372  0.97898  1.0000
  C   C3082     1.0  0.77457  0.96055  0.54700  1.0000
  H   H5255     1.0  0.68945  0.95189  0.50409  1.0000
  H   H5256     1.0  0.67305  0.52108  0.93927  1.0000
  H   H5257     1.0  0.59981  0.75474  0.92689  1.0000
  C   C3083     1.0  0.77994  0.54955  0.88084  1.0000
  S   S888      1.0  0.76151  0.98166  0.48545  1.0000
  C   C3084     1.0  0.76835  0.54746  0.87647  1.0000
  H   H5258     1.0  0.77895  0.93165  0.50357  1.0000
  H   H5259     1.0  0.60261  0.95338  0.57253  1.0000
  S   S889      1.0  0.74214  0.93967  0.48514  1.0000
  H   H5260     1.0  0.59802  0.58766  0.94718  1.0000
  H   H5261     1.0  0.74251  0.93548  0.56993  1.0000
  H   H5262     1.0  0.70501  0.91525  0.56913  1.0000
  N   N218      1.0  0.59067  0.76242  0.94497  1.0000
  H   H5263     1.0  0.58720  0.76915  0.92496  1.0000
  H   H5264     1.0  0.66713  0.95602  0.49749  1.0000
  H   H5265     1.0  0.66692  0.95152  0.51467  1.0000
  H   H5266     1.0  0.70191  0.97837  0.55948  1.0000
  H   H5267     1.0  0.65651  0.53121  0.86762  1.0000
  H   H5268     1.0  0.78642  0.94235  0.56763  1.0000
  H   H5269     1.0  0.73850  0.96400  0.52648  1.0000
  H   H5270     1.0  0.66067  0.96298  0.56911  1.0000
  H   H5271     1.0  0.65167  0.92777  0.58077  1.0000
  C   C3085     1.0  0.64004  0.92278  0.48418  1.0000
  H   H5272     1.0  0.67076  0.89353  0.49412  1.0000
  H   H5273     1.0  0.70345  0.96584  0.51084  1.0000
  H   H5274     1.0  0.72602  0.55324  0.97338  1.0000
  C   C3086     1.0  0.68253  0.96186  0.50341  1.0000
  C   C3087     1.0  0.75381  0.54019  0.95953  1.0000
  H   H5275     1.0  0.69546  0.50681  0.85135  1.0000
  C   C3088     1.0  0.77447  0.54958  0.92451  1.0000
  H   H5276     1.0  0.65613  0.94362  0.55779  1.0000
  C   C3089     1.0  0.67669  0.52020  0.96276  1.0000
  H   H5277     1.0  0.76889  0.58214  0.90834  1.0000
  H   H5278     1.0  0.66436  0.50031  0.97992  1.0000
  H   H5279     1.0  0.69290  0.59198  0.96315  1.0000
  H   H5280     1.0  0.67722  0.51628  0.97345  1.0000
  H   H5281     1.0  0.59374  0.78232  0.93558  1.0000
  C   C3090     1.0  0.66343  0.93425  0.56044  1.0000
  C   C3091     1.0  0.65592  0.92440  0.57126  1.0000
  C   C3092     1.0  0.68511  0.92413  0.56594  1.0000
  H   H5282     1.0  0.71494  0.48809  0.95567  1.0000
  C   C3093     1.0  0.76147  0.48954  0.94684  1.0000
  H   H5283     1.0  0.68691  0.91884  0.55782  1.0000
  C   C3094     1.0  0.67057  0.94210  0.57655  1.0000
  H   H5284     1.0  0.76020  0.54526  0.88523  1.0000
  C   C3095     1.0  0.59832  0.98165  0.51580  1.0000
  H   H5285     1.0  0.68447  0.49828  0.93294  1.0000
  H   H5286     1.0  0.76023  0.54631  0.95239  1.0000
  C   C3096     1.0  0.68906  0.50697  0.93025  1.0000
  H   H5287     1.0  0.61638  0.97891  0.49384  1.0000
  H   H5288     1.0  0.61087  0.73138  0.95631  1.0000
  H   H5289     1.0  0.66149  0.98145  0.48734  1.0000
  H   H5290     1.0  0.76126  0.50837  0.95035  1.0000
  H   H5291     1.0  0.61915  0.76187  0.94099  1.0000
  H   H5292     1.0  0.70566  0.51932  0.86014  1.0000
  C   C3097     1.0  0.60650  0.93181  0.48640  1.0000
  C   C3098     1.0  0.76035  0.93767  0.58925  1.0000
  H   H5293     1.0  0.73417  0.57903  0.93468  1.0000
  H   H5294     1.0  0.72399  0.55387  0.95771  1.0000
  C   C3099     1.0  0.63741  0.96240  0.54060  1.0000
  H   H5295     1.0  0.60174  0.49119  0.97702  1.0000
  H   H5296     1.0  0.68149  0.91708  0.57524  1.0000
  C   C3100     1.0  0.74759  0.53293  0.95510  1.0000
  H   H5297     1.0  0.77142  0.53942  0.87089  1.0000
  H   H5298     1.0  0.58829  0.74500  0.96086  1.0000
  C   C3101     1.0  0.59002  0.75966  0.93210  1.0000
  C   C3102     1.0  0.71936  0.55843  0.96646  1.0000
  H   H5299     1.0  0.67620  0.53059  0.87148  1.0000
  H   H5300     1.0  0.67881  0.94527  0.57827  1.0000
  C   C3103     1.0  0.71067  0.58006  0.95216  1.0000
  H   H5301     1.0  0.71240  0.57375  0.94486  1.0000
  H   H5302     1.0  0.73965  0.56873  0.96309  1.0000
  H   H5303     1.0  0.74193  0.51036  0.86740  1.0000
  H   H5304     1.0  0.66813  0.93409  0.58545  1.0000
  C   C3104     1.0  0.73802  0.96773  0.53506  1.0000
  C   C3105     1.0  0.59243  0.97644  0.58853  1.0000
  N   N219      1.0  0.67489  0.93696  0.56389  1.0000
  N   N220      1.0  0.76903  0.93900  0.56373  1.0000
  C   C3106     1.0  0.66820  0.51110  0.86557  1.0000
  C   C3107     1.0  0.63859  0.53787  0.96591  1.0000
  H   H5305     1.0  0.77030  0.54089  0.92722  1.0000
  H   H5306     1.0  0.74858  0.93559  0.55223  1.0000
  H   H5307     1.0  0.74677  0.92046  0.56411  1.0000
  N   N221      1.0  0.68358  0.50961  0.95480  1.0000
  H   H5308     1.0  0.68294  0.52850  0.85483  1.0000
  H   H5309     1.0  0.64444  0.54784  0.94544  1.0000
  H   H5310     1.0  0.70792  0.96063  0.48863  1.0000
  H   H5311     1.0  0.67273  0.95657  0.55086  1.0000
  H   H5312     1.0  0.65891  0.92595  0.48383  1.0000
  C   C3108     1.0  0.75996  0.48964  0.97471  1.0000
  N   N222      1.0  0.60839  0.57771  0.93080  1.0000
  C   C3109     1.0  0.60058  0.58996  0.93605  1.0000
  C   C3110     1.0  0.61939  0.57096  0.93817  1.0000
  C   C3111     1.0  0.59977  0.56812  0.93301  1.0000
  C   C3112     1.0  0.61366  0.58190  0.91597  1.0000
  H   H5313     1.0  0.58942  0.58499  0.89233  1.0000
  C   C3113     1.0  0.63092  0.57807  0.93448  1.0000
  H   H5314     1.0  0.66601  0.50282  0.95644  1.0000
  C   C3114     1.0  0.62278  0.57080  0.90890  1.0000
  H   H5315     1.0  0.65369  0.91254  0.49659  1.0000
  H   H5316     1.0  0.60666  0.59756  0.93319  1.0000
  H   H5317     1.0  0.62361  0.56055  0.93686  1.0000
  H   H5318     1.0  0.61554  0.56985  0.94916  1.0000
  H   H5319     1.0  0.76509  0.95454  0.57443  1.0000
  H   H5320     1.0  0.60549  0.55919  0.92896  1.0000
  H   H5321     1.0  0.60539  0.58615  0.91067  1.0000
  H   H5322     1.0  0.61880  0.59024  0.91351  1.0000
  H   H5323     1.0  0.77351  0.48562  0.86536  1.0000
  H   H5324     1.0  0.61596  0.57553  0.97866  1.0000
  H   H5325     1.0  0.64950  0.95174  0.57657  1.0000
  H   H5326     1.0  0.63779  0.57278  0.94128  1.0000
  H   H5327     1.0  0.63676  0.57781  0.92416  1.0000
  H   H5328     1.0  0.62750  0.58849  0.93570  1.0000
  H   H5329     1.0  0.63541  0.93079  0.48982  1.0000
  N   N223      1.0  0.68735  0.97127  0.49064  1.0000
  C   C3115     1.0  0.77967  0.52999  0.89901  1.0000
  H   H5330     1.0  0.61694  0.56561  0.90582  1.0000
  H   H5331     1.0  0.62929  0.56330  0.91503  1.0000
  H   H5332     1.0  0.62959  0.57520  0.89988  1.0000
  H   H5333     1.0  0.77341  0.53700  0.90543  1.0000
  C   C3116     1.0  0.63701  0.51494  0.96943  1.0000
  H   H5334     1.0  0.64753  0.92361  0.56765  1.0000
  C   C3117     1.0  0.77361  0.57283  0.91399  1.0000
  C   C3118     1.0  0.60683  0.73909  0.94818  1.0000
  H   H5335     1.0  0.74928  0.53355  0.94454  1.0000
  C   C3119     1.0  0.62702  0.98352  0.54692  1.0000
  C   C3120     1.0  0.65595  0.52063  0.87181  1.0000
  S   S890      1.0  0.75916  0.54923  0.97843  1.0000
  C   C3121     1.0  0.78497  0.57223  0.91819  1.0000
  H   H5336     1.0  0.72869  0.49613  0.86471  1.0000
  C   C3122     1.0  0.65867  0.95413  0.57706  1.0000
  H   H5337     1.0  0.78561  0.55539  0.87196  1.0000
  C   C3123     1.0  0.66854  0.95958  0.50566  1.0000
  C   C3124     1.0  0.73918  0.57206  0.94252  1.0000
  H   H5338     1.0  0.68293  0.49070  0.85315  1.0000
  H   H5339     1.0  0.63607  0.98294  0.49661  1.0000
  C   C3125     1.0  0.78350  0.93488  0.56424  1.0000
  C   C3126     1.0  0.63998  0.51608  0.95563  1.0000
  C   C3127     1.0  0.77862  0.94817  0.48667  1.0000
  H   H5340     1.0  0.70404  0.48787  0.94601  1.0000
  C   C3128     1.0  0.64319  0.52775  0.94703  1.0000
  C   C3129     1.0  0.72956  0.96808  0.55851  1.0000
  C   C3130     1.0  0.67566  0.49895  0.95951  1.0000
  C   C3131     1.0  0.69216  0.50125  0.86176  1.0000
  H   H5341     1.0  0.77913  0.95558  0.49187  1.0000
  H   H5342     1.0  0.73965  0.56172  0.94224  1.0000
  C   C3132     1.0  0.62598  0.97158  0.54489  1.0000
  H   H5343     1.0  0.70398  0.93077  0.55743  1.0000
  N   N224      1.0  0.77187  0.49339  0.96427  1.0000
  C   C3133     1.0  0.68006  0.50529  0.88432  1.0000
  H   H5344     1.0  0.59400  0.96083  0.82120  1.0000
  H   H5345     1.0  0.77695  0.49994  0.94264  1.0000
  C   C3134     1.0  0.74439  0.98234  0.54469  1.0000
  H   H5346     1.0  0.75077  0.95078  0.57354  1.0000
  H   H5347     1.0  0.65664  0.95705  0.58675  1.0000
  H   H5348     1.0  0.75709  0.95328  0.55053  1.0000
  S   S891      1.0  0.66611  0.98224  0.53352  1.0000
  H   H5349     1.0  0.68908  0.52404  0.93652  1.0000
  H   H5350     1.0  0.73632  0.98132  0.56570  1.0000
  S   S892      1.0  0.61043  0.96848  0.54680  1.0000
  H   H5351     1.0  0.77902  0.51237  0.91524  1.0000
  C   C3135     1.0  0.68046  0.94737  0.55266  1.0000
  H   H5352     1.0  0.69786  0.93026  0.57511  1.0000
  H   H5353     1.0  0.71994  0.92733  0.49693  1.0000
  H   H5354     1.0  0.64199  0.48419  0.93037  1.0000
  H   H5355     1.0  0.75131  0.98066  0.52410  1.0000
  H   H5356     1.0  0.66227  0.91425  0.57307  1.0000
  H   H5357     1.0  0.68823  0.95054  0.55526  1.0000
  H   H5358     1.0  0.61677  0.49634  0.97082  1.0000
  C   C3136     1.0  0.73282  0.57510  0.95653  1.0000
  H   H5359     1.0  0.76476  0.91934  0.57321  1.0000
  H   H5360     1.0  0.76716  0.92260  0.49394  1.0000
  H   H5361     1.0  0.59145  0.64647  0.95133  1.0000
  C   C3137     1.0  0.70473  0.97385  0.50171  1.0000
  S   S893      1.0  0.60696  0.95577  0.49073  1.0000
  H   H5362     1.0  0.69102  0.58892  0.94833  1.0000
  H   H5363     1.0  0.58803  0.96399  0.80603  1.0000
  H   H5364     1.0  0.73329  0.58556  0.95568  1.0000
  H   H5365     1.0  0.74627  0.96517  0.48293  1.0000
  C   C3138     1.0  0.68316  0.90780  0.48609  1.0000
  H   H5366     1.0  0.67864  0.53948  0.94915  1.0000
  C   C3139     1.0  0.76103  0.94596  0.57483  1.0000
  C   C3140     1.0  0.77465  0.92287  0.48429  1.0000
  C   C3141     1.0  0.64984  0.96533  0.53797  1.0000
  H   H5367     1.0  0.78352  0.51601  0.94734  1.0000
  C   C3142     1.0  0.76812  0.49845  0.95084  1.0000
  H   H5368     1.0  0.68058  0.49038  0.95471  1.0000
  H   H5369     1.0  0.69037  0.90107  0.49203  1.0000
  H   H5370     1.0  0.60690  0.93006  0.58177  1.0000
  H   H5371     1.0  0.68239  0.96543  0.51227  1.0000
  H   H5372     1.0  0.59310  0.98183  0.82041  1.0000
  C   C3143     1.0  0.68213  0.53301  0.95815  1.0000
  H   H5373     1.0  0.68990  0.50374  0.88658  1.0000
  H   H5374     1.0  0.59170  0.93356  0.57692  1.0000
  C   C3144     1.0  0.72083  0.49025  0.88581  1.0000
  C   C3145     1.0  0.59595  0.95028  0.58231  1.0000
  H   H5375     1.0  0.71234  0.59043  0.97126  1.0000
  H   H5376     1.0  0.70415  0.51092  0.94978  1.0000
  S   S894      1.0  0.59646  0.91199  0.55469  1.0000
  H   H5377     1.0  0.69997  0.50381  0.92868  1.0000
  H   H5378     1.0  0.66084  0.96851  0.50776  1.0000
  H   H5379     1.0  0.69766  0.98404  0.53874  1.0000
  H   H5380     1.0  0.69821  0.50486  0.96688  1.0000
  C   C3146     1.0  0.69556  0.58431  0.95715  1.0000
  H   H5381     1.0  0.69397  0.93415  0.53967  1.0000
  C   C3147     1.0  0.61204  0.48849  0.97828  1.0000
  H   H5382     1.0  0.77140  0.94368  0.54218  1.0000
  H   H5383     1.0  0.66596  0.52327  0.96270  1.0000
  H   H5384     1.0  0.67374  0.51304  0.88989  1.0000
  C   C3148     1.0  0.71366  0.57940  0.97456  1.0000
  C   C3149     1.0  0.70434  0.48996  0.95545  1.0000
  C   C3150     1.0  0.74962  0.93006  0.56248  1.0000
  H   H5385     1.0  0.60607  0.97796  0.52160  1.0000
  H   H5386     1.0  0.58845  0.97308  0.59937  1.0000
  C   C3151     1.0  0.68337  0.51606  0.94032  1.0000
  S   S895      1.0  0.63641  0.49347  0.89073  1.0000
  C   C3152     1.0  0.59625  0.75004  0.95440  1.0000
  H   H5387     1.0  0.77560  0.55644  0.88785  1.0000
  C   C3153     1.0  0.78655  0.51763  0.90808  1.0000
  H   H5388     1.0  0.75135  0.94231  0.59587  1.0000
  H   H5389     1.0  0.72761  0.50066  0.90995  1.0000
  C   C3154     1.0  0.68627  0.94345  0.53905  1.0000
  H   H5390     1.0  0.69804  0.53541  0.86352  1.0000
  H   H5391     1.0  0.69096  0.95147  0.53200  1.0000
  H   H5392     1.0  0.60252  0.73390  0.94338  1.0000
  C   C3155     1.0  0.71972  0.93182  0.48659  1.0000
  H   H5393     1.0  0.73152  0.57884  0.98114  1.0000
  C   C3156     1.0  0.77574  0.50449  0.96734  1.0000
  N   N225      1.0  0.68091  0.51007  0.86946  1.0000
  H   H5394     1.0  0.70095  0.49828  0.86625  1.0000
  H   H5395     1.0  0.77679  0.49418  0.88921  1.0000
  H   H5396     1.0  0.76916  0.93733  0.59286  1.0000
  C   C3157     1.0  0.68950  0.48841  0.86021  1.0000
  C   C3158     1.0  0.76765  0.94880  0.55065  1.0000
  H   H5397     1.0  0.61724  0.77848  0.93143  1.0000
  H   H5398     1.0  0.76698  0.51282  0.96874  1.0000
  H   H5399     1.0  0.60055  0.55681  0.95356  1.0000
  C   C3159     1.0  0.68370  0.52387  0.86540  1.0000
  H   H5400     1.0  0.61524  0.74277  0.94090  1.0000
  H   H5401     1.0  0.76415  0.55680  0.86989  1.0000
  H   H5402     1.0  0.77499  0.90173  0.48655  1.0000
  H   H5403     1.0  0.59187  0.57265  0.92732  1.0000
  H   H5404     1.0  0.61067  0.49075  0.90819  1.0000
  H   H5405     1.0  0.75888  0.49464  0.93703  1.0000
  C   C3160     1.0  0.69731  0.52480  0.86669  1.0000
  C   C3161     1.0  0.65089  0.97750  0.53937  1.0000
  H   H5406     1.0  0.77897  0.50137  0.97694  1.0000
  H   H5407     1.0  0.75068  0.49640  0.97222  1.0000
  H   H5408     1.0  0.77033  0.92211  0.55581  1.0000
  C   C3162     1.0  0.63635  0.52582  0.97456  1.0000
  H   H5409     1.0  0.76796  0.94888  0.48755  1.0000
  H   H5410     1.0  0.69856  0.52135  0.87715  1.0000
  C   C3163     1.0  0.58759  0.59707  0.93127  1.0000
  H   H5411     1.0  0.78254  0.91953  0.58324  1.0000
  C   C3164     1.0  0.59314  0.56295  0.94765  1.0000
  H   H5412     1.0  0.58965  0.71095  0.97414  1.0000
  H   H5413     1.0  0.60048  0.75266  0.96146  1.0000
  C   C3165     1.0  0.72030  0.49179  0.89854  1.0000
  H   H5414     1.0  0.75919  0.92745  0.59053  1.0000
  H   H5415     1.0  0.77264  0.52646  0.89565  1.0000
  C   C3166     1.0  0.70170  0.97065  0.48982  1.0000
  C   C3167     1.0  0.59640  0.93543  0.58399  1.0000
  H   H5416     1.0  0.78543  0.95722  0.54580  1.0000
  C   C3168     1.0  0.78339  0.92121  0.52997  1.0000
  C   C3169     1.0  0.70622  0.55385  0.97250  1.0000
  H   H5417     1.0  0.62588  0.98108  0.51297  1.0000
  H   H5418     1.0  0.67741  0.91558  0.49171  1.0000
  C   C3170     1.0  0.73728  0.52426  0.97793  1.0000
  H   H5419     1.0  0.66758  0.49074  0.88765  1.0000
  C   C3171     1.0  0.78450  0.48600  0.88531  1.0000
  H   H5420     1.0  0.76345  0.48677  0.90776  1.0000
  C   C3172     1.0  0.67256  0.49331  0.97477  1.0000
  H   H5421     1.0  0.58985  0.97646  0.56925  1.0000
  H   H5422     1.0  0.67146  0.49204  0.90203  1.0000
  C   C3173     1.0  0.78443  0.90748  0.53265  1.0000
  C   C3174     1.0  0.58952  0.56547  0.90530  1.0000
  C   C3175     1.0  0.74514  0.97730  0.53368  1.0000
  H   H5423     1.0  0.70371  0.57770  0.98004  1.0000
  H   H5424     1.0  0.60114  0.48822  0.95790  1.0000
  H   H5425     1.0  0.77049  0.96706  0.55429  1.0000
  S   S896      1.0  0.63705  0.55177  0.97221  1.0000
  H   H5426     1.0  0.69899  0.55996  0.97921  1.0000
  H   H5427     1.0  0.59894  0.77553  0.95096  1.0000
  H   H5428     1.0  0.68128  0.49117  0.97918  1.0000
  H   H5429     1.0  0.77281  0.96686  0.53719  1.0000
  H   H5430     1.0  0.71528  0.97448  0.49920  1.0000
  H   H5431     1.0  0.60602  0.91313  0.48293  1.0000
  H   H5432     1.0  0.60312  0.97185  0.58587  1.0000
  H   H5433     1.0  0.65195  0.89222  0.48777  1.0000
  H   H5434     1.0  0.58918  0.60038  0.92025  1.0000
  S   S897      1.0  0.58944  0.54097  0.92298  1.0000
  H   H5435     1.0  0.75208  0.48790  0.95397  1.0000
  H   H5436     1.0  0.78593  0.50208  0.86726  1.0000
  C   C3176     1.0  0.78536  0.93421  0.49348  1.0000
  H   H5437     1.0  0.78567  0.90785  0.50402  1.0000
  H   H5438     1.0  0.58673  0.55639  0.94780  1.0000
  H   H5439     1.0  0.58670  0.57111  0.95249  1.0000
  H   H5440     1.0  0.89355  0.06605  0.47266  1.0000
  H   H5441     1.0  0.86347  0.09955  0.41574  1.0000
  C   C3177     1.0  0.83483  0.37190  0.00022  1.0000
  Fe  Fe449     1.0  0.85910  0.42423  0.99483  1.0000
  S   S898      1.0  0.86424  0.40976  0.01334  1.0000
  C   C3178     1.0  0.97836  0.44521  0.34243  1.0000
  Fe  Fe450     1.0  0.84561  0.44639  0.01005  1.0000
  S   S899      1.0  0.84934  0.43341  0.02968  1.0000
  S   S900      1.0  0.83474  0.46778  0.00749  1.0000
  Fe  Fe451     1.0  0.86973  0.42667  0.01774  1.0000
  S   S901      1.0  0.88917  0.42681  0.02218  1.0000
  Fe  Fe452     1.0  0.84337  0.41808  0.02323  1.0000
  S   S902      1.0  0.82924  0.40500  0.03611  1.0000
  S   S903      1.0  0.86618  0.44050  0.99819  1.0000
  S   S904      1.0  0.83813  0.43172  0.00461  1.0000
  Fe  Fe453     1.0  0.94628  0.42299  0.08492  1.0000
  S   S905      1.0  0.92951  0.41303  0.09691  1.0000
  S   S906      1.0  0.96731  0.41213  0.07849  1.0000
  Fe  Fe454     1.0  0.92974  0.45040  0.08605  1.0000
  S   S907      1.0  0.91168  0.44298  0.09815  1.0000
  S   S908      1.0  0.92804  0.47249  0.08010  1.0000
  Fe  Fe455     1.0  0.92548  0.42762  0.10987  1.0000
  S   S909      1.0  0.92052  0.42162  0.13243  1.0000
  Fe  Fe456     1.0  0.91700  0.42920  0.08405  1.0000
  S   S910      1.0  0.89887  0.42712  0.07839  1.0000
  S   S911      1.0  0.94315  0.43615  0.09889  1.0000
  S   S912      1.0  0.93419  0.43797  0.07096  1.0000
  Fe  Fe457     1.0  0.96718  0.42206  0.19081  1.0000
  S   S913      1.0  0.94525  0.42377  0.19702  1.0000
  S   S914      1.0  0.98126  0.40302  0.18718  1.0000
  Fe  Fe458     1.0  0.96532  0.45031  0.19204  1.0000
  S   S915      1.0  0.94324  0.45435  0.19851  1.0000
  Fe  Fe459     1.0  0.94639  0.43419  0.21220  1.0000
  S   S916      1.0  0.93537  0.43011  0.23385  1.0000
  Fe  Fe460     1.0  0.94438  0.44374  0.18276  1.0000
  S   S917      1.0  0.93272  0.45426  0.16684  1.0000
  S   S918      1.0  0.96844  0.43094  0.20692  1.0000
  S   S919      1.0  0.96632  0.44111  0.17535  1.0000
  Fe  Fe461     1.0  0.83947  0.02791  0.41269  1.0000
  S   S920      1.0  0.83477  0.04540  0.39590  1.0000
  S   S921      1.0  0.84682  0.00600  0.41314  1.0000
  Fe  Fe462     1.0  0.83302  0.04509  0.43273  1.0000
  S   S922      1.0  0.82738  0.06387  0.41805  1.0000
  S   S923      1.0  0.82985  0.04612  0.45403  1.0000
  Fe  Fe463     1.0  0.81713  0.05217  0.41151  1.0000
  S   S924      1.0  0.79632  0.06124  0.40886  1.0000
  Fe  Fe464     1.0  0.84559  0.05564  0.40394  1.0000
  S   S925      1.0  0.85815  0.07059  0.39186  1.0000
  S   S926      1.0  0.82111  0.03403  0.42760  1.0000
  S   S927      1.0  0.85194  0.03748  0.41921  1.0000
  Fe  Fe465     1.0  0.91681  0.08905  0.41165  1.0000
  S   S928      1.0  0.93714  0.07989  0.41558  1.0000
  S   S929      1.0  0.90764  0.07234  0.41186  1.0000
  Fe  Fe466     1.0  0.91896  0.11644  0.41283  1.0000
  S   S930      1.0  0.93928  0.10918  0.41697  1.0000
  S   S931      1.0  0.90880  0.13785  0.41338  1.0000
  Fe  Fe467     1.0  0.94336  0.09774  0.40119  1.0000
  H   H5442     1.0  0.96583  0.47287  0.15394  1.0000
  Fe  Fe468     1.0  0.93140  0.09196  0.43096  1.0000
  S   S932      1.0  0.93744  0.08248  0.45046  1.0000
  S   S933      1.0  0.92350  0.10622  0.39569  1.0000
  S   S934      1.0  0.91061  0.09995  0.42833  1.0000
  Fe  Fe469     1.0  0.94375  0.22226  0.40244  1.0000
  S   S935      1.0  0.95343  0.21611  0.41984  1.0000
  S   S936      1.0  0.93941  0.24397  0.39233  1.0000
  Fe  Fe470     1.0  0.94668  0.19359  0.40063  1.0000
  S   S937      1.0  0.95692  0.18516  0.41768  1.0000
  S   S938      1.0  0.94629  0.17902  0.38916  1.0000
  Fe  Fe471     1.0  0.94153  0.20048  0.42737  1.0000
  S   S939      1.0  0.93303  0.19541  0.44929  1.0000
  Fe  Fe472     1.0  0.96788  0.20153  0.40852  1.0000
  S   S940      1.0  0.97822  0.18629  0.47954  1.0000
  S   S941      1.0  0.93017  0.20786  0.41104  1.0000
  S   S942      1.0  0.95923  0.20868  0.39047  1.0000
  Fe  Fe473     1.0  0.96107  0.41505  0.32734  1.0000
  S   S943      1.0  0.93935  0.42077  0.33585  1.0000
  C   C3179     1.0  0.92900  0.31166  0.47164  1.0000
  H   H5443     1.0  0.97716  0.23365  0.43072  1.0000
  H   H5444     1.0  0.90258  0.15245  0.46260  1.0000
  H   H5445     1.0  0.90243  0.45106  0.00986  1.0000
  Fe  Fe474     1.0  0.93798  0.40688  0.32428  1.0000
  S   S944      1.0  0.92335  0.39362  0.33270  1.0000
  H   H5446     1.0  0.89367  0.31382  0.36525  1.0000
  S   S945      1.0  0.95981  0.40018  0.31680  1.0000
  S   S946      1.0  0.96100  0.31275  0.41724  1.0000
  Fe  Fe475     1.0  0.94032  0.33062  0.39027  1.0000
  S   S947      1.0  0.95527  0.31136  0.38884  1.0000
  S   S948      1.0  0.92572  0.33981  0.37700  1.0000
  Fe  Fe476     1.0  0.94722  0.30484  0.41084  1.0000
  S   S949      1.0  0.94230  0.28521  0.42292  1.0000
  Fe  Fe477     1.0  0.96766  0.32102  0.39530  1.0000
  S   S950      1.0  0.96375  0.09384  0.38802  1.0000
  S   S951      1.0  0.93119  0.32326  0.41179  1.0000
  S   S952      1.0  0.95333  0.34082  0.39501  1.0000
  H   H5447     1.0  0.96471  0.47050  0.28085  1.0000
  H   H5448     1.0  0.90982  0.46532  0.00641  1.0000
  C   C3180     1.0  0.82446  0.37059  0.01356  1.0000
  H   H5449     1.0  0.90118  0.45301  0.14070  1.0000
  H   H5450     1.0  0.83524  0.39415  0.01134  1.0000
  H   H5451     1.0  0.83217  0.45862  0.98522  1.0000
  C   C3181     1.0  0.92517  0.37842  0.34464  1.0000
  C   C3182     1.0  0.91407  0.37284  0.35014  1.0000
  C   C3183     1.0  0.91455  0.36105  0.35995  1.0000
  C   C3184     1.0  0.92613  0.35464  0.36456  1.0000
  C   C3185     1.0  0.93742  0.36008  0.35906  1.0000
  C   C3186     1.0  0.93697  0.37195  0.34899  1.0000
  H   H5452     1.0  0.90497  0.37771  0.34679  1.0000
  H   H5453     1.0  0.90583  0.35690  0.36405  1.0000
  H   H5454     1.0  0.94648  0.35506  0.36242  1.0000
  H   H5455     1.0  0.94567  0.37608  0.34461  1.0000
  H   H5456     1.0  0.89371  0.07219  0.44030  1.0000
  C   C3187     1.0  0.96224  0.48346  0.35589  1.0000
  H   H5457     1.0  0.88220  0.46421  0.08103  1.0000
  H   H5458     1.0  0.93854  0.14724  0.43394  1.0000
  H   H5459     1.0  0.90711  0.40550  0.36341  1.0000
  H   H5460     1.0  0.96431  0.43729  0.33768  1.0000
  H   H5461     1.0  0.93257  0.45788  0.24199  1.0000
  C   C3188     1.0  0.94262  0.19080  0.47164  1.0000
  C   C3189     1.0  0.94192  0.25433  0.40111  1.0000
  C   C3190     1.0  0.94769  0.26519  0.39405  1.0000
  C   C3191     1.0  0.94840  0.27445  0.40075  1.0000
  C   C3192     1.0  0.94304  0.27302  0.41447  1.0000
  C   C3193     1.0  0.93767  0.26192  0.42159  1.0000
  C   C3194     1.0  0.93719  0.25254  0.41494  1.0000
  H   H5462     1.0  0.95152  0.26648  0.38338  1.0000
  H   H5463     1.0  0.95284  0.28280  0.39524  1.0000
  H   H5464     1.0  0.93354  0.26073  0.43221  1.0000
  H   H5465     1.0  0.93266  0.24421  0.42042  1.0000
  H   H5466     1.0  0.86792  0.06580  0.45880  1.0000
  H   H5467     1.0  0.87531  0.07880  0.45827  1.0000
  Fe  Fe478     1.0  0.94559  0.33173  0.41651  1.0000
  C   C3195     1.0  0.96951  0.43957  0.13932  1.0000
  H   H5468     1.0  0.93548  0.23759  0.45822  1.0000
  C   C3196     1.0  0.79994  0.41272  0.01595  1.0000
  H   H5469     1.0  0.79108  0.01662  0.41215  1.0000
  C   C3197     1.0  0.88645  0.06576  0.44497  1.0000
  N   N226      1.0  0.96971  0.41443  0.14417  1.0000
  H   H5470     1.0  0.91852  0.14201  0.46206  1.0000
  C   C3198     1.0  0.93110  0.37279  0.39127  1.0000
  Fe  Fe479     1.0  0.95737  0.41758  0.29938  1.0000
  H   H5471     1.0  0.90915  0.48060  0.06226  1.0000
  H   H5472     1.0  0.95069  0.15559  0.43333  1.0000
  H   H5473     1.0  0.80856  0.45767  0.02053  1.0000
  C   C3199     1.0  0.93560  0.46861  0.31613  1.0000
  H   H5474     1.0  0.96542  0.33081  0.43160  1.0000
  H   H5475     1.0  0.96151  0.19008  0.44040  1.0000
  H   H5476     1.0  0.95591  0.12053  0.39202  1.0000
  C   C3200     1.0  0.91926  0.14927  0.40671  1.0000
  C   C3201     1.0  0.91497  0.16208  0.40938  1.0000
  C   C3202     1.0  0.92336  0.17114  0.40446  1.0000
  C   C3203     1.0  0.93590  0.16760  0.39642  1.0000
  C   C3204     1.0  0.94004  0.15492  0.39350  1.0000
  C   C3205     1.0  0.93184  0.14572  0.39879  1.0000
  H   H5477     1.0  0.90517  0.16496  0.41532  1.0000
  H   H5478     1.0  0.91999  0.18101  0.40649  1.0000
  H   H5479     1.0  0.94961  0.15222  0.38706  1.0000
  H   H5480     1.0  0.93511  0.13599  0.39646  1.0000
  C   C3206     1.0  0.93601  0.10822  0.45085  1.0000
  C   C3207     1.0  0.94079  0.09475  0.45606  1.0000
  H   H5481     1.0  0.91503  0.06744  0.46754  1.0000
  H   H5482     1.0  0.92977  0.11112  0.44375  1.0000
  C   C3208     1.0  0.85455  0.00686  0.47479  1.0000
  C   C3209     1.0  0.87175  0.07118  0.39762  1.0000
  C   C3210     1.0  0.87596  0.08319  0.39447  1.0000
  C   C3211     1.0  0.88683  0.08386  0.39891  1.0000
  C   C3212     1.0  0.89373  0.07240  0.40625  1.0000
  C   C3213     1.0  0.88964  0.06038  0.40920  1.0000
  C   C3214     1.0  0.87861  0.05980  0.40507  1.0000
  H   H5483     1.0  0.87073  0.09202  0.38863  1.0000
  H   H5484     1.0  0.88995  0.09315  0.39650  1.0000
  H   H5485     1.0  0.89498  0.05145  0.41483  1.0000
  H   H5486     1.0  0.87557  0.05047  0.40741  1.0000
  C   C3215     1.0  0.84428  0.04382  0.45958  1.0000
  C   C3216     1.0  0.85681  0.04014  0.45158  1.0000
  C   C3217     1.0  0.86821  0.03817  0.45635  1.0000
  C   C3218     1.0  0.86835  0.47647  0.98650  1.0000
  H   H5487     1.0  0.82654  0.37466  0.02101  1.0000
  H   H5488     1.0  0.79976  0.99161  0.42931  1.0000
  H   H5489     1.0  0.85780  0.03885  0.44172  1.0000
  H   H5490     1.0  0.87789  0.03534  0.45014  1.0000
  H   H5491     1.0  0.91812  0.14914  0.43466  1.0000
  C   C3219     1.0  0.87807  0.46114  0.02719  1.0000
  C   C3220     1.0  0.94398  0.42830  0.24627  1.0000
  C   C3221     1.0  0.95568  0.43279  0.24315  1.0000
  C   C3222     1.0  0.92199  0.30524  0.44953  1.0000
  H   H5492     1.0  0.85589  0.09607  0.45655  1.0000
  C   C3223     1.0  0.94617  0.41997  0.26945  1.0000
  C   C3224     1.0  0.93909  0.42217  0.25952  1.0000
  H   H5493     1.0  0.91767  0.29669  0.45579  1.0000
  H   H5494     1.0  0.86142  0.36565  0.98585  1.0000
  H   H5495     1.0  0.94259  0.41472  0.27950  1.0000
  H   H5496     1.0  0.92999  0.41875  0.26204  1.0000
  C   C3225     1.0  0.92455  0.43045  0.14180  1.0000
  C   C3226     1.0  0.93035  0.44142  0.13561  1.0000
  C   C3227     1.0  0.93303  0.44852  0.14341  1.0000
  C   C3228     1.0  0.93026  0.44452  0.15737  1.0000
  C   C3229     1.0  0.92465  0.43345  0.16357  1.0000
  C   C3230     1.0  0.92170  0.42651  0.15579  1.0000
  H   H5497     1.0  0.93251  0.44461  0.12485  1.0000
  H   H5498     1.0  0.93713  0.45723  0.13866  1.0000
  H   H5499     1.0  0.92229  0.43042  0.17436  1.0000
  H   H5500     1.0  0.91717  0.41806  0.16063  1.0000
  H   H5501     1.0  0.79034  0.03626  0.43941  1.0000
  C   C3231     1.0  0.80607  0.04320  0.35519  1.0000
  N   N227      1.0  0.89265  0.47307  0.06142  1.0000
  H   H5502     1.0  0.94347  0.46058  0.10038  1.0000
  C   C3232     1.0  0.89174  0.42667  0.03794  1.0000
  C   C3233     1.0  0.88157  0.42625  0.04942  1.0000
  C   C3234     1.0  0.88400  0.42625  0.06171  1.0000
  C   C3235     1.0  0.89658  0.42672  0.06268  1.0000
  C   C3236     1.0  0.90674  0.42720  0.05118  1.0000
  C   C3237     1.0  0.90431  0.42722  0.03887  1.0000
  H   H5503     1.0  0.87186  0.42582  0.04887  1.0000
  H   H5504     1.0  0.87608  0.42583  0.07055  1.0000
  H   H5505     1.0  0.91650  0.42739  0.05180  1.0000
  H   H5506     1.0  0.91226  0.42747  0.03006  1.0000
  H   H5507     1.0  0.90323  0.45299  0.06791  1.0000
  H   H5508     1.0  0.80475  0.46123  0.03661  1.0000
  H   H5509     1.0  0.81599  0.42154  0.01453  1.0000
  H   H5510     1.0  0.95166  0.46526  0.23478  1.0000
  C   C3238     1.0  0.83967  0.46778  0.03127  1.0000
  C   C3239     1.0  0.85266  0.09024  0.45138  1.0000
  S   S953      1.0  0.97565  0.40877  0.34053  1.0000
  H   H5511     1.0  0.97894  0.43803  0.14234  1.0000
  H   H5512     1.0  0.83766  0.45798  0.03487  1.0000
  C   C3240     1.0  0.91626  0.45789  0.25979  1.0000
  N   N228      1.0  0.98336  0.09960  0.43453  1.0000
  C   C3241     1.0  0.87311  0.07350  0.45182  1.0000
  H   H5513     1.0  0.97287  0.45539  0.34053  1.0000
  H   H5514     1.0  0.84762  0.37626  0.02275  1.0000
  H   H5515     1.0  0.80464  0.03460  0.35227  1.0000
  H   H5516     1.0  0.94098  0.39310  0.35864  1.0000
  C   C3242     1.0  0.95821  0.42390  0.26614  1.0000
  C   C3243     1.0  0.98227  0.41150  0.14911  1.0000
  C   C3244     1.0  0.91269  0.15073  0.45611  1.0000
  H   H5517     1.0  0.93529  0.12834  0.45111  1.0000
  H   H5518     1.0  0.91504  0.17070  0.43292  1.0000
  Fe  Fe480     1.0  0.93909  0.43628  0.31670  1.0000
  H   H5519     1.0  0.94315  0.25088  0.45636  1.0000
  H   H5520     1.0  0.79323  0.03408  0.46781  1.0000
  H   H5521     1.0  0.96104  0.44193  0.14761  1.0000
  C   C3245     1.0  0.96921  0.33041  0.45049  1.0000
  H   H5522     1.0  0.79701  0.07056  0.36392  1.0000
  H   H5523     1.0  0.84973  0.07904  0.41967  1.0000
  C   C3246     1.0  0.91604  0.47595  0.26964  1.0000
  H   H5524     1.0  0.82311  0.99300  0.46548  1.0000
  H   H5525     1.0  0.95549  0.39414  0.36264  1.0000
  H   H5526     1.0  0.90710  0.30048  0.36252  1.0000
  H   H5527     1.0  0.94498  0.40392  0.17090  1.0000
  H   H5528     1.0  0.81347  0.42547  0.07514  1.0000
  H   H5529     1.0  0.80682  0.02006  0.37266  1.0000
  H   H5530     1.0  0.82835  0.03037  0.37802  1.0000
  H   H5531     1.0  0.92520  0.27064  0.37845  1.0000
  C   C3247     1.0  0.85452  0.04336  0.47721  1.0000
  H   H5532     1.0  0.90861  0.27813  0.37584  1.0000
  C   C3248     1.0  0.79327  0.03604  0.41177  1.0000
  C   C3249     1.0  0.79272  0.06059  0.46343  1.0000
  C   C3250     1.0  0.80423  0.42707  0.07171  1.0000
  C   C3251     1.0  0.97239  0.22565  0.46495  1.0000
  C   C3252     1.0  0.84354  0.38974  0.00391  1.0000
  H   H5533     1.0  0.80375  0.03282  0.41142  1.0000
  H   H5534     1.0  0.98129  0.08020  0.42164  1.0000
  H   H5535     1.0  0.81253  0.38631  0.04541  1.0000
  H   H5536     1.0  0.84881  0.39787  0.99837  1.0000
  C   C3253     1.0  0.97037  0.24798  0.45071  1.0000
  H   H5537     1.0  0.82838  0.01393  0.37747  1.0000
  C   C3254     1.0  0.82587  0.00245  0.40529  1.0000
  C   C3255     1.0  0.83732  0.99654  0.41031  1.0000
  H   H5538     1.0  0.84363  0.36386  0.00178  1.0000
  H   H5539     1.0  0.94283  0.26661  0.47313  1.0000
  H   H5540     1.0  0.81068  0.99910  0.39781  1.0000
  H   H5541     1.0  0.82232  0.01313  0.40358  1.0000
  C   C3256     1.0  0.86550  0.10379  0.42312  1.0000
  C   C3257     1.0  0.86243  0.99810  0.44899  1.0000
  C   C3258     1.0  0.91996  0.36527  0.39900  1.0000
  C   C3259     1.0  0.86845  0.98837  0.43956  1.0000
  H   H5542     1.0  0.87306  0.47961  0.07319  1.0000
  H   H5543     1.0  0.88109  0.46922  0.14840  1.0000
  C   C3260     1.0  0.80940  0.02765  0.37618  1.0000
  H   H5544     1.0  0.86208  0.00839  0.44270  1.0000
  H   H5545     1.0  0.84484  0.09239  0.42794  1.0000
  H   H5546     1.0  0.80241  0.06219  0.45679  1.0000
  H   H5547     1.0  0.90528  0.47902  0.26972  1.0000
  H   H5548     1.0  0.93625  0.36808  0.38262  1.0000
  C   C3261     1.0  0.96377  0.33322  0.46321  1.0000
  H   H5549     1.0  0.96475  0.47596  0.09201  1.0000
  H   H5550     1.0  0.97143  0.39393  0.14319  1.0000
  C   C3262     1.0  0.87544  0.46533  0.01296  1.0000
  H   H5551     1.0  0.92330  0.28911  0.47682  1.0000
  H   H5552     1.0  0.90204  0.47120  0.07747  1.0000
  H   H5553     1.0  0.92026  0.44194  0.28309  1.0000
  N   N229      1.0  0.83823  0.38539  0.99455  1.0000
  H   H5554     1.0  0.95278  0.47575  0.17572  1.0000
  H   H5555     1.0  0.94511  0.48078  0.19626  1.0000
  H   H5556     1.0  0.86723  0.37984  0.98651  1.0000
  H   H5557     1.0  0.91817  0.40521  0.39488  1.0000
  H   H5558     1.0  0.82108  0.39197  0.98561  1.0000
  H   H5559     1.0  0.84572  0.46722  0.04902  1.0000
  H   H5560     1.0  0.92256  0.38458  0.36916  1.0000
  H   H5561     1.0  0.96450  0.46905  0.32257  1.0000
  H   H5562     1.0  0.81816  0.44757  0.03227  1.0000
  C   C3263     1.0  0.96588  0.18726  0.47138  1.0000
  C   C3264     1.0  0.96203  0.39642  0.23220  1.0000
  H   H5563     1.0  0.93208  0.07339  0.48165  1.0000
  H   H5564     1.0  0.81431  0.37552  0.01204  1.0000
  H   H5565     1.0  0.97821  0.46775  0.24440  1.0000
  H   H5566     1.0  0.93210  0.34713  0.45975  1.0000
  H   H5567     1.0  0.96704  0.37585  0.25982  1.0000
  N   N230      1.0  0.93795  0.30052  0.46513  1.0000
  C   C3265     1.0  0.88007  0.47020  0.07119  1.0000
  C   C3266     1.0  0.97756  0.41144  0.08899  1.0000
  C   C3267     1.0  0.82561  0.39522  0.99198  1.0000
  H   H5568     1.0  0.97559  0.22578  0.40265  1.0000
  H   H5569     1.0  0.94894  0.47584  0.15337  1.0000
  C   C3268     1.0  0.96643  0.11722  0.39133  1.0000
  C   C3269     1.0  0.79815  0.39273  0.03311  1.0000
  H   H5570     1.0  0.97821  0.16537  0.38119  1.0000
  H   H5571     1.0  0.94604  0.27676  0.45680  1.0000
  H   H5572     1.0  0.95484  0.39673  0.24190  1.0000
  H   H5573     1.0  0.92169  0.40954  0.36426  1.0000
  N   N231      1.0  0.93902  0.07032  0.37527  1.0000
  C   C3270     1.0  0.94553  0.08133  0.37456  1.0000
  C   C3271     1.0  0.94010  0.06048  0.38835  1.0000
  C   C3272     1.0  0.92461  0.07643  0.37531  1.0000
  C   C3273     1.0  0.94575  0.06423  0.36324  1.0000
  C   C3274     1.0  0.87216  0.46273  0.06695  1.0000
  C   C3275     1.0  0.95418  0.05525  0.39104  1.0000
  C   C3276     1.0  0.91583  0.06690  0.37647  1.0000
  C   C3277     1.0  0.94584  0.04943  0.36487  1.0000
  H   H5574     1.0  0.94176  0.08508  0.38393  1.0000
  H   H5575     1.0  0.95638  0.07758  0.37377  1.0000
  H   H5576     1.0  0.93608  0.05172  0.38939  1.0000
  H   H5577     1.0  0.93389  0.06504  0.39686  1.0000
  H   H5578     1.0  0.92005  0.08181  0.38361  1.0000
  H   H5579     1.0  0.92341  0.08404  0.36596  1.0000
  H   H5580     1.0  0.94128  0.06998  0.35454  1.0000
  H   H5581     1.0  0.95634  0.06491  0.35985  1.0000
  C   C3278     1.0  0.97412  0.39457  0.25524  1.0000
  H   H5582     1.0  0.79322  0.38462  0.03829  1.0000
  H   H5583     1.0  0.91664  0.46161  0.23860  1.0000
  H   H5584     1.0  0.79669  0.41993  0.00755  1.0000
  H   H5585     1.0  0.78950  0.98498  0.41103  1.0000
  C   C3279     1.0  0.84504  0.00750  0.46609  1.0000
  H   H5586     1.0  0.90540  0.07256  0.37745  1.0000
  H   H5587     1.0  0.91605  0.05866  0.38545  1.0000
  H   H5588     1.0  0.91336  0.46553  0.03832  1.0000
  H   H5589     1.0  0.95254  0.04276  0.37137  1.0000
  H   H5590     1.0  0.94969  0.04680  0.35493  1.0000
  H   H5591     1.0  0.93595  0.04711  0.36884  1.0000
  H   H5592     1.0  0.85765  0.36985  0.00827  1.0000
  C   C3280     1.0  0.89895  0.45785  0.13072  1.0000
  C   C3281     1.0  0.98405  0.08789  0.44628  1.0000
  C   C3282     1.0  0.95199  0.30043  0.46495  1.0000
  H   H5593     1.0  0.80340  0.43541  0.03023  1.0000
  N   N232      1.0  0.92679  0.38763  0.38658  1.0000
  S   S954      1.0  0.97568  0.46681  0.18862  1.0000
  N   N233      1.0  0.88287  0.47517  0.00267  1.0000
  H   H5594     1.0  0.97918  0.40357  0.12858  1.0000
  H   H5595     1.0  0.80592  0.02538  0.38726  1.0000
  C   C3283     1.0  0.92110  0.15899  0.47735  1.0000
  C   C3284     1.0  0.95476  0.47276  0.32046  1.0000
  H   H5596     1.0  0.92984  0.27356  0.46441  1.0000
  C   C3285     1.0  0.97981  0.42306  0.09072  1.0000
  H   H5597     1.0  0.82051  0.01097  0.46046  1.0000
  H   H5598     1.0  0.91621  0.36201  0.39204  1.0000
  H   H5599     1.0  0.83188  0.41362  0.99066  1.0000
  H   H5600     1.0  0.86235  0.46965  0.99378  1.0000
  H   H5601     1.0  0.90902  0.39274  0.40166  1.0000
  C   C3286     1.0  0.95033  0.33911  0.46658  1.0000
  C   C3287     1.0  0.96906  0.18720  0.45780  1.0000
  H   H5602     1.0  0.79827  0.41717  0.04858  1.0000
  H   H5603     1.0  0.98658  0.20774  0.45039  1.0000
  H   H5604     1.0  0.98627  0.07828  0.44329  1.0000
  C   C3288     1.0  0.82674  0.40977  0.98542  1.0000
  H   H5605     1.0  0.84362  0.01764  0.45951  1.0000
  C   C3289     1.0  0.95143  0.10094  0.46984  1.0000
  C   C3290     1.0  0.97637  0.48328  0.25462  1.0000
  H   H5606     1.0  0.83100  0.36914  0.99293  1.0000
  C   C3291     1.0  0.92568  0.38978  0.41038  1.0000
  H   H5607     1.0  0.96517  0.40263  0.25433  1.0000
  H   H5608     1.0  0.96226  0.40667  0.22634  1.0000
  H   H5609     1.0  0.95813  0.39176  0.22649  1.0000
  C   C3292     1.0  0.79845  0.44343  0.03582  1.0000
  H   H5610     1.0  0.96506  0.22996  0.47306  1.0000
  H   H5611     1.0  0.90333  0.47542  0.10787  1.0000
  H   H5612     1.0  0.98103  0.16952  0.35655  1.0000
  H   H5613     1.0  0.89223  0.17198  0.44950  1.0000
  H   H5614     1.0  0.80609  0.47739  0.05764  1.0000
  H   H5615     1.0  0.86373  0.01007  0.46867  1.0000
  H   H5616     1.0  0.79827  0.05397  0.33752  1.0000
  C   C3293     1.0  0.91837  0.48141  0.28049  1.0000
  H   H5617     1.0  0.79159  0.00115  0.44754  1.0000
  H   H5618     1.0  0.78676  0.07065  0.46462  1.0000
  N   N234      1.0  0.80268  0.04158  0.37016  1.0000
  H   H5619     1.0  0.91990  0.39596  0.41774  1.0000
  H   H5620     1.0  0.93638  0.40438  0.37779  1.0000
  H   H5621     1.0  0.82445  0.35990  0.01797  1.0000
  H   H5622     1.0  0.96292  0.47052  0.25623  1.0000
  H   H5623     1.0  0.86003  0.47953  0.14267  1.0000
  H   H5624     1.0  0.87394  0.46950  0.03238  1.0000
  H   H5625     1.0  0.95935  0.43783  0.23308  1.0000
  H   H5626     1.0  0.95273  0.45354  0.32026  1.0000
  H   H5627     1.0  0.85639  0.11011  0.42789  1.0000
  H   H5628     1.0  0.90843  0.45533  0.12341  1.0000
  H   H5629     1.0  0.97545  0.41395  0.23371  1.0000
  C   C3294     1.0  0.97390  0.15100  0.47884  1.0000
  C   C3295     1.0  0.94573  0.19154  0.45788  1.0000
  H   H5630     1.0  0.85930  0.06542  0.44157  1.0000
  C   C3296     1.0  0.79909  0.05610  0.34682  1.0000
  N   N235      1.0  0.91586  0.29707  0.38583  1.0000
  C   C3297     1.0  0.91931  0.30233  0.39586  1.0000
  C   C3298     1.0  0.92764  0.29622  0.37423  1.0000
  C   C3299     1.0  0.91322  0.28335  0.39252  1.0000
  C   C3300     1.0  0.90370  0.30658  0.38176  1.0000
  C   C3301     1.0  0.90976  0.30144  0.40974  1.0000
  C   C3302     1.0  0.93171  0.30946  0.36663  1.0000
  C   C3303     1.0  0.89900  0.30417  0.37046  1.0000
  H   H5631     1.0  0.92930  0.29700  0.39763  1.0000
  H   H5632     1.0  0.91987  0.31298  0.39198  1.0000
  H   H5633     1.0  0.92622  0.29184  0.36665  1.0000
  H   H5634     1.0  0.93642  0.28930  0.37773  1.0000
  H   H5635     1.0  0.92011  0.27784  0.39929  1.0000
  H   H5636     1.0  0.90311  0.28404  0.39904  1.0000
  H   H5637     1.0  0.89510  0.30644  0.39042  1.0000
  H   H5638     1.0  0.90470  0.31713  0.37911  1.0000
  H   H5639     1.0  0.89958  0.30714  0.40915  1.0000
  H   H5640     1.0  0.90965  0.29100  0.41517  1.0000
  H   H5641     1.0  0.91324  0.30582  0.41602  1.0000
  H   H5642     1.0  0.92348  0.31715  0.36296  1.0000
  H   H5643     1.0  0.93579  0.31329  0.37284  1.0000
  H   H5644     1.0  0.93974  0.30773  0.35775  1.0000
  H   H5645     1.0  0.89214  0.29727  0.37453  1.0000
  C   C3304     1.0  0.96879  0.42768  0.13428  1.0000
  C   C3305     1.0  0.97024  0.40410  0.13681  1.0000
  C   C3306     1.0  0.95825  0.40617  0.13070  1.0000
  H   H5646     1.0  0.97680  0.42693  0.12512  1.0000
  H   H5647     1.0  0.95933  0.43073  0.13088  1.0000
  N   N236      1.0  0.89437  0.47278  0.12904  1.0000
  C   C3307     1.0  0.95644  0.48053  0.15435  1.0000
  H   H5648     1.0  0.78991  0.06556  0.38156  1.0000
  H   H5649     1.0  0.94880  0.40683  0.13827  1.0000
  H   H5650     1.0  0.95762  0.41500  0.12228  1.0000
  H   H5651     1.0  0.95944  0.39748  0.12642  1.0000
  C   C3308     1.0  0.95667  0.23286  0.45034  1.0000
  C   C3309     1.0  0.91469  0.27388  0.38341  1.0000
  H   H5652     1.0  0.81448  0.42616  0.05140  1.0000
  H   H5653     1.0  0.96891  0.44856  0.13107  1.0000
  C   C3310     1.0  0.80661  0.43340  0.05662  1.0000
  H   H5654     1.0  0.91149  0.26467  0.38969  1.0000
  C   C3311     1.0  0.97025  0.47277  0.20337  1.0000
  S   S955      1.0  0.94780  0.12652  0.47224  1.0000
  H   H5655     1.0  0.94225  0.44578  0.28484  1.0000
  C   C3312     1.0  0.97355  0.43499  0.34078  1.0000
  C   C3313     1.0  0.84318  0.04552  0.47235  1.0000
  H   H5656     1.0  0.97274  0.29221  0.45793  1.0000
  C   C3314     1.0  0.81933  0.99451  0.40201  1.0000
  H   H5657     1.0  0.80191  0.41714  0.07391  1.0000
  H   H5658     1.0  0.94859  0.41992  0.15168  1.0000
  H   H5659     1.0  0.90537  0.46158  0.26111  1.0000
  H   H5660     1.0  0.98585  0.12756  0.42284  1.0000
  H   H5661     1.0  0.89677  0.46542  0.28935  1.0000
  C   C3315     1.0  0.95775  0.41557  0.15550  1.0000
  C   C3316     1.0  0.95570  0.40285  0.16624  1.0000
  H   H5662     1.0  0.96340  0.25179  0.45938  1.0000
  H   H5663     1.0  0.96331  0.47713  0.34885  1.0000
  H   H5664     1.0  0.94265  0.29653  0.44516  1.0000
  C   C3317     1.0  0.93065  0.47864  0.09245  1.0000
  H   H5665     1.0  0.96997  0.11181  0.44792  1.0000
  H   H5666     1.0  0.95788  0.42283  0.16109  1.0000
  C   C3318     1.0  0.93892  0.39330  0.37980  1.0000
  C   C3319     1.0  0.98029  0.22880  0.44028  1.0000
  C   C3320     1.0  0.93858  0.27570  0.46627  1.0000
  C   C3321     1.0  0.93622  0.45801  0.26632  1.0000
  H   H5667     1.0  0.97539  0.25578  0.42890  1.0000
  H   H5668     1.0  0.90084  0.15045  0.44249  1.0000
  H   H5669     1.0  0.95091  0.09972  0.36221  1.0000
  H   H5670     1.0  0.89472  0.43983  0.12918  1.0000
  H   H5671     1.0  0.93917  0.31341  0.44539  1.0000
  H   H5672     1.0  0.86809  0.46926  0.13098  1.0000
  N   N237      1.0  0.84902  0.99701  0.45791  1.0000
  H   H5673     1.0  0.96932  0.12583  0.42390  1.0000
  H   H5674     1.0  0.91486  0.47348  0.12610  1.0000
  H   H5675     1.0  0.93747  0.15046  0.45614  1.0000
  C   C3322     1.0  0.93615  0.30388  0.45097  1.0000
  H   H5676     1.0  0.91542  0.31468  0.45187  1.0000
  H   H5677     1.0  0.86463  0.46939  0.01451  1.0000
  C   C3323     1.0  0.96279  0.43055  0.25303  1.0000
  H   H5678     1.0  0.81783  0.05221  0.36804  1.0000
  C   C3324     1.0  0.92006  0.05699  0.47127  1.0000
  H   H5679     1.0  0.97461  0.37778  0.23860  1.0000
  H   H5680     1.0  0.91950  0.14873  0.47991  1.0000
  H   H5681     1.0  0.88539  0.06096  0.43752  1.0000
  C   C3325     1.0  0.96308  0.29058  0.45776  1.0000
  H   H5682     1.0  0.95600  0.22224  0.45265  1.0000
  C   C3326     1.0  0.82467  0.02462  0.37322  1.0000
  H   H5683     1.0  0.97194  0.43389  0.25045  1.0000
  H   H5684     1.0  0.96294  0.28012  0.46307  1.0000
  H   H5685     1.0  0.97477  0.43268  0.08592  1.0000
  H   H5686     1.0  0.98131  0.39149  0.16216  1.0000
  H   H5687     1.0  0.91818  0.18228  0.43983  1.0000
  C   C3327     1.0  0.93984  0.15673  0.43499  1.0000
  C   C3328     1.0  0.94244  0.34235  0.45718  1.0000
  C   C3329     1.0  0.95930  0.15331  0.47833  1.0000
  C   C3330     1.0  0.78803  0.04304  0.37594  1.0000
  C   C3331     1.0  0.93891  0.11801  0.45521  1.0000
  H   H5688     1.0  0.89735  0.48017  0.15275  1.0000
  H   H5689     1.0  0.86200  0.98901  0.43288  1.0000
  H   H5690     1.0  0.98328  0.19565  0.36155  1.0000
  C   C3332     1.0  0.97587  0.38809  0.23398  1.0000
  H   H5691     1.0  0.93997  0.46604  0.25818  1.0000
  S   S956      1.0  0.93537  0.42306  0.30589  1.0000
  H   H5692     1.0  0.95400  0.31053  0.46031  1.0000
  H   H5693     1.0  0.95790  0.15668  0.46791  1.0000
  C   C3333     1.0  0.84804  0.08146  0.42955  1.0000
  H   H5694     1.0  0.84592  0.09778  0.44549  1.0000
  H   H5695     1.0  0.91769  0.47454  0.29039  1.0000
  H   H5696     1.0  0.79613  0.45814  0.06101  1.0000
  C   C3334     1.0  0.93424  0.28759  0.47324  1.0000
  H   H5697     1.0  0.95842  0.39377  0.16228  1.0000
  S   S957      1.0  0.97402  0.32937  0.47461  1.0000
  H   H5698     1.0  0.98426  0.46774  0.37176  1.0000
  H   H5699     1.0  0.92527  0.03815  0.46460  1.0000
  C   C3335     1.0  0.91330  0.40495  0.37038  1.0000
  H   H5700     1.0  0.84173  0.07396  0.45830  1.0000
  H   H5701     1.0  0.97578  0.33428  0.40668  1.0000
  H   H5702     1.0  0.95535  0.23685  0.43987  1.0000
  H   H5703     1.0  0.87067  0.46706  0.05665  1.0000
  C   C3336     1.0  0.88142  0.47655  0.13863  1.0000
  H   H5704     1.0  0.83971  0.01008  0.44205  1.0000
  H   H5705     1.0  0.88665  0.47723  0.04273  1.0000
  N   N238      1.0  0.92128  0.46127  0.27003  1.0000
  H   H5706     1.0  0.98399  0.37437  0.37725  1.0000
  C   C3337     1.0  0.91306  0.17390  0.44240  1.0000
  H   H5707     1.0  0.92026  0.45387  0.29145  1.0000
  H   H5708     1.0  0.81680  0.04289  0.35121  1.0000
  S   S958      1.0  0.96104  0.43169  0.30915  1.0000
  H   H5709     1.0  0.83351  0.04845  0.47855  1.0000
  H   H5710     1.0  0.83978  0.07678  0.43598  1.0000
  H   H5711     1.0  0.86991  0.99629  0.45499  1.0000
  C   C3338     1.0  0.87240  0.09284  0.43330  1.0000
  C   C3339     1.0  0.86075  0.07521  0.43508  1.0000
  C   C3340     1.0  0.84414  0.08129  0.46226  1.0000
  H   H5712     1.0  0.84903  0.07594  0.47072  1.0000
  C   C3341     1.0  0.81567  0.40405  0.03048  1.0000
  H   H5713     1.0  0.97667  0.16126  0.40431  1.0000
  C   C3342     1.0  0.91641  0.45268  0.28339  1.0000
  C   C3343     1.0  0.80911  0.39368  0.03712  1.0000
  H   H5714     1.0  0.94601  0.39019  0.38648  1.0000
  C   C3344     1.0  0.97353  0.12568  0.39269  1.0000
  N   N239      1.0  0.86447  0.08303  0.44268  1.0000
  H   H5715     1.0  0.87591  0.09785  0.43907  1.0000
  H   H5716     1.0  0.88147  0.08768  0.42715  1.0000
  H   H5717     1.0  0.86899  0.07290  0.42656  1.0000
  N   N240      1.0  0.98310  0.13923  0.47360  1.0000
  C   C3345     1.0  0.83906  0.00040  0.44932  1.0000
  H   H5718     1.0  0.93597  0.39113  0.40773  1.0000
  C   C3346     1.0  0.95898  0.18953  0.45102  1.0000
  H   H5719     1.0  0.93667  0.16508  0.42690  1.0000
  H   H5720     1.0  0.83464  0.08759  0.46646  1.0000
  H   H5721     1.0  0.96038  0.38543  0.27199  1.0000
  N   N241      1.0  0.96994  0.23384  0.45157  1.0000
  H   H5722     1.0  0.84113  0.99319  0.44295  1.0000
  H   H5723     1.0  0.91246  0.13548  0.44636  1.0000
  S   S959      1.0  0.96827  0.41950  0.27780  1.0000
  H   H5724     1.0  0.92191  0.05285  0.45199  1.0000
  H   H5725     1.0  0.80469  0.07156  0.37623  1.0000
  S   S960      1.0  0.93759  0.34273  0.43321  1.0000
  C   C3347     1.0  0.80797  0.45301  0.03132  1.0000
  H   H5726     1.0  0.95272  0.08072  0.46917  1.0000
  H   H5727     1.0  0.88864  0.45728  0.02744  1.0000
  C   C3348     1.0  0.98099  0.13881  0.46038  1.0000
  H   H5728     1.0  0.97790  0.45951  0.10290  1.0000
  C   C3349     1.0  0.94362  0.45522  0.27759  1.0000
  H   H5729     1.0  0.81664  0.41620  0.98591  1.0000
  C   C3350     1.0  0.97299  0.09972  0.42745  1.0000
  C   C3351     1.0  0.91461  0.46045  0.04860  1.0000
  C   C3352     1.0  0.98609  0.22444  0.46763  1.0000
  H   H5730     1.0  0.96502  0.08801  0.41929  1.0000
  C   C3353     1.0  0.89950  0.47866  0.06841  1.0000
  H   H5731     1.0  0.79035  0.47694  0.00599  1.0000
  H   H5732     1.0  0.90870  0.38645  0.38238  1.0000
  H   H5733     1.0  0.97922  0.18599  0.45235  1.0000
  C   C3354     1.0  0.81111  0.41350  0.01977  1.0000
  H   H5734     1.0  0.98118  0.24562  0.40533  1.0000
  H   H5735     1.0  0.87233  0.11049  0.41730  1.0000
  H   H5736     1.0  0.91717  0.17788  0.46368  1.0000
  C   C3355     1.0  0.91784  0.39024  0.37714  1.0000
  H   H5737     1.0  0.93392  0.09991  0.36445  1.0000
  C   C3356     1.0  0.93337  0.15941  0.44909  1.0000
  H   H5738     1.0  0.98074  0.41682  0.15719  1.0000
  H   H5739     1.0  0.97961  0.32605  0.44771  1.0000
  H   H5740     1.0  0.98254  0.39004  0.09377  1.0000
  H   H5741     1.0  0.97112  0.13689  0.46139  1.0000
  H   H5742     1.0  0.93874  0.37013  0.39730  1.0000
  C   C3357     1.0  0.79339  0.40235  0.02264  1.0000
  C   C3358     1.0  0.94683  0.38940  0.36648  1.0000
  H   H5743     1.0  0.98533  0.47559  0.32126  1.0000
  C   C3359     1.0  0.95269  0.18874  0.47835  1.0000
  C   C3360     1.0  0.98594  0.36788  0.38689  1.0000
  H   H5744     1.0  0.80488  0.06394  0.34394  1.0000
  C   C3361     1.0  0.98192  0.17260  0.38402  1.0000
  H   H5745     1.0  0.96293  0.10425  0.43268  1.0000
  C   C3362     1.0  0.89808  0.17979  0.44583  1.0000
  H   H5746     1.0  0.89560  0.18606  0.45325  1.0000
  H   H5747     1.0  0.95078  0.37853  0.36767  1.0000
  H   H5748     1.0  0.92386  0.35637  0.40628  1.0000
  H   H5749     1.0  0.88599  0.45433  0.11978  1.0000
  C   C3363     1.0  0.96119  0.33317  0.44130  1.0000
  C   C3364     1.0  0.84408  0.47311  0.03936  1.0000
  C   C3365     1.0  0.94609  0.11438  0.46516  1.0000
  C   C3366     1.0  0.91934  0.39420  0.39812  1.0000
  C   C3367     1.0  0.97914  0.11208  0.43996  1.0000
  H   H5750     1.0  0.91808  0.44688  0.26108  1.0000
  C   C3368     1.0  0.97786  0.18009  0.35716  1.0000
  H   H5751     1.0  0.81812  0.39568  0.00148  1.0000
  C   C3369     1.0  0.95799  0.48368  0.22592  1.0000
  H   H5752     1.0  0.96193  0.45592  0.21473  1.0000
  C   C3370     1.0  0.95726  0.47085  0.22611  1.0000
  H   H5753     1.0  0.86103  0.38320  0.01243  1.0000
  H   H5754     1.0  0.91150  0.37115  0.40501  1.0000
  H   H5755     1.0  0.92547  0.37927  0.41554  1.0000
  H   H5756     1.0  0.90383  0.16977  0.46981  1.0000
  H   H5757     1.0  0.97820  0.46823  0.11512  1.0000
  H   H5758     1.0  0.86219  0.46333  0.07369  1.0000
  H   H5759     1.0  0.89076  0.05765  0.45262  1.0000
  S   S961      1.0  0.92741  0.45752  0.31411  1.0000
  H   H5760     1.0  0.97633  0.47769  0.07646  1.0000
  C   C3371     1.0  0.94817  0.46397  0.31893  1.0000
  C   C3372     1.0  0.93845  0.47052  0.10140  1.0000
  C   C3373     1.0  0.94445  0.23992  0.45936  1.0000
  H   H5761     1.0  0.90713  0.41095  0.37776  1.0000
  H   H5762     1.0  0.79701  0.06079  0.43727  1.0000
  C   C3374     1.0  0.92226  0.46336  0.24497  1.0000
  C   C3375     1.0  0.94781  0.33922  0.44459  1.0000
  H   H5763     1.0  0.81127  0.44183  0.05513  1.0000
  H   H5764     1.0  0.89654  0.45207  0.28208  1.0000
  H   H5765     1.0  0.87690  0.45200  0.06804  1.0000
  H   H5766     1.0  0.94660  0.46927  0.11806  1.0000
  H   H5767     1.0  0.97057  0.21549  0.46689  1.0000
  H   H5768     1.0  0.97225  0.13359  0.43516  1.0000
  H   H5769     1.0  0.79696  0.02191  0.45063  1.0000
  H   H5770     1.0  0.95439  0.45373  0.27326  1.0000
  H   H5771     1.0  0.80453  0.03992  0.45316  1.0000
  H   H5772     1.0  0.91824  0.06309  0.36725  1.0000
  C   C3376     1.0  0.85287  0.37895  0.01215  1.0000
  H   H5773     1.0  0.97610  0.18596  0.34721  1.0000
  H   H5774     1.0  0.91490  0.47702  0.14727  1.0000
  C   C3377     1.0  0.96756  0.25798  0.43776  1.0000
  H   H5775     1.0  0.95435  0.04623  0.39929  1.0000
  H   H5776     1.0  0.94646  0.09057  0.35309  1.0000
  C   C3378     1.0  0.86704  0.03961  0.46925  1.0000
  C   C3379     1.0  0.91875  0.04819  0.46272  1.0000
  H   H5777     1.0  0.89500  0.18641  0.43665  1.0000
  H   H5778     1.0  0.93240  0.19223  0.47704  1.0000
  C   C3380     1.0  0.78985  0.03169  0.45014  1.0000
  H   H5779     1.0  0.96310  0.47678  0.36575  1.0000
  H   H5780     1.0  0.79637  0.43361  0.07765  1.0000
  N   N242      1.0  0.91844  0.16284  0.45308  1.0000
  H   H5781     1.0  0.98533  0.23137  0.47397  1.0000
  H   H5782     1.0  0.81843  0.00179  0.44995  1.0000
  C   C3381     1.0  0.98078  0.42182  0.34314  1.0000
  C   C3382     1.0  0.96318  0.46551  0.21477  1.0000
  H   H5783     1.0  0.79849  0.05969  0.48170  1.0000
  H   H5784     1.0  0.98376  0.34330  0.42099  1.0000
  N   N243      1.0  0.79462  0.43752  0.05058  1.0000
  H   H5785     1.0  0.96743  0.26814  0.43850  1.0000
  C   C3383     1.0  0.90497  0.47755  0.13195  1.0000
  H   H5786     1.0  0.89972  0.47501  0.98587  1.0000
  C   C3384     1.0  0.90593  0.45937  0.00206  1.0000
  C   C3385     1.0  0.78992  0.42504  0.05218  1.0000
  C   C3386     1.0  0.82449  0.00152  0.45691  1.0000
  C   C3387     1.0  0.96966  0.38216  0.26482  1.0000
  C   C3388     1.0  0.83779  0.47520  0.01866  1.0000
  H   H5787     1.0  0.93983  0.44891  0.26219  1.0000
  H   H5788     1.0  0.91842  0.31174  0.47281  1.0000
  C   C3389     1.0  0.98389  0.46445  0.10605  1.0000
  H   H5789     1.0  0.95795  0.09809  0.47666  1.0000
  H   H5790     1.0  0.94471  0.23650  0.47008  1.0000
  C   C3390     1.0  0.90589  0.47427  0.14676  1.0000
  S   S962      1.0  0.88111  0.03679  0.47552  1.0000
  C   C3391     1.0  0.79924  0.06548  0.37380  1.0000
  H   H5791     1.0  0.92223  0.30559  0.43898  1.0000
  C   C3392     1.0  0.94028  0.47547  0.11140  1.0000
  C   C3393     1.0  0.91108  0.14648  0.44408  1.0000
  H   H5792     1.0  0.90676  0.46360  0.15162  1.0000
  H   H5793     1.0  0.95709  0.06275  0.39436  1.0000
  C   C3394     1.0  0.98315  0.21372  0.44122  1.0000
  H   H5794     1.0  0.98468  0.45989  0.28687  1.0000
  C   C3395     1.0  0.89513  0.46792  0.99452  1.0000
  C   C3396     1.0  0.97294  0.10464  0.38890  1.0000
  H   H5795     1.0  0.96167  0.05263  0.38215  1.0000
  H   H5796     1.0  0.98028  0.24849  0.45147  1.0000
  H   H5797     1.0  0.96836  0.13538  0.39468  1.0000
  H   H5798     1.0  0.93073  0.05726  0.46880  1.0000
  H   H5799     1.0  0.96299  0.29214  0.44709  1.0000
  H   H5800     1.0  0.88099  0.44985  0.13802  1.0000
  C   C3397     1.0  0.87406  0.48381  0.99333  1.0000
  H   H5801     1.0  0.82921  0.02625  0.36239  1.0000
  C   C3398     1.0  0.88911  0.48259  0.04892  1.0000
  C   C3399     1.0  0.89371  0.47884  0.11461  1.0000
  H   H5802     1.0  0.89260  0.46100  0.99007  1.0000
  H   H5803     1.0  0.87710  0.45605  0.00944  1.0000
  C   C3400     1.0  0.90129  0.45498  0.28844  1.0000
  H   H5804     1.0  0.90845  0.04722  0.46434  1.0000
  C   C3401     1.0  0.94864  0.09111  0.46543  1.0000
  C   C3402     1.0  0.97179  0.08621  0.42605  1.0000
  H   H5805     1.0  0.93745  0.16760  0.44977  1.0000
  C   C3403     1.0  0.88942  0.45032  0.12925  1.0000
  H   H5806     1.0  0.93041  0.32152  0.46520  1.0000
  H   H5807     1.0  0.87282  0.45309  0.03312  1.0000
  C   C3404     1.0  0.91470  0.16802  0.46573  1.0000
  C   C3405     1.0  0.98295  0.15110  0.44887  1.0000
  H   H5808     1.0  0.92054  0.48194  0.25996  1.0000
  H   H5809     1.0  0.89904  0.44860  0.29861  1.0000
  C   C3406     1.0  0.94401  0.09349  0.36281  1.0000
  H   H5810     1.0  0.97423  0.08829  0.45325  1.0000
  H   H5811     1.0  0.95784  0.25830  0.43604  1.0000
  H   H5812     1.0  0.87775  0.99097  0.43294  1.0000
  H   H5813     1.0  0.91440  0.45472  0.99492  1.0000
  H   H5814     1.0  0.96109  0.40134  0.17417  1.0000
  C   C3407     1.0  0.97362  0.46998  0.25446  1.0000
  C   C3408     1.0  0.98491  0.16602  0.39795  1.0000
  H   H5815     1.0  0.96731  0.08038  0.43581  1.0000
  H   H5816     1.0  0.94076  0.46339  0.28294  1.0000
  C   C3409     1.0  0.98422  0.39903  0.09509  1.0000
  C   C3410     1.0  0.98498  0.47014  0.28093  1.0000
  N   N244      1.0  0.98261  0.39297  0.24171  1.0000
  H   H5817     1.0  0.98488  0.29891  0.35728  1.0000
  H   H5818     1.0  0.97728  0.37614  0.27056  1.0000
  C   C3411     1.0  0.79385  0.03996  0.45740  1.0000
  H   H5819     1.0  0.94610  0.34149  0.47629  1.0000
  C   C3412     1.0  0.98522  0.22504  0.40427  1.0000
  H   H5820     1.0  0.92187  0.47418  0.24257  1.0000
  H   H5821     1.0  0.89606  0.45519  0.05411  1.0000
  H   H5822     1.0  0.97801  0.46152  0.26178  1.0000
  C   C3413     1.0  0.86855  0.47804  0.13413  1.0000
  H   H5823     1.0  0.88636  0.47540  0.11172  1.0000
  H   H5824     1.0  0.92102  0.46483  0.05184  1.0000
  H   H5825     1.0  0.95358  0.29800  0.47526  1.0000
  H   H5826     1.0  0.80906  0.04745  0.38475  1.0000
  H   H5827     1.0  0.97587  0.15298  0.44241  1.0000
  H   H5828     1.0  0.96647  0.48201  0.28866  1.0000
  H   H5829     1.0  0.89248  0.47861  0.01639  1.0000
  C   C3414     1.0  0.97021  0.48312  0.08440  1.0000
  C   C3415     1.0  0.98492  0.40651  0.23379  1.0000
  C   C3416     1.0  0.80781  0.05125  0.37423  1.0000
  C   C3417     1.0  0.90119  0.46001  0.05847  1.0000
  H   H5830     1.0  0.97455  0.10609  0.41720  1.0000
  H   H5831     1.0  0.98215  0.38760  0.22383  1.0000
  H   H5832     1.0  0.96819  0.18164  0.36435  1.0000
  H   H5833     1.0  0.92002  0.45009  0.04807  1.0000
  C   C3418     1.0  0.97081  0.47779  0.27957  1.0000
  H   H5834     1.0  0.97932  0.39804  0.26079  1.0000
  H   H5835     1.0  0.97639  0.36879  0.39436  1.0000
  H   H5836     1.0  0.97440  0.21078  0.44042  1.0000
  H   H5837     1.0  0.78952  0.44878  0.03179  1.0000
  H   H5838     1.0  0.78882  0.06010  0.35164  1.0000
  H   H5839     1.0  0.92974  0.47856  0.17987  1.0000
  C   C3419     1.0  0.97653  0.12539  0.42973  1.0000
  C   C3420     1.0  0.79548  0.05307  0.47731  1.0000
  H   H5840     1.0  0.80391  0.04438  0.47644  1.0000
  H   H5841     1.0  0.93183  0.15869  0.47511  1.0000
  C   C3421     1.0  0.78705  0.04945  0.41103  1.0000
  H   H5842     1.0  0.98103  0.16040  0.45230  1.0000
  H   H5843     1.0  0.98563  0.17342  0.40300  1.0000
  C   C3422     1.0  0.92960  0.48220  0.31491  1.0000
  H   H5844     1.0  0.83534  0.00693  0.47314  1.0000
  H   H5845     1.0  0.97727  0.16036  0.47353  1.0000
  H   H5846     1.0  0.97328  0.18106  0.38538  1.0000
  H   H5847     1.0  0.98400  0.28254  0.36756  1.0000
  C   C3423     1.0  0.98625  0.33254  0.40592  1.0000
  H   H5848     1.0  0.84162  0.98421  0.47650  1.0000
  H   H5849     1.0  0.81572  0.48405  0.04173  1.0000
  H   H5850     1.0  0.85696  0.99688  0.48130  1.0000
  H   H5851     1.0  0.84971  0.01399  0.48144  1.0000
  H   H5852     1.0  0.82362  0.44158  0.98200  1.0000
  C   C3424     1.0  0.96995  0.48247  0.80854  1.0000
  S   S963      1.0  0.83572  0.45304  0.90673  1.0000
  Fe  Fe481     1.0  0.85854  0.43193  0.88189  1.0000
  S   S964      1.0  0.83688  0.44009  0.88163  1.0000
  S   S965      1.0  0.87392  0.41996  0.86780  1.0000
  Fe  Fe482     1.0  0.84030  0.45868  0.88442  1.0000
  C   C3425     1.0  0.97890  0.26909  0.52355  1.0000
  Fe  Fe483     1.0  0.83337  0.43394  0.90406  1.0000
  S   S966      1.0  0.81475  0.42825  0.91821  1.0000
  S   S967      1.0  0.86214  0.45114  0.88281  1.0000
  S   S968      1.0  0.85477  0.42394  0.90428  1.0000
  C   C3426     1.0  0.89173  0.42723  0.80753  1.0000
  S   S969      1.0  0.97078  0.42328  0.67022  1.0000
  C   C3427     1.0  0.95349  0.36613  0.59016  1.0000
  C   C3428     1.0  0.97493  0.45959  0.82063  1.0000
  Fe  Fe484     1.0  0.93355  0.43690  0.80979  1.0000
  S   S970      1.0  0.91304  0.44782  0.81832  1.0000
  S   S971      1.0  0.94191  0.44269  0.78772  1.0000
  H   H5853     1.0  0.88480  0.41253  0.82540  1.0000
  H   H5854     1.0  0.82938  0.99933  0.51252  1.0000
  H   H5855     1.0  0.94376  0.36870  0.59701  1.0000
  H   H5856     1.0  0.91160  0.03457  0.51161  1.0000
  C   C3429     1.0  0.93606  0.45713  0.57723  1.0000
  Fe  Fe485     1.0  0.87298  0.00775  0.52122  1.0000
  S   S972      1.0  0.86155  0.02084  0.53551  1.0000
  S   S973      1.0  0.82740  0.03536  0.52563  1.0000
  Fe  Fe486     1.0  0.87428  0.03122  0.49771  1.0000
  S   S974      1.0  0.86276  0.04630  0.51001  1.0000
  C   C3430     1.0  0.83260  0.99069  0.52041  1.0000
  Fe  Fe487     1.0  0.87573  0.03421  0.52436  1.0000
  S   S975      1.0  0.88707  0.04108  0.53515  1.0000
  H   H5857     1.0  0.88630  0.43608  0.80132  1.0000
  S   S976      1.0  0.88816  0.02010  0.51124  1.0000
  S   S977      1.0  0.86043  0.01735  0.50626  1.0000
  Fe  Fe488     1.0  0.92466  0.10136  0.51473  1.0000
  S   S978      1.0  0.94529  0.09710  0.50252  1.0000
  S   S979      1.0  0.90737  0.09485  0.51221  1.0000
  Fe  Fe489     1.0  0.92945  0.12504  0.52199  1.0000
  S   S980      1.0  0.95012  0.12341  0.50963  1.0000
  S   S981      1.0  0.91838  0.13915  0.53553  1.0000
  Fe  Fe490     1.0  0.94220  0.11906  0.49445  1.0000
  C   C3431     1.0  0.95073  0.47334  0.58093  1.0000
  Fe  Fe491     1.0  0.95209  0.10154  0.51849  1.0000
  S   S982      1.0  0.97173  0.08958  0.52325  1.0000
  S   S983      1.0  0.92124  0.12331  0.50573  1.0000
  S   S984      1.0  0.93168  0.10332  0.53195  1.0000
  Fe  Fe492     1.0  0.94146  0.20370  0.51488  1.0000
  S   S985      1.0  0.95887  0.18663  0.51625  1.0000
  S   S986      1.0  0.92111  0.19965  0.52236  1.0000
  Fe  Fe493     1.0  0.95843  0.22440  0.50281  1.0000
  S   S987      1.0  0.97731  0.20875  0.50332  1.0000
  S   S988      1.0  0.96087  0.24529  0.49210  1.0000
  Fe  Fe494     1.0  0.96765  0.19720  0.49593  1.0000
  H   H5858     1.0  0.97402  0.15002  0.48946  1.0000
  Fe  Fe495     1.0  0.96661  0.19982  0.52368  1.0000
  S   S989      1.0  0.97529  0.19051  0.54179  1.0000
  S   S990      1.0  0.94953  0.21341  0.49382  1.0000
  S   S991      1.0  0.94848  0.21632  0.52392  1.0000
  C   C3432     1.0  0.78825  0.43571  0.91810  1.0000
  H   H5859     1.0  0.97599  0.45948  0.61274  1.0000
  H   H5860     1.0  0.93000  0.38926  0.64701  1.0000
  C   C3433     1.0  0.91315  0.42842  0.79259  1.0000
  Fe  Fe496     1.0  0.94728  0.30873  0.51772  1.0000
  S   S992      1.0  0.96844  0.30464  0.50701  1.0000
  S   S993      1.0  0.93540  0.29318  0.52157  1.0000
  Fe  Fe497     1.0  0.94903  0.33524  0.52227  1.0000
  S   S994      1.0  0.97034  0.33303  0.51137  1.0000
  S   S995      1.0  0.93751  0.35185  0.53320  1.0000
  Fe  Fe498     1.0  0.96421  0.32607  0.49652  1.0000
  H   H5861     1.0  0.94074  0.46606  0.82697  1.0000
  Fe  Fe499     1.0  0.97231  0.31180  0.52286  1.0000
  C   C3434     1.0  0.79139  0.42655  0.89519  1.0000
  S   S996      1.0  0.94258  0.32994  0.50632  1.0000
  S   S997      1.0  0.95148  0.31430  0.53463  1.0000
  Fe  Fe500     1.0  0.95646  0.39978  0.56852  1.0000
  S   S998      1.0  0.95897  0.42099  0.56148  1.0000
  S   S999      1.0  0.96433  0.38595  0.55388  1.0000
  Fe  Fe501     1.0  0.94930  0.40116  0.59798  1.0000
  C   C3435     1.0  0.78834  0.47415  0.97598  1.0000
  S   S1000     1.0  0.94358  0.39059  0.61953  1.0000
  Fe  Fe502     1.0  0.94068  0.42579  0.57715  1.0000
  S   S1001     1.0  0.92710  0.44616  0.57597  1.0000
  H   H5862     1.0  0.89521  0.43125  0.81416  1.0000
  C   C3436     1.0  0.80678  0.02277  0.50056  1.0000
  S   S1002     1.0  0.93692  0.40497  0.58289  1.0000
  S   S1003     1.0  0.96852  0.39468  0.58418  1.0000
  H   H5863     1.0  0.87801  0.41399  0.81113  1.0000
  N   N245      1.0  0.90331  0.41962  0.79886  1.0000
  H   H5864     1.0  0.91226  0.40997  0.81588  1.0000
  C   C3437     1.0  0.98038  0.12668  0.48362  1.0000
  H   H5865     1.0  0.95417  0.47424  0.64204  1.0000
  H   H5866     1.0  0.94030  0.47175  0.67337  1.0000
  S   S1004     1.0  0.93144  0.43741  0.72076  1.0000
  C   C3438     1.0  0.83433  0.46704  0.94240  1.0000
  H   H5867     1.0  0.98210  0.45763  0.73594  1.0000
  C   C3439     1.0  0.97375  0.47851  0.68540  1.0000
  Fe  Fe503     1.0  0.85714  0.44383  0.90502  1.0000
  C   C3440     1.0  0.91415  0.46658  0.68936  1.0000
  H   H5868     1.0  0.95526  0.14433  0.48341  1.0000
  H   H5869     1.0  0.91289  0.47173  0.85869  1.0000
  H   H5870     1.0  0.97884  0.39253  0.85469  1.0000
  H   H5871     1.0  0.87645  0.47134  0.86209  1.0000
  C   C3441     1.0  0.82019  0.98472  0.50095  1.0000
  Fe  Fe504     1.0  0.84978  0.03141  0.51978  1.0000
  H   H5872     1.0  0.90766  0.09924  0.55818  1.0000
  C   C3442     1.0  0.95774  0.46817  0.70949  1.0000
  H   H5873     1.0  0.89991  0.04280  0.48672  1.0000
  H   H5874     1.0  0.86237  0.47937  0.85511  1.0000
  H   H5875     1.0  0.79116  0.46730  0.86758  1.0000
  H   H5876     1.0  0.95148  0.46414  0.71874  1.0000
  H   H5877     1.0  0.91896  0.46697  0.67867  1.0000
  H   H5878     1.0  0.90862  0.11360  0.56275  1.0000
  C   C3443     1.0  0.98246  0.41453  0.73344  1.0000
  S   S1005     1.0  0.97381  0.45905  0.67316  1.0000
  H   H5879     1.0  0.97622  0.32637  0.53683  1.0000
  H   H5880     1.0  0.78672  0.04979  0.48441  1.0000
  H   H5881     1.0  0.95021  0.18836  0.48894  1.0000
  H   H5882     1.0  0.95503  0.44436  0.57162  1.0000
  C   C3444     1.0  0.84894  0.46535  0.96218  1.0000
  H   H5883     1.0  0.85353  0.04466  0.48713  1.0000
  H   H5884     1.0  0.91894  0.47227  0.58280  1.0000
  C   C3445     1.0  0.94394  0.39902  0.63143  1.0000
  C   C3446     1.0  0.78999  0.40946  0.94761  1.0000
  C   C3447     1.0  0.82770  0.46132  0.97635  1.0000
  H   H5885     1.0  0.97787  0.36673  0.57679  1.0000
  C   C3448     1.0  0.95056  0.41623  0.63719  1.0000
  C   C3449     1.0  0.95158  0.40857  0.62806  1.0000
  H   H5886     1.0  0.95312  0.48103  0.62507  1.0000
  H   H5887     1.0  0.89100  0.43278  0.60896  1.0000
  H   H5888     1.0  0.95611  0.42387  0.63432  1.0000
  H   H5889     1.0  0.95821  0.41015  0.61839  1.0000
  H   H5890     1.0  0.94500  0.44801  0.63246  1.0000
  C   C3450     1.0  0.82607  0.02843  0.50319  1.0000
  H   H5891     1.0  0.97806  0.24201  0.52688  1.0000
  H   H5892     1.0  0.80615  0.47929  0.92054  1.0000
  C   C3451     1.0  0.78699  0.41585  0.97396  1.0000
  S   S1006     1.0  0.96985  0.42179  0.79331  1.0000
  C   C3452     1.0  0.81973  0.02462  0.49553  1.0000
  H   H5893     1.0  0.78997  0.02387  0.51713  1.0000
  C   C3453     1.0  0.97204  0.47320  0.82031  1.0000
  H   H5894     1.0  0.86744  0.37679  0.97096  1.0000
  C   C3454     1.0  0.94496  0.36167  0.53854  1.0000
  C   C3455     1.0  0.93708  0.37015  0.54709  1.0000
  C   C3456     1.0  0.94274  0.37789  0.55171  1.0000
  C   C3457     1.0  0.95635  0.37730  0.54771  1.0000
  C   C3458     1.0  0.96416  0.36899  0.53899  1.0000
  C   C3459     1.0  0.95854  0.36113  0.53452  1.0000
  H   H5895     1.0  0.92655  0.37067  0.55019  1.0000
  H   H5896     1.0  0.93660  0.38426  0.55839  1.0000
  H   H5897     1.0  0.97469  0.36845  0.53589  1.0000
  H   H5898     1.0  0.96469  0.35461  0.52801  1.0000
  H   H5899     1.0  0.90252  0.44154  0.77703  1.0000
  S   S1007     1.0  0.95175  0.40951  0.77423  1.0000
  C   C3460     1.0  0.80136  0.45960  0.88373  1.0000
  C   C3461     1.0  0.87997  0.47790  0.88440  1.0000
  C   C3462     1.0  0.92345  0.03899  0.49091  1.0000
  H   H5900     1.0  0.86161  0.48396  0.98048  1.0000
  H   H5901     1.0  0.85327  0.48134  0.94430  1.0000
  H   H5902     1.0  0.95276  0.47493  0.76797  1.0000
  C   C3463     1.0  0.95348  0.25848  0.50034  1.0000
  C   C3464     1.0  0.94281  0.25767  0.51134  1.0000
  C   C3465     1.0  0.93720  0.26845  0.51769  1.0000
  C   C3466     1.0  0.94231  0.27999  0.51317  1.0000
  C   C3467     1.0  0.95290  0.28078  0.50210  1.0000
  C   C3468     1.0  0.95847  0.27008  0.49571  1.0000
  H   H5903     1.0  0.93885  0.24878  0.51493  1.0000
  H   H5904     1.0  0.92894  0.26780  0.52620  1.0000
  H   H5905     1.0  0.95671  0.28971  0.49832  1.0000
  H   H5906     1.0  0.96988  0.45321  0.73093  1.0000
  H   H5907     1.0  0.95071  0.35978  0.57413  1.0000
  C   C3469     1.0  0.82828  0.47539  0.95325  1.0000
  H   H5908     1.0  0.97104  0.44650  0.60098  1.0000
  H   H5909     1.0  0.89783  0.09628  0.53973  1.0000
  H   H5910     1.0  0.89404  0.10713  0.56978  1.0000
  H   H5911     1.0  0.98423  0.43815  0.62711  1.0000
  H   H5912     1.0  0.93137  0.06780  0.49937  1.0000
  H   H5913     1.0  0.78891  0.98881  0.53155  1.0000
  H   H5914     1.0  0.88908  0.09402  0.55639  1.0000
  C   C3470     1.0  0.95351  0.35480  0.58387  1.0000
  H   H5915     1.0  0.83507  0.45624  0.94631  1.0000
  H   H5916     1.0  0.87592  0.43646  0.96274  1.0000
  H   H5917     1.0  0.89052  0.07272  0.48736  1.0000
  N   N246      1.0  0.95946  0.45953  0.62991  1.0000
  H   H5918     1.0  0.96250  0.43950  0.64241  1.0000
  H   H5919     1.0  0.95437  0.40035  0.75080  1.0000
  C   C3471     1.0  0.82791  0.44830  0.97282  1.0000
  H   H5920     1.0  0.92840  0.44686  0.74431  1.0000
  C   C3472     1.0  0.96280  0.33288  0.57852  1.0000
  H   H5921     1.0  0.81752  0.47558  0.95632  1.0000
  C   C3473     1.0  0.98395  0.09857  0.52089  1.0000
  C   C3474     1.0  0.98037  0.11201  0.52144  1.0000
  H   H5922     1.0  0.89476  0.47003  0.89649  1.0000
  H   H5923     1.0  0.85661  0.47876  0.87905  1.0000
  H   H5924     1.0  0.97168  0.32456  0.57745  1.0000
  H   H5925     1.0  0.82157  0.45011  0.96566  1.0000
  H   H5926     1.0  0.97007  0.11680  0.52364  1.0000
  C   C3475     1.0  0.98492  0.20028  0.54371  1.0000
  C   C3476     1.0  0.91642  0.06269  0.49278  1.0000
  C   C3477     1.0  0.92856  0.47770  0.76550  1.0000
  C   C3478     1.0  0.91887  0.15609  0.53055  1.0000
  C   C3479     1.0  0.91009  0.16464  0.53847  1.0000
  C   C3480     1.0  0.91067  0.17803  0.53560  1.0000
  C   C3481     1.0  0.92023  0.18296  0.52494  1.0000
  C   C3482     1.0  0.92896  0.17449  0.51682  1.0000
  C   C3483     1.0  0.92816  0.16106  0.51951  1.0000
  H   H5927     1.0  0.90286  0.16087  0.54698  1.0000
  H   H5928     1.0  0.90387  0.18455  0.54183  1.0000
  H   H5929     1.0  0.93624  0.17832  0.50846  1.0000
  H   H5930     1.0  0.93490  0.15453  0.51327  1.0000
  H   H5931     1.0  0.88052  0.08346  0.54481  1.0000
  H   H5932     1.0  0.92214  0.42364  0.78614  1.0000
  H   H5933     1.0  0.92264  0.42580  0.60165  1.0000
  C   C3484     1.0  0.88806  0.09968  0.54620  1.0000
  H   H5934     1.0  0.98564  0.43700  0.64355  1.0000
  C   C3485     1.0  0.89254  0.05612  0.52885  1.0000
  C   C3486     1.0  0.90305  0.05769  0.53317  1.0000
  C   C3487     1.0  0.90780  0.06949  0.52816  1.0000
  C   C3488     1.0  0.90189  0.07986  0.51896  1.0000
  C   C3489     1.0  0.89119  0.07840  0.51488  1.0000
  C   C3490     1.0  0.88658  0.06654  0.51972  1.0000
  H   H5935     1.0  0.90764  0.04967  0.54030  1.0000
  H   H5936     1.0  0.91602  0.07054  0.53140  1.0000
  H   H5937     1.0  0.88653  0.08643  0.50782  1.0000
  H   H5938     1.0  0.87837  0.06548  0.51648  1.0000
  S   S1008     1.0  0.96063  0.48268  0.58333  1.0000
  H   H5939     1.0  0.93810  0.28424  0.48252  1.0000
  C   C3491     1.0  0.89118  0.06380  0.48372  1.0000
  H   H5940     1.0  0.85805  0.11443  0.57169  1.0000
  Fe  Fe505     1.0  0.96009  0.44302  0.79358  1.0000
  C   C3492     1.0  0.80635  0.02914  0.52082  1.0000
  C   C3493     1.0  0.96550  0.45893  0.61549  1.0000
  C   C3494     1.0  0.94600  0.41758  0.75947  1.0000
  C   C3495     1.0  0.94881  0.41056  0.74939  1.0000
  C   C3496     1.0  0.94467  0.41672  0.73736  1.0000
  C   C3497     1.0  0.93719  0.42978  0.73556  1.0000
  C   C3498     1.0  0.91022  0.41187  0.61203  1.0000
  C   C3499     1.0  0.92899  0.47555  0.75168  1.0000
  C   C3500     1.0  0.92114  0.47259  0.69625  1.0000
  H   H5941     1.0  0.94703  0.41126  0.72957  1.0000
  C   C3501     1.0  0.93954  0.48261  0.67063  1.0000
  C   C3502     1.0  0.88123  0.41946  0.81661  1.0000
  H   H5942     1.0  0.79814  0.46764  0.97311  1.0000
  H   H5943     1.0  0.85915  0.48154  0.95842  1.0000
  C   C3503     1.0  0.97494  0.45532  0.80940  1.0000
  C   C3504     1.0  0.97253  0.46461  0.79773  1.0000
  C   C3505     1.0  0.86619  0.43991  0.93391  1.0000
  C   C3506     1.0  0.93416  0.43675  0.74573  1.0000
  H   H5944     1.0  0.97146  0.45203  0.75930  1.0000
  H   H5945     1.0  0.98603  0.43264  0.75854  1.0000
  S   S1009     1.0  0.96872  0.40378  0.83127  1.0000
  C   C3507     1.0  0.88516  0.42794  0.85465  1.0000
  C   C3508     1.0  0.88233  0.44174  0.84980  1.0000
  C   C3509     1.0  0.89108  0.44773  0.83881  1.0000
  C   C3510     1.0  0.90283  0.44002  0.83271  1.0000
  C   C3511     1.0  0.90586  0.42627  0.83775  1.0000
  C   C3512     1.0  0.89697  0.42025  0.84858  1.0000
  H   H5946     1.0  0.87318  0.44774  0.85426  1.0000
  H   H5947     1.0  0.88862  0.45837  0.83491  1.0000
  H   H5948     1.0  0.91492  0.42024  0.83319  1.0000
  H   H5949     1.0  0.89923  0.40957  0.85229  1.0000
  C   C3513     1.0  0.93053  0.31142  0.48566  1.0000
  H   H5950     1.0  0.85279  0.46122  0.97151  1.0000
  C   C3514     1.0  0.80255  0.42607  0.89974  1.0000
  C   C3515     1.0  0.80102  0.43044  0.91134  1.0000
  C   C3516     1.0  0.85804  0.43076  0.93860  1.0000
  C   C3517     1.0  0.94533  0.45821  0.63273  1.0000
  H   H5951     1.0  0.93840  0.05626  0.48889  1.0000
  H   H5952     1.0  0.81233  0.42196  0.89448  1.0000
  H   H5953     1.0  0.96476  0.45168  0.64921  1.0000
  Fe  Fe506     1.0  0.95943  0.41798  0.81485  1.0000
  H   H5954     1.0  0.92556  0.38987  0.80918  1.0000
  H   H5955     1.0  0.84274  0.98572  0.51582  1.0000
  H   H5956     1.0  0.93664  0.43626  0.76521  1.0000
  C   C3518     1.0  0.81946  0.03066  0.51587  1.0000
  H   H5957     1.0  0.98165  0.36543  0.51150  1.0000
  C   C3519     1.0  0.93875  0.43075  0.75757  1.0000
  C   C3520     1.0  0.90941  0.40725  0.80791  1.0000
  H   H5958     1.0  0.90133  0.44897  0.79074  1.0000
  H   H5959     1.0  0.81261  0.47166  0.89938  1.0000
  Fe  Fe507     1.0  0.95082  0.42096  0.78928  1.0000
  C   C3521     1.0  0.83405  0.99670  0.53134  1.0000
  C   C3522     1.0  0.97043  0.47818  0.79716  1.0000
  H   H5960     1.0  0.83804  0.44288  0.96906  1.0000
  H   H5961     1.0  0.96773  0.45814  0.57529  1.0000
  H   H5962     1.0  0.97066  0.12505  0.48362  1.0000
  H   H5963     1.0  0.90488  0.11842  0.54004  1.0000
  H   H5964     1.0  0.79718  0.41590  0.96793  1.0000
  H   H5965     1.0  0.90351  0.47138  0.69037  1.0000
  H   H5966     1.0  0.92754  0.02381  0.50856  1.0000
  H   H5967     1.0  0.83809  0.48107  0.97877  1.0000
  H   H5968     1.0  0.95286  0.34098  0.60949  1.0000
  H   H5969     1.0  0.82565  0.99282  0.49649  1.0000
  H   H5970     1.0  0.84120  0.00328  0.52678  1.0000
  H   H5971     1.0  0.96674  0.27074  0.48722  1.0000
  H   H5972     1.0  0.95331  0.16129  0.48367  1.0000
  H   H5973     1.0  0.90633  0.41409  0.60287  1.0000
  H   H5974     1.0  0.80754  0.46712  0.87981  1.0000
  H   H5975     1.0  0.80727  0.45056  0.88001  1.0000
  C   C3523     1.0  0.89615  0.11817  0.54858  1.0000
  H   H5976     1.0  0.87969  0.45497  0.60261  1.0000
  H   H5977     1.0  0.96058  0.46778  0.60887  1.0000
  H   H5978     1.0  0.78836  0.39204  0.94135  1.0000
  H   H5979     1.0  0.93902  0.47468  0.74517  1.0000
  H   H5980     1.0  0.93118  0.45163  0.61538  1.0000
  H   H5981     1.0  0.98011  0.48241  0.67621  1.0000
  C   C3524     1.0  0.94197  0.41438  0.64977  1.0000
  C   C3525     1.0  0.85759  0.47502  0.95285  1.0000
  H   H5982     1.0  0.82484  0.02330  0.48559  1.0000
  H   H5983     1.0  0.91785  0.40246  0.61198  1.0000
  N   N247      1.0  0.95186  0.15308  0.55214  1.0000
  C   C3526     1.0  0.95167  0.16626  0.55482  1.0000
  C   C3527     1.0  0.96215  0.14267  0.55871  1.0000
  C   C3528     1.0  0.93831  0.15007  0.55831  1.0000
  C   C3529     1.0  0.95511  0.15453  0.53721  1.0000
  C   C3530     1.0  0.94004  0.17790  0.55139  1.0000
  C   C3531     1.0  0.97654  0.14432  0.55295  1.0000
  C   C3532     1.0  0.93718  0.13543  0.56146  1.0000
  C   C3533     1.0  0.95735  0.14194  0.53194  1.0000
  H   H5984     1.0  0.95147  0.16523  0.56555  1.0000
  H   H5985     1.0  0.96082  0.16979  0.54910  1.0000
  H   H5986     1.0  0.96220  0.13247  0.55820  1.0000
  H   H5987     1.0  0.95980  0.14242  0.56961  1.0000
  H   H5988     1.0  0.93420  0.15320  0.56804  1.0000
  H   H5989     1.0  0.93125  0.15597  0.55184  1.0000
  H   H5990     1.0  0.94707  0.16180  0.53280  1.0000
  H   H5991     1.0  0.96385  0.15905  0.53231  1.0000
  H   H5992     1.0  0.93045  0.17637  0.55816  1.0000
  H   H5993     1.0  0.94173  0.18719  0.55264  1.0000
  H   H5994     1.0  0.93919  0.17975  0.54093  1.0000
  H   H5995     1.0  0.97876  0.44012  0.71350  1.0000
  H   H5996     1.0  0.97995  0.14344  0.54237  1.0000
  H   H5997     1.0  0.97798  0.15380  0.55395  1.0000
  H   H5998     1.0  0.92654  0.13509  0.56432  1.0000
  H   H5999     1.0  0.94156  0.12943  0.57011  1.0000
  H   H6000     1.0  0.94160  0.13062  0.55288  1.0000
  H   H6001     1.0  0.94788  0.14036  0.53120  1.0000
  H   H6002     1.0  0.96253  0.13283  0.53791  1.0000
  H   H6003     1.0  0.96388  0.14312  0.52179  1.0000
  N   N248      1.0  0.97291  0.25940  0.53541  1.0000
  C   C3534     1.0  0.96192  0.33327  0.60714  1.0000
  C   C3535     1.0  0.96069  0.26733  0.54297  1.0000
  C   C3536     1.0  0.96921  0.24959  0.53014  1.0000
  N   N249      1.0  0.91525  0.05256  0.48613  1.0000
  S   S1010     1.0  0.87658  0.98568  0.52938  1.0000
  C   C3537     1.0  0.96302  0.27785  0.54884  1.0000
  C   C3538     1.0  0.95864  0.24204  0.53946  1.0000
  H   H6004     1.0  0.79087  0.48220  0.89275  1.0000
  H   H6005     1.0  0.97120  0.27566  0.51811  1.0000
  H   H6006     1.0  0.80708  0.99808  0.52113  1.0000
  H   H6007     1.0  0.95512  0.26092  0.55138  1.0000
  H   H6008     1.0  0.95360  0.27257  0.53637  1.0000
  H   H6009     1.0  0.96530  0.25473  0.52102  1.0000
  H   H6010     1.0  0.94527  0.47875  0.78912  1.0000
  C   C3539     1.0  0.95909  0.47312  0.63167  1.0000
  H   H6011     1.0  0.91839  0.44923  0.60215  1.0000
  H   H6012     1.0  0.80233  0.39908  0.93211  1.0000
  C   C3540     1.0  0.90173  0.10890  0.56058  1.0000
  C   C3541     1.0  0.85652  0.42352  0.95188  1.0000
  H   H6013     1.0  0.95342  0.28260  0.55461  1.0000
  H   H6014     1.0  0.96983  0.27343  0.55577  1.0000
  H   H6015     1.0  0.96672  0.28596  0.54090  1.0000
  H   H6016     1.0  0.95816  0.23421  0.53478  1.0000
  H   H6017     1.0  0.94868  0.24874  0.54066  1.0000
  H   H6018     1.0  0.96084  0.23697  0.54936  1.0000
  C   C3542     1.0  0.98134  0.40728  0.83631  1.0000
  H   H6019     1.0  0.96868  0.24717  0.56273  1.0000
  C   C3543     1.0  0.92203  0.03430  0.50620  1.0000
  H   H6020     1.0  0.92747  0.45696  0.64836  1.0000
  Fe  Fe508     1.0  0.96927  0.41624  0.57819  1.0000
  C   C3544     1.0  0.87084  0.43495  0.95607  1.0000
  H   H6021     1.0  0.85308  0.42909  0.93192  1.0000
  S   S1011     1.0  0.96660  0.42757  0.70069  1.0000
  C   C3545     1.0  0.83244  0.48338  0.97081  1.0000
  H   H6022     1.0  0.93414  0.03837  0.48630  1.0000
  H   H6023     1.0  0.87903  0.44897  0.93899  1.0000
  H   H6024     1.0  0.86200  0.47848  0.90873  1.0000
  S   S1012     1.0  0.94746  0.41134  0.69523  1.0000
  H   H6025     1.0  0.96681  0.33041  0.61571  1.0000
  H   H6026     1.0  0.79294  0.41904  0.94223  1.0000
  C   C3546     1.0  0.93480  0.40440  0.65336  1.0000
  C   C3547     1.0  0.97247  0.47680  0.62919  1.0000
  H   H6027     1.0  0.92621  0.47659  0.83507  1.0000
  H   H6028     1.0  0.88270  0.45414  0.61851  1.0000
  H   H6029     1.0  0.84425  0.46870  0.93672  1.0000
  H   H6030     1.0  0.98331  0.41756  0.72251  1.0000
  H   H6031     1.0  0.91703  0.46692  0.87482  1.0000
  H   H6032     1.0  0.97202  0.35527  0.56175  1.0000
  Fe  Fe509     1.0  0.96922  0.41074  0.69111  1.0000
  C   C3548     1.0  0.87261  0.44199  0.94265  1.0000
  S   S1013     1.0  0.93754  0.42668  0.65924  1.0000
  H   H6033     1.0  0.88116  0.06162  0.48697  1.0000
  H   H6034     1.0  0.91630  0.47041  0.70705  1.0000
  H   H6035     1.0  0.94494  0.35032  0.58985  1.0000
  S   S1014     1.0  0.83091  0.47948  0.87490  1.0000
  C   C3549     1.0  0.97645  0.34935  0.57036  1.0000
  Fe  Fe510     1.0  0.96588  0.44038  0.68028  1.0000
  N   N250      1.0  0.90704  0.43537  0.61586  1.0000
  S   S1015     1.0  0.97058  0.47850  0.83480  1.0000
  C   C3550     1.0  0.91659  0.42312  0.61192  1.0000
  C   C3551     1.0  0.91437  0.44627  0.61305  1.0000
  C   C3552     1.0  0.89960  0.43274  0.63027  1.0000
  H   H6036     1.0  0.96122  0.44284  0.75624  1.0000
  C   C3553     1.0  0.95709  0.46136  0.57694  1.0000
  C   C3554     1.0  0.92595  0.44334  0.61987  1.0000
  C   C3555     1.0  0.90713  0.42240  0.64043  1.0000
  H   H6037     1.0  0.82467  0.00309  0.53558  1.0000
  C   C3556     1.0  0.96478  0.44662  0.61119  1.0000
  H   H6038     1.0  0.92386  0.41869  0.61839  1.0000
  H   H6039     1.0  0.91660  0.16319  0.48641  1.0000
  H   H6040     1.0  0.97294  0.42258  0.75093  1.0000
  C   C3557     1.0  0.93437  0.48121  0.79053  1.0000
  H   H6041     1.0  0.89595  0.44212  0.63397  1.0000
  H   H6042     1.0  0.89054  0.42919  0.63129  1.0000
  H   H6043     1.0  0.79959  0.45690  0.89478  1.0000
  C   C3558     1.0  0.86283  0.42565  0.96066  1.0000
  H   H6044     1.0  0.91233  0.06028  0.50369  1.0000
  H   H6045     1.0  0.95874  0.46045  0.75043  1.0000
  C   C3559     1.0  0.97609  0.44998  0.73847  1.0000
  H   H6046     1.0  0.92246  0.44329  0.63067  1.0000
  H   H6047     1.0  0.95463  0.44705  0.61047  1.0000
  H   H6048     1.0  0.90891  0.41213  0.63904  1.0000
  H   H6049     1.0  0.90108  0.42253  0.65071  1.0000
  H   H6050     1.0  0.91667  0.42446  0.64009  1.0000
  H   H6051     1.0  0.88697  0.47408  0.87579  1.0000
  C   C3560     1.0  0.90097  0.05153  0.48968  1.0000
  C   C3561     1.0  0.96655  0.44863  0.63960  1.0000
  H   H6052     1.0  0.98359  0.21424  0.52497  1.0000
  C   C3562     1.0  0.92959  0.46922  0.58114  1.0000
  H   H6053     1.0  0.93344  0.47147  0.64630  1.0000
  H   H6054     1.0  0.97953  0.12752  0.49399  1.0000
  H   H6055     1.0  0.79265  0.42295  0.88632  1.0000
  H   H6056     1.0  0.90219  0.41010  0.62096  1.0000
  H   H6057     1.0  0.89260  0.46200  0.60307  1.0000
  H   H6058     1.0  0.85103  0.45675  0.95757  1.0000
  C   C3563     1.0  0.93040  0.06510  0.49044  1.0000
  H   H6059     1.0  0.92139  0.48143  0.86269  1.0000
  H   H6060     1.0  0.97675  0.45236  0.82965  1.0000
  H   H6061     1.0  0.91476  0.45589  0.69432  1.0000
  C   C3564     1.0  0.97631  0.42660  0.74004  1.0000
  H   H6062     1.0  0.88284  0.48404  0.90142  1.0000
  C   C3565     1.0  0.88868  0.47987  0.89262  1.0000
  H   H6063     1.0  0.93382  0.46815  0.77094  1.0000
  H   H6064     1.0  0.97972  0.23316  0.55629  1.0000
  C   C3566     1.0  0.98606  0.32398  0.53859  1.0000
  C   C3567     1.0  0.81523  0.48057  0.89965  1.0000
  N   N251      1.0  0.83432  0.47125  0.96538  1.0000
  H   H6065     1.0  0.93148  0.46669  0.69574  1.0000
  H   H6066     1.0  0.95924  0.32420  0.60665  1.0000
  N   N252      1.0  0.93390  0.45088  0.85357  1.0000
  C   C3568     1.0  0.94792  0.44409  0.84824  1.0000
  C   C3569     1.0  0.92658  0.45514  0.84241  1.0000
  C   C3570     1.0  0.92698  0.44160  0.86503  1.0000
  C   C3571     1.0  0.93419  0.46263  0.85849  1.0000
  C   C3572     1.0  0.95690  0.43804  0.85838  1.0000
  C   C3573     1.0  0.92999  0.46727  0.83136  1.0000
  C   C3574     1.0  0.92695  0.42829  0.86216  1.0000
  C   C3575     1.0  0.92056  0.47103  0.86401  1.0000
  H   H6067     1.0  0.94811  0.43595  0.84360  1.0000
  H   H6068     1.0  0.95303  0.45116  0.84008  1.0000
  H   H6069     1.0  0.91567  0.45731  0.84625  1.0000
  H   H6070     1.0  0.92844  0.44685  0.83732  1.0000
  H   H6071     1.0  0.93120  0.43930  0.87401  1.0000
  H   H6072     1.0  0.91641  0.44646  0.86830  1.0000
  H   H6073     1.0  0.93942  0.45929  0.86685  1.0000
  H   H6074     1.0  0.94021  0.46930  0.85077  1.0000
  H   H6075     1.0  0.95897  0.44581  0.86201  1.0000
  H   H6076     1.0  0.95288  0.43055  0.86692  1.0000
  H   H6077     1.0  0.96661  0.43276  0.85327  1.0000
  H   H6078     1.0  0.92506  0.46850  0.82313  1.0000
  H   H6079     1.0  0.94165  0.45532  0.65467  1.0000
  H   H6080     1.0  0.95252  0.48335  0.75127  1.0000
  H   H6081     1.0  0.92107  0.42260  0.87109  1.0000
  H   H6082     1.0  0.93703  0.42193  0.86020  1.0000
  H   H6083     1.0  0.92220  0.42981  0.85374  1.0000
  H   H6084     1.0  0.79772  0.40389  0.95338  1.0000
  C   C3576     1.0  0.93692  0.47733  0.58301  1.0000
  H   H6085     1.0  0.81712  0.46563  0.97997  1.0000
  C   C3577     1.0  0.89838  0.41614  0.78865  1.0000
  C   C3578     1.0  0.92156  0.39792  0.80126  1.0000
  C   C3579     1.0  0.90856  0.41354  0.77564  1.0000
  H   H6086     1.0  0.90219  0.40083  0.81318  1.0000
  H   H6087     1.0  0.89393  0.40726  0.79322  1.0000
  H   H6088     1.0  0.89025  0.42439  0.78532  1.0000
  H   H6089     1.0  0.87236  0.42660  0.82070  1.0000
  H   H6090     1.0  0.83811  0.98904  0.53944  1.0000
  H   H6091     1.0  0.91887  0.39297  0.79490  1.0000
  H   H6092     1.0  0.92969  0.40297  0.79551  1.0000
  H   H6093     1.0  0.90621  0.40573  0.77228  1.0000
  H   H6094     1.0  0.91901  0.41001  0.77644  1.0000
  H   H6095     1.0  0.90763  0.42250  0.76736  1.0000
  H   H6096     1.0  0.86749  0.46926  0.94879  1.0000
  H   H6097     1.0  0.98548  0.45458  0.71014  1.0000
  H   H6098     1.0  0.78703  0.43943  0.92688  1.0000
  Fe  Fe511     1.0  0.94884  0.42496  0.67479  1.0000
  H   H6099     1.0  0.83599  0.02993  0.49915  1.0000
  H   H6100     1.0  0.84362  0.38251  0.97429  1.0000
  C   C3580     1.0  0.79167  0.40154  0.93698  1.0000
  H   H6101     1.0  0.87615  0.47099  0.97951  1.0000
  C   C3581     1.0  0.94983  0.45340  0.57498  1.0000
  H   H6102     1.0  0.92252  0.31919  0.48989  1.0000
  H   H6103     1.0  0.90762  0.45542  0.61599  1.0000
  H   H6104     1.0  0.97694  0.44481  0.80970  1.0000
  H   H6105     1.0  0.93338  0.43415  0.61817  1.0000
  S   S1016     1.0  0.79967  0.01705  0.49087  1.0000
  H   H6106     1.0  0.98403  0.34093  0.56670  1.0000
  H   H6107     1.0  0.97922  0.38843  0.80536  1.0000
  C   C3582     1.0  0.88756  0.45359  0.60800  1.0000
  N   N253      1.0  0.96604  0.34420  0.58193  1.0000
  H   H6108     1.0  0.94023  0.46519  0.62487  1.0000
  H   H6109     1.0  0.91624  0.44693  0.77837  1.0000
  N   N254      1.0  0.98487  0.43637  0.73778  1.0000
  H   H6110     1.0  0.87225  0.11863  0.57380  1.0000
  H   H6111     1.0  0.96451  0.34021  0.55668  1.0000
  H   H6112     1.0  0.87735  0.09795  0.53212  1.0000
  S   S1017     1.0  0.95129  0.42210  0.59342  1.0000
  S   S1018     1.0  0.97115  0.45925  0.78430  1.0000
  C   C3583     1.0  0.97161  0.33849  0.59431  1.0000
  H   H6113     1.0  0.95487  0.37518  0.58226  1.0000
  H   H6114     1.0  0.80112  0.03096  0.53060  1.0000
  H   H6115     1.0  0.87724  0.11933  0.52715  1.0000
  H   H6116     1.0  0.86378  0.11952  0.54872  1.0000
  H   H6117     1.0  0.88500  0.13962  0.51544  1.0000
  H   H6118     1.0  0.89278  0.13907  0.52825  1.0000
  H   H6119     1.0  0.86770  0.09720  0.54916  1.0000
  H   H6120     1.0  0.95648  0.45415  0.69930  1.0000
  C   C3584     1.0  0.88445  0.13624  0.52637  1.0000
  H   H6121     1.0  0.92793  0.40306  0.66295  1.0000
  C   C3585     1.0  0.78842  0.46442  0.87868  1.0000
  S   S1019     1.0  0.95097  0.43938  0.81546  1.0000
  C   C3586     1.0  0.96073  0.46237  0.69847  1.0000
  H   H6122     1.0  0.93079  0.47209  0.79193  1.0000
  H   H6123     1.0  0.91687  0.43023  0.80048  1.0000
  H   H6124     1.0  0.94778  0.34357  0.56643  1.0000
  C   C3587     1.0  0.90785  0.44220  0.78421  1.0000
  C   C3588     1.0  0.88546  0.12104  0.53035  1.0000
  C   C3589     1.0  0.87194  0.11985  0.55301  1.0000
  C   C3590     1.0  0.87768  0.09452  0.54284  1.0000
  C   C3591     1.0  0.86890  0.11350  0.56808  1.0000
  H   H6125     1.0  0.87062  0.13065  0.55240  1.0000
  H   H6126     1.0  0.97586  0.40738  0.73725  1.0000
  H   H6127     1.0  0.95513  0.32862  0.58665  1.0000
  H   H6128     1.0  0.96842  0.43715  0.61786  1.0000
  S   S1020     1.0  0.94116  0.41498  0.81098  1.0000
  C   C3592     1.0  0.93588  0.39667  0.64427  1.0000
  H   H6129     1.0  0.89472  0.11657  0.52389  1.0000
  H   H6130     1.0  0.87491  0.14181  0.53135  1.0000
  S   S1021     1.0  0.94416  0.44320  0.68303  1.0000
  C   C3593     1.0  0.96908  0.46722  0.68653  1.0000
  C   C3594     1.0  0.93661  0.46068  0.64635  1.0000
  H   H6131     1.0  0.95585  0.32720  0.56408  1.0000
  N   N255      1.0  0.88529  0.11453  0.54490  1.0000
  Fe  Fe512     1.0  0.94498  0.42954  0.70302  1.0000
  H   H6132     1.0  0.96088  0.36381  0.59627  1.0000
  C   C3595     1.0  0.96638  0.45118  0.75198  1.0000
  C   C3596     1.0  0.95746  0.33637  0.56569  1.0000
  H   H6133     1.0  0.89296  0.12840  0.55050  1.0000
  H   H6134     1.0  0.87311  0.10270  0.57057  1.0000
  H   H6135     1.0  0.92965  0.30177  0.49273  1.0000
  C   C3597     1.0  0.98315  0.25248  0.54365  1.0000
  S   S1022     1.0  0.86846  0.44877  0.91717  1.0000
  H   H6136     1.0  0.91023  0.07261  0.48931  1.0000
  H   H6137     1.0  0.92633  0.04025  0.51016  1.0000
  H   H6138     1.0  0.92205  0.48366  0.74643  1.0000
  H   H6139     1.0  0.84963  0.47934  0.89994  1.0000
  C   C3598     1.0  0.96259  0.47929  0.70845  1.0000
  C   C3599     1.0  0.80001  0.02517  0.51319  1.0000
  H   H6140     1.0  0.89716  0.04960  0.50070  1.0000
  H   H6141     1.0  0.87506  0.46958  0.89037  1.0000
  H   H6142     1.0  0.97989  0.40523  0.59983  1.0000
  H   H6143     1.0  0.91811  0.47877  0.77121  1.0000
  H   H6144     1.0  0.96704  0.43158  0.73639  1.0000
  H   H6145     1.0  0.85047  0.41622  0.95531  1.0000
  C   C3600     1.0  0.89725  0.44009  0.60690  1.0000
  H   H6146     1.0  0.83168  0.41100  0.97469  1.0000
  H   H6147     1.0  0.82798  0.47027  0.93499  1.0000
  H   H6148     1.0  0.90252  0.44091  0.59619  1.0000
  H   H6149     1.0  0.98314  0.13616  0.55862  1.0000
  C   C3601     1.0  0.98446  0.39984  0.84848  1.0000
  H   H6150     1.0  0.97553  0.34579  0.59678  1.0000
  H   H6151     1.0  0.87689  0.98937  0.50129  1.0000
  C   C3602     1.0  0.97879  0.24341  0.55732  1.0000
  H   H6152     1.0  0.79003  0.48096  0.98110  1.0000
  H   H6153     1.0  0.92587  0.46615  0.75306  1.0000
  S   S1023     1.0  0.86106  0.41590  0.97703  1.0000
  H   H6154     1.0  0.92634  0.47810  0.71771  1.0000
  H   H6155     1.0  0.98490  0.34372  0.54063  1.0000
  H   H6156     1.0  0.84974  0.39537  0.97631  1.0000
  H   H6157     1.0  0.93996  0.31392  0.48525  1.0000
  H   H6158     1.0  0.97758  0.47110  0.63737  1.0000
  C   C3603     1.0  0.98167  0.44389  0.63497  1.0000
  H   H6159     1.0  0.92089  0.03124  0.48762  1.0000
  H   H6160     1.0  0.97886  0.47575  0.61928  1.0000
  C   C3604     1.0  0.80952  0.98905  0.52897  1.0000
  H   H6161     1.0  0.80862  0.99322  0.53768  1.0000
  S   S1024     1.0  0.98375  0.39175  0.69662  1.0000
  C   C3605     1.0  0.86959  0.48109  0.85974  1.0000
  H   H6162     1.0  0.98295  0.27586  0.52677  1.0000
  H   H6163     1.0  0.80942  0.98900  0.50334  1.0000
  H   H6164     1.0  0.98037  0.33019  0.59258  1.0000
  H   H6165     1.0  0.98501  0.16102  0.51342  1.0000
  C   C3606     1.0  0.84785  0.38530  0.98125  1.0000
  C   C3607     1.0  0.98429  0.35810  0.57279  1.0000
  H   H6166     1.0  0.98635  0.42243  0.81887  1.0000
  C   C3608     1.0  0.98600  0.41068  0.60162  1.0000
  H   H6167     1.0  0.98530  0.24286  0.56396  1.0000
  C   C3609     1.0  0.86168  0.37624  0.98144  1.0000
  H   H6168     1.0  0.98644  0.44299  0.86787  1.0000
  H   H6169     1.0  0.98644  0.46896  0.56631  1.0000
  S   S1025     1.0  0.98577  0.42575  0.57635  1.0000
  H   H6170     1.0  0.79163  0.48373  0.95489  1.0000
  Fe  Fe513     1.0  0.80686  0.92890  0.43064  1.0000
  S   S1026     1.0  0.81380  0.93209  0.40840  1.0000
  H   H6171     1.0  0.80040  0.57770  0.99092  1.0000
  Fe  Fe514     1.0  0.83253  0.93318  0.43400  1.0000
  S   S1027     1.0  0.84139  0.93651  0.41210  1.0000
  S   S1028     1.0  0.84279  0.93789  0.44696  1.0000
  Fe  Fe515     1.0  0.83314  0.91911  0.41316  1.0000
  S   S1029     1.0  0.84572  0.90242  0.40301  1.0000
  S   S1030     1.0  0.81310  0.94657  0.43183  1.0000
  S   S1031     1.0  0.82557  0.91493  0.43540  1.0000
  H   H6172     1.0  0.86446  0.56971  0.22186  1.0000
  H   H6173     1.0  0.94877  0.57751  0.23694  1.0000
  H   H6174     1.0  0.94928  0.56327  0.28650  1.0000
  H   H6175     1.0  0.83785  0.49407  0.00485  1.0000
  H   H6176     1.0  0.87792  0.63274  0.45907  1.0000
  H   H6177     1.0  0.91382  0.50360  0.18228  1.0000
  C   C3610     1.0  0.96576  0.49064  0.21486  1.0000
  H   H6178     1.0  0.78958  0.51072  0.04222  1.0000
  H   H6179     1.0  0.94564  0.54030  0.27479  1.0000
  H   H6180     1.0  0.97763  0.49073  0.19491  1.0000
  H   H6181     1.0  0.92876  0.75038  0.47846  1.0000
  H   H6182     1.0  0.80159  0.89786  0.40648  1.0000
  H   H6183     1.0  0.90262  0.70949  0.47776  1.0000
  C   C3611     1.0  0.96624  0.70173  0.46156  1.0000
  C   C3612     1.0  0.80957  0.55106  0.03146  1.0000
  H   H6184     1.0  0.91893  0.70823  0.46828  1.0000
  C   C3613     1.0  0.96172  0.64132  0.43783  1.0000
  H   H6185     1.0  0.93665  0.55779  0.28358  1.0000
  H   H6186     1.0  0.90687  0.78790  0.38798  1.0000
  C   C3614     1.0  0.91087  0.77035  0.43906  1.0000
  Fe  Fe516     1.0  0.87364  0.52964  0.03945  1.0000
  S   S1032     1.0  0.87604  0.51663  0.02523  1.0000
  S   S1033     1.0  0.89207  0.52498  0.04790  1.0000
  H   H6187     1.0  0.89639  0.50099  0.04058  1.0000
  Fe  Fe517     1.0  0.85634  0.51265  0.03683  1.0000
  H   H6188     1.0  0.82718  0.52309  0.05052  1.0000
  Fe  Fe518     1.0  0.86453  0.53442  0.01330  1.0000
  H   H6189     1.0  0.93142  0.52878  0.05120  1.0000
  H   H6190     1.0  0.95171  0.54093  0.25723  1.0000
  H   H6191     1.0  0.93632  0.58746  0.27982  1.0000
  Fe  Fe519     1.0  0.92325  0.54139  0.09819  1.0000
  S   S1034     1.0  0.93981  0.52413  0.09362  1.0000
  S   S1035     1.0  0.90659  0.55079  0.08712  1.0000
  Fe  Fe520     1.0  0.93309  0.54329  0.12147  1.0000
  S   S1036     1.0  0.95008  0.52585  0.11917  1.0000
  S   S1037     1.0  0.93208  0.55439  0.13683  1.0000
  Fe  Fe521     1.0  0.95307  0.53485  0.09735  1.0000
  H   H6192     1.0  0.96233  0.57750  0.24984  1.0000
  Fe  Fe522     1.0  0.93559  0.51657  0.11587  1.0000
  S   S1038     1.0  0.93677  0.49489  0.12470  1.0000
  S   S1039     1.0  0.93699  0.55315  0.09965  1.0000
  S   S1040     1.0  0.91810  0.53301  0.12035  1.0000
  H   H6193     1.0  0.95156  0.64550  0.43613  1.0000
  Fe  Fe523     1.0  0.92343  0.52909  0.21034  1.0000
  S   S1041     1.0  0.94512  0.52047  0.20781  1.0000
  S   S1042     1.0  0.91141  0.52745  0.19703  1.0000
  Fe  Fe524     1.0  0.92156  0.53827  0.23542  1.0000
  S   S1043     1.0  0.94306  0.53025  0.23555  1.0000
  S   S1044     1.0  0.90612  0.55102  0.24818  1.0000
  Fe  Fe525     1.0  0.94618  0.53868  0.21344  1.0000
  S   S1045     1.0  0.96066  0.55142  0.20213  1.0000
  Fe  Fe526     1.0  0.94021  0.51267  0.23001  1.0000
  C   C3615     1.0  0.95500  0.73912  0.46390  1.0000
  S   S1046     1.0  0.92494  0.54820  0.21370  1.0000
  S   S1047     1.0  0.91831  0.51984  0.23213  1.0000
  C   C3616     1.0  0.79710  0.55111  0.02958  1.0000
  C   C3617     1.0  0.87353  0.63677  0.45014  1.0000
  C   C3618     1.0  0.94446  0.66477  0.44886  1.0000
  S   S1048     1.0  0.93115  0.61703  0.39765  1.0000
  S   S1049     1.0  0.91359  0.60488  0.43510  1.0000
  H   H6194     1.0  0.80675  0.94276  0.46677  1.0000
  H   H6195     1.0  0.78956  0.88669  0.42403  1.0000
  H   H6196     1.0  0.93198  0.57780  0.25768  1.0000
  C   C3619     1.0  0.93267  0.67398  0.41558  1.0000
  S   S1050     1.0  0.90483  0.81963  0.44009  1.0000
  H   H6197     1.0  0.87060  0.54224  0.22641  1.0000
  H   H6198     1.0  0.97956  0.62967  0.42653  1.0000
  H   H6199     1.0  0.90788  0.48995  0.18206  1.0000
  H   H6200     1.0  0.80420  0.56069  0.99926  1.0000
  Fe  Fe527     1.0  0.92892  0.54386  0.31343  1.0000
  S   S1051     1.0  0.94763  0.53275  0.30222  1.0000
  S   S1052     1.0  0.91142  0.55478  0.30437  1.0000
  Fe  Fe528     1.0  0.93959  0.53984  0.33808  1.0000
  S   S1053     1.0  0.95896  0.52806  0.32889  1.0000
  S   S1054     1.0  0.93673  0.54232  0.35922  1.0000
  Fe  Fe529     1.0  0.95736  0.54371  0.31022  1.0000
  S   S1055     1.0  0.97609  0.55049  0.29955  1.0000
  Fe  Fe530     1.0  0.94755  0.51808  0.32178  1.0000
  S   S1056     1.0  0.95722  0.49655  0.32234  1.0000
  S   S1057     1.0  0.93877  0.55628  0.31974  1.0000
  S   S1058     1.0  0.92802  0.52830  0.33267  1.0000
  C   C3620     1.0  0.81144  0.51267  0.02470  1.0000
  H   H6201     1.0  0.93342  0.56044  0.26152  1.0000
  H   H6202     1.0  0.79132  0.93299  0.46515  1.0000
  H   H6203     1.0  0.95824  0.78717  0.45990  1.0000
  C   C3621     1.0  0.94217  0.56587  0.27989  1.0000
  C   C3622     1.0  0.80730  0.48665  0.04997  1.0000
  C   C3623     1.0  0.98432  0.53597  0.09507  1.0000
  H   H6204     1.0  0.98371  0.49402  0.37706  1.0000
  H   H6205     1.0  0.92804  0.57703  0.29390  1.0000
  H   H6206     1.0  0.98163  0.50800  0.24568  1.0000
  H   H6207     1.0  0.86900  0.62889  0.44957  1.0000
  H   H6208     1.0  0.96500  0.73271  0.46417  1.0000
  C   C3624     1.0  0.97562  0.59472  0.43574  1.0000
  C   C3625     1.0  0.91041  0.69214  0.46929  1.0000
  C   C3626     1.0  0.93610  0.49100  0.31677  1.0000
  C   C3627     1.0  0.94970  0.51469  0.15506  1.0000
  S   S1059     1.0  0.87054  0.54027  0.99083  1.0000
  S   S1060     1.0  0.96272  0.60480  0.39039  1.0000
  C   C3628     1.0  0.95442  0.75251  0.46711  1.0000
  H   H6209     1.0  0.93134  0.50142  0.31613  1.0000
  C   C3629     1.0  0.93888  0.50668  0.15875  1.0000
  H   H6210     1.0  0.88056  0.48630  0.14095  1.0000
  H   H6211     1.0  0.80202  0.51568  0.06997  1.0000
  H   H6212     1.0  0.95446  0.86518  0.44494  1.0000
  H   H6213     1.0  0.94763  0.52335  0.14679  1.0000
  H   H6214     1.0  0.86370  0.56809  0.19457  1.0000
  H   H6215     1.0  0.92333  0.58050  0.27845  1.0000
  H   H6216     1.0  0.89420  0.67454  0.43839  1.0000
  C   C3630     1.0  0.97772  0.85929  0.41713  1.0000
  H   H6217     1.0  0.98187  0.49491  0.15643  1.0000
  C   C3631     1.0  0.97006  0.85558  0.41068  1.0000
  C   C3632     1.0  0.80422  0.88944  0.45365  1.0000
  H   H6218     1.0  0.81744  0.92754  0.46403  1.0000
  C   C3633     1.0  0.94288  0.57963  0.36788  1.0000
  C   C3634     1.0  0.93759  0.57000  0.37827  1.0000
  C   C3635     1.0  0.93570  0.55865  0.37548  1.0000
  C   C3636     1.0  0.93896  0.55688  0.36230  1.0000
  C   C3637     1.0  0.94412  0.56658  0.35192  1.0000
  C   C3638     1.0  0.94611  0.57785  0.35471  1.0000
  H   H6219     1.0  0.93497  0.57130  0.38844  1.0000
  H   H6220     1.0  0.93160  0.55124  0.38357  1.0000
  H   H6221     1.0  0.94659  0.56539  0.34175  1.0000
  H   H6222     1.0  0.95019  0.58525  0.34660  1.0000
  C   C3639     1.0  0.97902  0.82250  0.40118  1.0000
  H   H6223     1.0  0.94372  0.76516  0.36927  1.0000
  H   H6224     1.0  0.93714  0.77216  0.47798  1.0000
  H   H6225     1.0  0.90552  0.69765  0.46084  1.0000
  H   H6226     1.0  0.90714  0.77109  0.37596  1.0000
  C   C3640     1.0  0.88598  0.48426  0.00934  1.0000
  H   H6227     1.0  0.88326  0.88160  0.43297  1.0000
  H   H6228     1.0  0.92601  0.65796  0.43092  1.0000
  C   C3641     1.0  0.97963  0.69467  0.47820  1.0000
  H   H6229     1.0  0.98215  0.48503  0.34641  1.0000
  H   H6230     1.0  0.90412  0.57155  0.04037  1.0000
  H   H6231     1.0  0.88382  0.57612  0.18523  1.0000
  H   H6232     1.0  0.81864  0.88871  0.40302  1.0000
  H   H6233     1.0  0.80550  0.49418  0.06734  1.0000
  H   H6234     1.0  0.78770  0.87118  0.45340  1.0000
  H   H6235     1.0  0.91878  0.76716  0.47602  1.0000
  C   C3642     1.0  0.95618  0.57788  0.26008  1.0000
  H   H6236     1.0  0.96743  0.75217  0.43975  1.0000
  H   H6237     1.0  0.90364  0.63649  0.44835  1.0000
  C   C3643     1.0  0.90139  0.89870  0.44076  1.0000
  H   H6238     1.0  0.81224  0.51993  0.99104  1.0000
  H   H6239     1.0  0.98018  0.75637  0.40457  1.0000
  C   C3644     1.0  0.81128  0.87915  0.44489  1.0000
  C   C3645     1.0  0.91313  0.60853  0.45038  1.0000
  C   C3646     1.0  0.90115  0.60923  0.45983  1.0000
  H   H6240     1.0  0.89699  0.54898  0.22472  1.0000
  H   H6241     1.0  0.96016  0.56046  0.02360  1.0000
  H   H6242     1.0  0.89546  0.64335  0.46799  1.0000
  H   H6243     1.0  0.89283  0.60692  0.45789  1.0000
  H   H6244     1.0  0.97760  0.84396  0.46060  1.0000
  C   C3647     1.0  0.90822  0.55137  0.26379  1.0000
  C   C3648     1.0  0.90017  0.56174  0.26979  1.0000
  C   C3649     1.0  0.90131  0.56254  0.28223  1.0000
  C   C3650     1.0  0.91044  0.55293  0.28887  1.0000
  C   C3651     1.0  0.91845  0.54237  0.28301  1.0000
  C   C3652     1.0  0.91742  0.54164  0.27036  1.0000
  H   H6245     1.0  0.89299  0.56922  0.26482  1.0000
  H   H6246     1.0  0.89502  0.57064  0.28677  1.0000
  H   H6247     1.0  0.92522  0.53471  0.28832  1.0000
  H   H6248     1.0  0.92352  0.53348  0.26584  1.0000
  H   H6249     1.0  0.95964  0.50870  0.15161  1.0000
  H   H6250     1.0  0.95043  0.48635  0.26737  1.0000
  H   H6251     1.0  0.93854  0.65732  0.45038  1.0000
  H   H6252     1.0  0.90420  0.68530  0.47605  1.0000
  H   H6253     1.0  0.97291  0.60786  0.44870  1.0000
  H   H6254     1.0  0.95110  0.52088  0.37817  1.0000
  H   H6255     1.0  0.89567  0.50054  0.00602  1.0000
  H   H6256     1.0  0.95769  0.70801  0.45787  1.0000
  H   H6257     1.0  0.87671  0.48916  0.01556  1.0000
  C   C3653     1.0  0.91034  0.61622  0.47438  1.0000
  C   C3654     1.0  0.92599  0.54710  0.15352  1.0000
  C   C3655     1.0  0.91589  0.54015  0.15696  1.0000
  C   C3656     1.0  0.91116  0.53445  0.17042  1.0000
  C   C3657     1.0  0.91676  0.53538  0.18037  1.0000
  C   C3658     1.0  0.92681  0.54236  0.17693  1.0000
  C   C3659     1.0  0.93129  0.54836  0.16354  1.0000
  H   H6258     1.0  0.91166  0.53932  0.14926  1.0000
  H   H6259     1.0  0.90331  0.52913  0.17308  1.0000
  H   H6260     1.0  0.93117  0.54314  0.18456  1.0000
  H   H6261     1.0  0.93905  0.55380  0.16089  1.0000
  C   C3660     1.0  0.92645  0.49671  0.10356  1.0000
  H   H6262     1.0  0.97161  0.75021  0.36373  1.0000
  H   H6263     1.0  0.87954  0.64126  0.42867  1.0000
  H   H6264     1.0  0.96393  0.80522  0.41370  1.0000
  H   H6265     1.0  0.92154  0.50678  0.10453  1.0000
  C   C3661     1.0  0.89881  0.64724  0.44632  1.0000
  C   C3662     1.0  0.90156  0.54264  0.07770  1.0000
  C   C3663     1.0  0.89081  0.54935  0.07164  1.0000
  C   C3664     1.0  0.88731  0.54378  0.06299  1.0000
  C   C3665     1.0  0.89467  0.53150  0.06021  1.0000
  C   C3666     1.0  0.90520  0.52463  0.06655  1.0000
  C   C3667     1.0  0.90860  0.53012  0.07532  1.0000
  H   H6266     1.0  0.88531  0.55903  0.07344  1.0000
  H   H6267     1.0  0.87922  0.54919  0.05814  1.0000
  H   H6268     1.0  0.91099  0.51516  0.06440  1.0000
  H   H6269     1.0  0.91688  0.52485  0.07991  1.0000
  H   H6270     1.0  0.88283  0.49886  0.11853  1.0000
  H   H6271     1.0  0.95065  0.81100  0.39744  1.0000
  C   C3668     1.0  0.97342  0.54429  0.22274  1.0000
  H   H6272     1.0  0.95027  0.75126  0.47803  1.0000
  C   C3669     1.0  0.97343  0.75159  0.37265  1.0000
  C   C3670     1.0  0.93421  0.48855  0.11252  1.0000
  H   H6273     1.0  0.94266  0.57217  0.03660  1.0000
  H   H6274     1.0  0.97200  0.53435  0.22416  1.0000
  C   C3671     1.0  0.97490  0.55049  0.32528  1.0000
  C   C3672     1.0  0.79878  0.56076  0.05067  1.0000
  H   H6275     1.0  0.97193  0.82593  0.37897  1.0000
  C   C3673     1.0  0.83504  0.97476  0.40978  1.0000
  H   H6276     1.0  0.80504  0.89969  0.44819  1.0000
  H   H6277     1.0  0.96344  0.77267  0.44703  1.0000
  C   C3674     1.0  0.97023  0.49361  0.10198  1.0000
  H   H6278     1.0  0.98472  0.63438  0.39086  1.0000
  H   H6279     1.0  0.95055  0.51029  0.27808  1.0000
  H   H6280     1.0  0.96785  0.54568  0.10836  1.0000
  N   N256      1.0  0.88879  0.89479  0.44145  1.0000
  H   H6281     1.0  0.93075  0.61763  0.46714  1.0000
  H   H6282     1.0  0.96694  0.50029  0.21494  1.0000
  H   H6283     1.0  0.82512  0.50970  0.03707  1.0000
  H   H6284     1.0  0.94402  0.67191  0.43915  1.0000
  C   C3675     1.0  0.85904  0.91602  0.47782  1.0000
  H   H6285     1.0  0.92915  0.48518  0.16311  1.0000
  H   H6286     1.0  0.94807  0.73363  0.47179  1.0000
  C   C3676     1.0  0.93934  0.56822  0.25730  1.0000
  H   H6287     1.0  0.96150  0.70958  0.47923  1.0000
  H   H6288     1.0  0.87511  0.66517  0.42786  1.0000
  N   N257      1.0  0.97843  0.81116  0.39576  1.0000
  C   C3677     1.0  0.92399  0.75860  0.47124  1.0000
  Fe  Fe531     1.0  0.93272  0.70277  0.42252  1.0000
  N   N258      1.0  0.96774  0.65198  0.43890  1.0000
  C   C3678     1.0  0.98640  0.54528  0.11246  1.0000
  N   N259      1.0  0.94929  0.56642  0.26547  1.0000
  H   H6289     1.0  0.97770  0.52096  0.28963  1.0000
  H   H6290     1.0  0.89484  0.65525  0.41397  1.0000
  C   C3679     1.0  0.93197  0.57857  0.28292  1.0000
  C   C3680     1.0  0.95432  0.54115  0.26647  1.0000
  C   C3681     1.0  0.84952  0.98347  0.46729  1.0000
  H   H6291     1.0  0.95612  0.56004  0.39976  1.0000
  C   C3682     1.0  0.97610  0.55784  0.37206  1.0000
  H   H6292     1.0  0.82703  0.50791  0.06339  1.0000
  C   C3683     1.0  0.85542  0.88883  0.41232  1.0000
  C   C3684     1.0  0.85129  0.88490  0.42618  1.0000
  C   C3685     1.0  0.85878  0.87376  0.43338  1.0000
  C   C3686     1.0  0.87067  0.86660  0.42689  1.0000
  C   C3687     1.0  0.87495  0.87055  0.41304  1.0000
  C   C3688     1.0  0.86722  0.88153  0.40576  1.0000
  H   H6293     1.0  0.84223  0.89029  0.43137  1.0000
  H   H6294     1.0  0.85541  0.87073  0.44409  1.0000
  H   H6295     1.0  0.88411  0.86509  0.40795  1.0000
  H   H6296     1.0  0.87045  0.88446  0.39502  1.0000
  C   C3689     1.0  0.96659  0.74595  0.38525  1.0000
  C   C3690     1.0  0.96862  0.55456  0.21272  1.0000
  S   S1061     1.0  0.95398  0.70191  0.41240  1.0000
  C   C3691     1.0  0.97625  0.51106  0.25521  1.0000
  H   H6297     1.0  0.98272  0.48532  0.30533  1.0000
  S   S1062     1.0  0.85307  0.49184  0.04480  1.0000
  H   H6298     1.0  0.96354  0.50312  0.09832  1.0000
  H   H6299     1.0  0.80270  0.52978  0.05645  1.0000
  H   H6300     1.0  0.89310  0.91779  0.44724  1.0000
  H   H6301     1.0  0.91045  0.49035  0.28219  1.0000
  C   C3692     1.0  0.84795  0.92452  0.45942  1.0000
  C   C3693     1.0  0.85516  0.92639  0.46745  1.0000
  H   H6302     1.0  0.92320  0.78732  0.35140  1.0000
  H   H6303     1.0  0.96018  0.66418  0.42156  1.0000
  H   H6304     1.0  0.98278  0.65595  0.45678  1.0000
  C   C3694     1.0  0.84487  0.91215  0.46155  1.0000
  H   H6305     1.0  0.85758  0.93594  0.46581  1.0000
  H   H6306     1.0  0.79931  0.56446  0.05890  1.0000
  C   C3695     1.0  0.84171  0.98268  0.41275  1.0000
  H   H6307     1.0  0.83934  0.91065  0.45535  1.0000
  Fe  Fe532     1.0  0.82133  0.94907  0.40992  1.0000
  N   N260      1.0  0.89100  0.65045  0.43567  1.0000
  C   C3696     1.0  0.97293  0.49178  0.35037  1.0000
  C   C3697     1.0  0.89222  0.88466  0.43301  1.0000
  H   H6308     1.0  0.90047  0.57622  0.18562  1.0000
  H   H6309     1.0  0.85766  0.51818  0.99979  1.0000
  H   H6310     1.0  0.89032  0.61389  0.47876  1.0000
  H   H6311     1.0  0.87936  0.49066  0.98503  1.0000
  H   H6312     1.0  0.79242  0.56629  0.98863  1.0000
  C   C3698     1.0  0.94868  0.48621  0.31964  1.0000
  H   H6313     1.0  0.83234  0.85977  0.43143  1.0000
  H   H6314     1.0  0.89877  0.87535  0.43738  1.0000
  H   H6315     1.0  0.91164  0.85676  0.46999  1.0000
  C   C3699     1.0  0.79699  0.92589  0.47247  1.0000
  C   C3700     1.0  0.94739  0.77879  0.37857  1.0000
  H   H6316     1.0  0.83724  0.97103  0.46550  1.0000
  S   S1063     1.0  0.91750  0.74286  0.44426  1.0000
  H   H6317     1.0  0.92802  0.48434  0.27732  1.0000
  H   H6318     1.0  0.95425  0.50124  0.37097  1.0000
  C   C3701     1.0  0.95957  0.55363  0.26475  1.0000
  H   H6319     1.0  0.97898  0.57982  0.21734  1.0000
  H   H6320     1.0  0.98177  0.55060  0.12041  1.0000
  H   H6321     1.0  0.86925  0.58005  0.20593  1.0000
  C   C3702     1.0  0.96867  0.66268  0.42619  1.0000
  H   H6322     1.0  0.98510  0.88603  0.47605  1.0000
  Fe  Fe533     1.0  0.96081  0.59311  0.41144  1.0000
  H   H6323     1.0  0.89781  0.56489  0.17778  1.0000
  C   C3703     1.0  0.81325  0.86992  0.42578  1.0000
  C   C3704     1.0  0.96152  0.50737  0.36483  1.0000
  C   C3705     1.0  0.82405  0.98064  0.40405  1.0000
  H   H6324     1.0  0.85357  0.96258  0.46664  1.0000
  H   H6325     1.0  0.96555  0.52558  0.36710  1.0000
  C   C3706     1.0  0.96148  0.51684  0.37340  1.0000
  H   H6326     1.0  0.92002  0.68618  0.46493  1.0000
  C   C3707     1.0  0.97193  0.48518  0.20356  1.0000
  H   H6327     1.0  0.94303  0.78832  0.38182  1.0000
  H   H6328     1.0  0.95711  0.51367  0.35625  1.0000
  C   C3708     1.0  0.89974  0.61315  0.47167  1.0000
  C   C3709     1.0  0.96839  0.70261  0.47363  1.0000
  H   H6329     1.0  0.90989  0.91048  0.44833  1.0000
  H   H6330     1.0  0.79014  0.91992  0.41705  1.0000
  C   C3710     1.0  0.84434  0.49350  0.02241  1.0000
  H   H6331     1.0  0.93279  0.70811  0.48121  1.0000
  H   H6332     1.0  0.98620  0.52222  0.30114  1.0000
  C   C3711     1.0  0.92876  0.48819  0.17239  1.0000
  H   H6333     1.0  0.81000  0.86100  0.43278  1.0000
  C   C3712     1.0  0.95281  0.48498  0.16772  1.0000
  H   H6334     1.0  0.82069  0.53914  0.99128  1.0000
  H   H6335     1.0  0.86117  0.91548  0.42899  1.0000
  H   H6336     1.0  0.98482  0.83701  0.44630  1.0000
  H   H6337     1.0  0.96388  0.50176  0.07000  1.0000
  H   H6338     1.0  0.96774  0.64044  0.41663  1.0000
  H   H6339     1.0  0.81932  0.51511  0.01576  1.0000
  H   H6340     1.0  0.97340  0.49058  0.24566  1.0000
  H   H6341     1.0  0.83189  0.86016  0.41450  1.0000
  H   H6342     1.0  0.88750  0.49926  0.06485  1.0000
  S   S1064     1.0  0.85457  0.52430  0.05186  1.0000
  H   H6343     1.0  0.95697  0.77984  0.37150  1.0000
  C   C3713     1.0  0.91061  0.63893  0.41935  1.0000
  H   H6344     1.0  0.94860  0.50267  0.18180  1.0000
  C   C3714     1.0  0.93701  0.48976  0.19605  1.0000
  H   H6345     1.0  0.98453  0.57997  0.46104  1.0000
  H   H6346     1.0  0.89926  0.49830  0.10855  1.0000
  S   S1065     1.0  0.81619  0.97071  0.39951  1.0000
  H   H6347     1.0  0.97505  0.82577  0.43565  1.0000
  S   S1066     1.0  0.97330  0.69152  0.43904  1.0000
  H   H6348     1.0  0.95603  0.54323  0.40871  1.0000
  H   H6349     1.0  0.90551  0.90382  0.43042  1.0000
  C   C3715     1.0  0.90010  0.90818  0.44982  1.0000
  C   C3716     1.0  0.81469  0.51492  0.03692  1.0000
  C   C3717     1.0  0.96759  0.82426  0.44508  1.0000
  H   H6350     1.0  0.94297  0.85177  0.46293  1.0000
  H   H6351     1.0  0.92104  0.78673  0.39370  1.0000
  C   C3718     1.0  0.94209  0.84184  0.46845  1.0000
  C   C3719     1.0  0.95826  0.58733  0.47407  1.0000
  H   H6352     1.0  0.82234  0.89370  0.42309  1.0000
  C   C3720     1.0  0.88419  0.63941  0.43730  1.0000
  H   H6353     1.0  0.98021  0.79646  0.41414  1.0000
  H   H6354     1.0  0.81474  0.52561  0.03449  1.0000
  C   C3721     1.0  0.93677  0.54948  0.05733  1.0000
  H   H6355     1.0  0.93672  0.50516  0.27691  1.0000
  S   S1067     1.0  0.87992  0.85320  0.43676  1.0000
  H   H6356     1.0  0.85900  0.97991  0.47072  1.0000
  H   H6357     1.0  0.88653  0.49761  0.10142  1.0000
  H   H6358     1.0  0.95222  0.82677  0.39909  1.0000
  C   C3722     1.0  0.94265  0.77565  0.46764  1.0000
  C   C3723     1.0  0.87056  0.56949  0.21158  1.0000
  H   H6359     1.0  0.97735  0.54835  0.36906  1.0000
  H   H6360     1.0  0.97757  0.53559  0.39236  1.0000
  H   H6361     1.0  0.90702  0.65257  0.44270  1.0000
  C   C3724     1.0  0.82158  0.51825  0.06017  1.0000
  H   H6362     1.0  0.79362  0.88922  0.45773  1.0000
  H   H6363     1.0  0.90274  0.76930  0.44765  1.0000
  H   H6364     1.0  0.94524  0.67317  0.47764  1.0000
  H   H6365     1.0  0.84626  0.50338  0.01886  1.0000
  C   C3725     1.0  0.88099  0.66350  0.43548  1.0000
  C   C3726     1.0  0.98090  0.64544  0.44266  1.0000
  H   H6366     1.0  0.87116  0.87554  0.46980  1.0000
  N   N261      1.0  0.80578  0.51121  0.05042  1.0000
  H   H6367     1.0  0.90342  0.55457  0.20047  1.0000
  H   H6368     1.0  0.90920  0.88968  0.44333  1.0000
  H   H6369     1.0  0.91983  0.48585  0.31280  1.0000
  H   H6370     1.0  0.97032  0.49924  0.34136  1.0000
  H   H6371     1.0  0.87474  0.91336  0.44418  1.0000
  C   C3727     1.0  0.95886  0.86226  0.43549  1.0000
  H   H6372     1.0  0.86540  0.64559  0.45144  1.0000
  C   C3728     1.0  0.91962  0.56886  0.05138  1.0000
  C   C3729     1.0  0.90040  0.65169  0.42212  1.0000
  H   H6373     1.0  0.87789  0.89638  0.46162  1.0000
  H   H6374     1.0  0.95297  0.55955  0.24054  1.0000
  C   C3730     1.0  0.95407  0.78063  0.46927  1.0000
  Fe  Fe534     1.0  0.94831  0.72422  0.40693  1.0000
  H   H6375     1.0  0.98563  0.55761  0.18595  1.0000
  C   C3731     1.0  0.88465  0.58013  0.22602  1.0000
  C   C3732     1.0  0.92252  0.61521  0.46514  1.0000
  C   C3733     1.0  0.93075  0.53510  0.04112  1.0000
  C   C3734     1.0  0.81206  0.89408  0.42275  1.0000
  C   C3735     1.0  0.91950  0.80103  0.37521  1.0000
  C   C3736     1.0  0.98320  0.82229  0.46617  1.0000
  H   H6376     1.0  0.97071  0.48581  0.37960  1.0000
  H   H6377     1.0  0.88578  0.50331  0.99436  1.0000
  C   C3737     1.0  0.88644  0.55244  0.22401  1.0000
  H   H6378     1.0  0.96438  0.83332  0.44922  1.0000
  H   H6379     1.0  0.96473  0.75350  0.46565  1.0000
  C   C3738     1.0  0.95687  0.85494  0.41673  1.0000
  S   S1068     1.0  0.95206  0.72693  0.42551  1.0000
  C   C3739     1.0  0.96897  0.63395  0.42650  1.0000
  H   H6380     1.0  0.90970  0.48669  0.04137  1.0000
  H   H6381     1.0  0.89144  0.62972  0.43727  1.0000
  H   H6382     1.0  0.96608  0.51661  0.25440  1.0000
  H   H6383     1.0  0.80620  0.90323  0.42629  1.0000
  H   H6384     1.0  0.90850  0.77026  0.40646  1.0000
  C   C3740     1.0  0.84764  0.97220  0.46205  1.0000
  H   H6385     1.0  0.95038  0.55124  0.02014  1.0000
  C   C3741     1.0  0.81167  0.89663  0.40789  1.0000
  H   H6386     1.0  0.97846  0.50738  0.10750  1.0000
  H   H6387     1.0  0.95876  0.82314  0.44248  1.0000
  H   H6388     1.0  0.96104  0.78682  0.40913  1.0000
  H   H6389     1.0  0.97085  0.49596  0.12134  1.0000
  H   H6390     1.0  0.90625  0.65925  0.42056  1.0000
  H   H6391     1.0  0.82210  0.87848  0.44315  1.0000
  C   C3742     1.0  0.97219  0.81182  0.45550  1.0000
  C   C3743     1.0  0.90378  0.85125  0.47567  1.0000
  H   H6392     1.0  0.87118  0.97800  0.44521  1.0000
  H   H6393     1.0  0.96196  0.58300  0.46509  1.0000
  H   H6394     1.0  0.92492  0.53073  0.03706  1.0000
  S   S1069     1.0  0.98125  0.86836  0.43729  1.0000
  H   H6395     1.0  0.95217  0.48997  0.35653  1.0000
  H   H6396     1.0  0.97101  0.80974  0.37933  1.0000
  C   C3744     1.0  0.96883  0.74805  0.39668  1.0000
  H   H6397     1.0  0.93920  0.78196  0.36159  1.0000
  H   H6398     1.0  0.96539  0.55125  0.27256  1.0000
  C   C3745     1.0  0.94390  0.55671  0.06279  1.0000
  C   C3746     1.0  0.97092  0.78877  0.40355  1.0000
  H   H6399     1.0  0.89133  0.67883  0.42170  1.0000
  S   S1070     1.0  0.94810  0.49135  0.23895  1.0000
  C   C3747     1.0  0.83963  0.48825  0.01446  1.0000
  C   C3748     1.0  0.88357  0.88858  0.45593  1.0000
  H   H6400     1.0  0.91631  0.75511  0.46891  1.0000
  H   H6401     1.0  0.93702  0.56832  0.23769  1.0000
  H   H6402     1.0  0.82072  0.49377  0.05603  1.0000
  H   H6403     1.0  0.94962  0.51899  0.16339  1.0000
  H   H6404     1.0  0.90016  0.49066  0.02916  1.0000
  H   H6405     1.0  0.97322  0.80297  0.45148  1.0000
  C   C3749     1.0  0.80885  0.93192  0.47124  1.0000
  H   H6406     1.0  0.94417  0.54063  0.05458  1.0000
  C   C3750     1.0  0.94656  0.83651  0.48028  1.0000
  H   H6407     1.0  0.92857  0.77217  0.45235  1.0000
  H   H6408     1.0  0.94980  0.77085  0.38724  1.0000
  H   H6409     1.0  0.78965  0.95160  0.39475  1.0000
  H   H6410     1.0  0.90303  0.58518  0.04728  1.0000
  C   C3751     1.0  0.85860  0.52158  0.98912  1.0000
  H   H6411     1.0  0.96199  0.77237  0.47282  1.0000
  H   H6412     1.0  0.90963  0.88899  0.41727  1.0000
  C   C3752     1.0  0.95971  0.76078  0.43634  1.0000
  H   H6413     1.0  0.94908  0.82532  0.38410  1.0000
  C   C3753     1.0  0.97740  0.56993  0.21889  1.0000
  H   H6414     1.0  0.88742  0.57290  0.23503  1.0000
  C   C3754     1.0  0.95973  0.54951  0.39889  1.0000
  H   H6415     1.0  0.88626  0.53557  0.21595  1.0000
  N   N262      1.0  0.92453  0.77507  0.37909  1.0000
  C   C3755     1.0  0.91196  0.76198  0.40113  1.0000
  H   H6416     1.0  0.78875  0.96030  0.45084  1.0000
  H   H6417     1.0  0.87376  0.58350  0.22766  1.0000
  H   H6418     1.0  0.80888  0.88703  0.46232  1.0000
  H   H6419     1.0  0.98384  0.65105  0.41226  1.0000
  C   C3756     1.0  0.94503  0.56837  0.24231  1.0000
  C   C3757     1.0  0.97069  0.56734  0.21075  1.0000
  S   S1071     1.0  0.82565  0.55483  0.04586  1.0000
  H   H6420     1.0  0.97118  0.79015  0.39284  1.0000
  H   H6421     1.0  0.80373  0.54280  0.99162  1.0000
  C   C3758     1.0  0.98532  0.83576  0.45676  1.0000
  S   S1072     1.0  0.86357  0.54796  0.02644  1.0000
  H   H6422     1.0  0.87992  0.49018  0.05155  1.0000
  H   H6423     1.0  0.97832  0.50770  0.07840  1.0000
  N   N263      1.0  0.94651  0.76494  0.45973  1.0000
  H   H6424     1.0  0.92587  0.80056  0.36521  1.0000
  C   C3759     1.0  0.97934  0.48903  0.37205  1.0000
  C   C3760     1.0  0.95961  0.49416  0.07819  1.0000
  Fe  Fe535     1.0  0.93066  0.72673  0.43373  1.0000
  C   C3761     1.0  0.92480  0.49181  0.09342  1.0000
  H   H6425     1.0  0.91611  0.63409  0.42741  1.0000
  N   N264      1.0  0.93016  0.55779  0.04606  1.0000
  H   H6426     1.0  0.93705  0.49440  0.20412  1.0000
  C   C3762     1.0  0.87914  0.90727  0.43647  1.0000
  C   C3763     1.0  0.92340  0.54955  0.04185  1.0000
  S   S1073     1.0  0.79002  0.49913  0.01632  1.0000
  H   H6427     1.0  0.97358  0.51397  0.16472  1.0000
  H   H6428     1.0  0.86623  0.88231  0.45435  1.0000
  C   C3764     1.0  0.98291  0.75871  0.37157  1.0000
  H   H6429     1.0  0.98045  0.59812  0.46991  1.0000
  H   H6430     1.0  0.93865  0.50371  0.14965  1.0000
  H   H6431     1.0  0.98579  0.51072  0.17387  1.0000
  H   H6432     1.0  0.80095  0.91657  0.46865  1.0000
  H   H6433     1.0  0.98449  0.53879  0.23813  1.0000
  H   H6434     1.0  0.91374  0.54868  0.04890  1.0000
  H   H6435     1.0  0.97436  0.85337  0.40090  1.0000
  H   H6436     1.0  0.93454  0.56949  0.02592  1.0000
  H   H6437     1.0  0.96019  0.58040  0.27833  1.0000
  H   H6438     1.0  0.90972  0.80744  0.37383  1.0000
  H   H6439     1.0  0.96215  0.53219  0.26876  1.0000
  H   H6440     1.0  0.91793  0.64155  0.40995  1.0000
  H   H6441     1.0  0.85080  0.97308  0.45113  1.0000
  C   C3765     1.0  0.95218  0.55484  0.02812  1.0000
  H   H6442     1.0  0.86108  0.89976  0.44005  1.0000
  H   H6443     1.0  0.95631  0.54626  0.03543  1.0000
  H   H6444     1.0  0.89188  0.88305  0.46098  1.0000
  H   H6445     1.0  0.98017  0.71909  0.41480  1.0000
  H   H6446     1.0  0.78713  0.96206  0.43450  1.0000
  H   H6447     1.0  0.96530  0.56196  0.37434  1.0000
  H   H6448     1.0  0.97823  0.57809  0.36134  1.0000
  H   H6449     1.0  0.95833  0.65063  0.45988  1.0000
  H   H6450     1.0  0.92407  0.57589  0.05370  1.0000
  C   C3766     1.0  0.80990  0.49658  0.05643  1.0000
  H   H6451     1.0  0.97501  0.86226  0.47542  1.0000
  C   C3767     1.0  0.97206  0.86288  0.42944  1.0000
  C   C3768     1.0  0.98312  0.54771  0.31326  1.0000
  H   H6452     1.0  0.89390  0.85777  0.47506  1.0000
  H   H6453     1.0  0.90497  0.84317  0.47052  1.0000
  H   H6454     1.0  0.80978  0.86922  0.45108  1.0000
  H   H6455     1.0  0.98229  0.54700  0.17820  1.0000
  H   H6456     1.0  0.94656  0.49464  0.28826  1.0000
  H   H6457     1.0  0.97018  0.62897  0.37062  1.0000
  H   H6458     1.0  0.79645  0.54742  0.02142  1.0000
  H   H6459     1.0  0.95529  0.54772  0.39154  1.0000
  H   H6460     1.0  0.95317  0.73972  0.45407  1.0000
  C   C3769     1.0  0.97714  0.49696  0.11107  1.0000
  H   H6461     1.0  0.91538  0.58275  0.03257  1.0000
  H   H6462     1.0  0.93153  0.50898  0.18337  1.0000
  C   C3770     1.0  0.95455  0.82007  0.39216  1.0000
  H   H6463     1.0  0.89832  0.49592  0.07591  1.0000
  H   H6464     1.0  0.93915  0.68971  0.46885  1.0000
  H   H6465     1.0  0.94861  0.77961  0.44109  1.0000
  H   H6466     1.0  0.97338  0.56927  0.26947  1.0000
  H   H6467     1.0  0.90179  0.49173  0.99292  1.0000
  H   H6468     1.0  0.96326  0.48729  0.10847  1.0000
  H   H6469     1.0  0.91327  0.56479  0.06098  1.0000
  H   H6470     1.0  0.92374  0.80635  0.37998  1.0000
  H   H6471     1.0  0.90942  0.78099  0.35214  1.0000
  N   N265      1.0  0.80725  0.88199  0.43178  1.0000
  H   H6472     1.0  0.94927  0.54932  0.07018  1.0000
  C   C3771     1.0  0.80729  0.51900  0.05950  1.0000
  H   H6473     1.0  0.94069  0.53439  0.03449  1.0000
  C   C3772     1.0  0.95133  0.85806  0.42928  1.0000
  S   S1074     1.0  0.84489  0.52923  0.02366  1.0000
  C   C3773     1.0  0.89367  0.56984  0.18639  1.0000
  C   C3774     1.0  0.81042  0.55557  0.04225  1.0000
  C   C3775     1.0  0.89956  0.49047  0.03973  1.0000
  C   C3776     1.0  0.96947  0.81664  0.38596  1.0000
  N   N266      1.0  0.97477  0.49866  0.36004  1.0000
  H   H6474     1.0  0.85367  0.56290  0.21039  1.0000
  H   H6475     1.0  0.88987  0.58323  0.20478  1.0000
  C   C3777     1.0  0.91698  0.77295  0.37022  1.0000
  H   H6476     1.0  0.90607  0.79190  0.43501  1.0000
  H   H6477     1.0  0.82127  0.52389  0.06757  1.0000
  H   H6478     1.0  0.83329  0.87451  0.41833  1.0000
  H   H6479     1.0  0.81851  0.54751  0.02461  1.0000
  C   C3778     1.0  0.95880  0.65816  0.45027  1.0000
  Fe  Fe536     1.0  0.94953  0.62198  0.39898  1.0000
  C   C3779     1.0  0.82852  0.86591  0.42248  1.0000
  H   H6480     1.0  0.98479  0.64462  0.36835  1.0000
  C   C3780     1.0  0.89304  0.55909  0.19949  1.0000
  H   H6481     1.0  0.88964  0.55100  0.19782  1.0000
  C   C3781     1.0  0.98137  0.66069  0.41518  1.0000
  H   H6482     1.0  0.96435  0.62553  0.42781  1.0000
  N   N267      1.0  0.96976  0.48858  0.26712  1.0000
  N   N268      1.0  0.88494  0.56377  0.21200  1.0000
  C   C3782     1.0  0.89080  0.57448  0.21330  1.0000
  C   C3783     1.0  0.86413  0.56253  0.20497  1.0000
  H   H6483     1.0  0.90161  0.57081  0.21290  1.0000
  H   H6484     1.0  0.86875  0.55195  0.20500  1.0000
  H   H6485     1.0  0.96686  0.51176  0.38151  1.0000
  C   C3784     1.0  0.98469  0.58737  0.42684  1.0000
  C   C3785     1.0  0.88677  0.67594  0.43249  1.0000
  H   H6486     1.0  0.96120  0.48879  0.16817  1.0000
  H   H6487     1.0  0.97310  0.54816  0.34631  1.0000
  H   H6488     1.0  0.80265  0.97571  0.42592  1.0000
  H   H6489     1.0  0.93573  0.75534  0.45218  1.0000
  H   H6490     1.0  0.81112  0.50225  0.02573  1.0000
  H   H6491     1.0  0.81496  0.90601  0.40244  1.0000
  H   H6492     1.0  0.87082  0.90102  0.42311  1.0000
  H   H6493     1.0  0.93577  0.78456  0.46310  1.0000
  H   H6494     1.0  0.88432  0.91383  0.42772  1.0000
  H   H6495     1.0  0.90397  0.76129  0.39692  1.0000
  H   H6496     1.0  0.88869  0.58892  0.22496  1.0000
  H   H6497     1.0  0.88417  0.53231  0.23354  1.0000
  C   C3786     1.0  0.93926  0.49975  0.18257  1.0000
  C   C3787     1.0  0.98054  0.54678  0.23057  1.0000
  H   H6498     1.0  0.93681  0.56418  0.06820  1.0000
  S   S1075     1.0  0.92562  0.80023  0.41088  1.0000
  C   C3788     1.0  0.93628  0.83438  0.46385  1.0000
  H   H6499     1.0  0.94025  0.77419  0.40871  1.0000
  H   H6500     1.0  0.88058  0.65135  0.46255  1.0000
  C   C3789     1.0  0.96557  0.57849  0.26833  1.0000
  Fe  Fe537     1.0  0.90086  0.84158  0.43061  1.0000
  H   H6501     1.0  0.93316  0.83844  0.45458  1.0000
  C   C3790     1.0  0.93960  0.56412  0.03428  1.0000
  C   C3791     1.0  0.91771  0.78739  0.38455  1.0000
  C   C3792     1.0  0.88152  0.54007  0.22474  1.0000
  C   C3793     1.0  0.95448  0.77016  0.44614  1.0000
  S   S1076     1.0  0.93637  0.81963  0.42858  1.0000
  C   C3794     1.0  0.79149  0.51529  0.04939  1.0000
  Fe  Fe538     1.0  0.84459  0.54140  0.03767  1.0000
  C   C3795     1.0  0.93863  0.77513  0.37154  1.0000
  H   H6502     1.0  0.88102  0.55570  0.23345  1.0000
  H   H6503     1.0  0.95907  0.59788  0.47129  1.0000
  C   C3796     1.0  0.92502  0.76301  0.39060  1.0000
  C   C3797     1.0  0.93449  0.82179  0.47131  1.0000
  H   H6504     1.0  0.96987  0.57481  0.38665  1.0000
  C   C3798     1.0  0.93196  0.77318  0.41708  1.0000
  C   C3799     1.0  0.94668  0.65420  0.40106  1.0000
  H   H6505     1.0  0.97854  0.77970  0.40622  1.0000
  H   H6506     1.0  0.89706  0.90365  0.46058  1.0000
  H   H6507     1.0  0.88076  0.86909  0.45555  1.0000
  H   H6508     1.0  0.87868  0.68450  0.43497  1.0000
  S   S1077     1.0  0.95537  0.73635  0.38639  1.0000
  C   C3800     1.0  0.89911  0.88903  0.41826  1.0000
  C   C3801     1.0  0.92337  0.78455  0.42091  1.0000
  H   H6509     1.0  0.93646  0.75189  0.42061  1.0000
  S   S1078     1.0  0.92277  0.68628  0.42433  1.0000
  C   C3802     1.0  0.91014  0.57745  0.04219  1.0000
  C   C3803     1.0  0.93191  0.66065  0.42104  1.0000
  H   H6510     1.0  0.96782  0.67249  0.42833  1.0000
  C   C3804     1.0  0.89269  0.49549  0.99994  1.0000
  C   C3805     1.0  0.97971  0.54640  0.33697  1.0000
  Fe  Fe539     1.0  0.91992  0.81734  0.42118  1.0000
  C   C3806     1.0  0.98440  0.51055  0.16402  1.0000
  C   C3807     1.0  0.87495  0.87838  0.45883  1.0000
  Fe  Fe540     1.0  0.93181  0.60448  0.41841  1.0000
  C   C3808     1.0  0.84667  0.48587  0.03482  1.0000
  H   H6511     1.0  0.87354  0.66353  0.44501  1.0000
  H   H6512     1.0  0.93823  0.64053  0.41810  1.0000
  C   C3809     1.0  0.92988  0.76048  0.42395  1.0000
  H   H6513     1.0  0.96318  0.74447  0.40635  1.0000
  H   H6514     1.0  0.80956  0.87082  0.41675  1.0000
  H   H6515     1.0  0.95140  0.56139  0.05488  1.0000
  C   C3810     1.0  0.89129  0.65094  0.45989  1.0000
  H   H6516     1.0  0.95214  0.49897  0.08586  1.0000
  H   H6517     1.0  0.92229  0.76384  0.36624  1.0000
  Fe  Fe541     1.0  0.92093  0.82374  0.44661  1.0000
  C   C3811     1.0  0.80189  0.56736  0.98980  1.0000
  S   S1079     1.0  0.92608  0.81297  0.46632  1.0000
  H   H6518     1.0  0.94890  0.58757  0.25890  1.0000
  C   C3812     1.0  0.97495  0.54545  0.39510  1.0000
  H   H6519     1.0  0.96366  0.81165  0.46419  1.0000
  S   S1080     1.0  0.93478  0.70465  0.44216  1.0000
  S   S1081     1.0  0.97438  0.53286  0.08614  1.0000
  C   C3813     1.0  0.97849  0.54246  0.10565  1.0000
  S   S1082     1.0  0.91483  0.83897  0.41090  1.0000
  H   H6520     1.0  0.90699  0.79314  0.36145  1.0000
  H   H6521     1.0  0.90594  0.63172  0.41768  1.0000
  C   C3814     1.0  0.91417  0.78438  0.35819  1.0000
  S   S1083     1.0  0.94342  0.58575  0.41128  1.0000
  C   C3815     1.0  0.91227  0.70227  0.47605  1.0000
  H   H6522     1.0  0.92095  0.55453  0.03192  1.0000
  H   H6523     1.0  0.95180  0.75738  0.43443  1.0000
  S   S1084     1.0  0.91596  0.84585  0.43870  1.0000
  S   S1085     1.0  0.94619  0.59374  0.37076  1.0000
  C   C3816     1.0  0.91283  0.78315  0.43201  1.0000
  H   H6524     1.0  0.93321  0.61083  0.44594  1.0000
  C   C3817     1.0  0.92390  0.61142  0.45310  1.0000
  C   C3818     1.0  0.91941  0.75895  0.43503  1.0000
  C   C3819     1.0  0.93889  0.65078  0.41382  1.0000
  H   H6525     1.0  0.96703  0.57527  0.20295  1.0000
  H   H6526     1.0  0.92940  0.54525  0.06589  1.0000
  Fe  Fe542     1.0  0.94440  0.59877  0.39061  1.0000
  C   C3820     1.0  0.97531  0.69277  0.45424  1.0000
  N   N269      1.0  0.93991  0.49491  0.17037  1.0000
  H   H6527     1.0  0.96462  0.76620  0.42658  1.0000
  H   H6528     1.0  0.96464  0.55538  0.32568  1.0000
  C   C3821     1.0  0.94097  0.67732  0.40309  1.0000
  S   S1086     1.0  0.94922  0.61078  0.42005  1.0000
  H   H6529     1.0  0.96523  0.59473  0.43786  1.0000
  H   H6530     1.0  0.83868  0.96411  0.41157  1.0000
  C   C3822     1.0  0.97841  0.75499  0.39564  1.0000
  C   C3823     1.0  0.94797  0.66743  0.39584  1.0000
  C   C3824     1.0  0.98345  0.51504  0.29730  1.0000
  H   H6531     1.0  0.89908  0.88173  0.41266  1.0000
  H   H6532     1.0  0.92856  0.75363  0.38685  1.0000
  S   S1087     1.0  0.95488  0.64217  0.39146  1.0000
  H   H6533     1.0  0.80206  0.51942  0.02251  1.0000
  H   H6534     1.0  0.97349  0.63906  0.35436  1.0000
  S   S1088     1.0  0.92662  0.72488  0.41494  1.0000
  Fe  Fe543     1.0  0.93031  0.84134  0.41996  1.0000
  H   H6535     1.0  0.91373  0.75277  0.40893  1.0000
  H   H6536     1.0  0.97326  0.82419  0.47289  1.0000
  H   H6537     1.0  0.89400  0.89894  0.41338  1.0000
  H   H6538     1.0  0.94165  0.68757  0.39879  1.0000
  H   H6539     1.0  0.97732  0.71748  0.39972  1.0000
  C   C3825     1.0  0.93387  0.76284  0.45813  1.0000
  C   C3826     1.0  0.95536  0.49431  0.26695  1.0000
  H   H6540     1.0  0.95409  0.67012  0.38601  1.0000
  H   H6541     1.0  0.95007  0.78679  0.47689  1.0000
  C   C3827     1.0  0.86750  0.90550  0.43199  1.0000
  H   H6542     1.0  0.93957  0.67049  0.45676  1.0000
  H   H6543     1.0  0.93235  0.76253  0.39626  1.0000
  H   H6544     1.0  0.97061  0.58681  0.26298  1.0000
  H   H6545     1.0  0.91879  0.49815  0.08650  1.0000
  H   H6546     1.0  0.96276  0.66614  0.45156  1.0000
  C   C3828     1.0  0.81355  0.54071  0.98491  1.0000
  H   H6547     1.0  0.89310  0.66044  0.46043  1.0000
  Fe  Fe544     1.0  0.95573  0.70484  0.43167  1.0000
  H   H6548     1.0  0.92932  0.51383  0.16088  1.0000
  C   C3829     1.0  0.97643  0.49909  0.26728  1.0000
  S   S1089     1.0  0.94741  0.85088  0.40801  1.0000
  H   H6549     1.0  0.94114  0.85770  0.43398  1.0000
  H   H6550     1.0  0.97835  0.58120  0.30764  1.0000
  C   C3830     1.0  0.84875  0.90173  0.47196  1.0000
  H   H6551     1.0  0.95422  0.48959  0.07384  1.0000
  H   H6552     1.0  0.96075  0.63370  0.44741  1.0000
  C   C3831     1.0  0.80808  0.97541  0.44395  1.0000
  C   C3832     1.0  0.79243  0.88489  0.43371  1.0000
  H   H6553     1.0  0.96699  0.55460  0.25514  1.0000
  C   C3833     1.0  0.94029  0.68349  0.47882  1.0000
  H   H6554     1.0  0.95810  0.48884  0.14560  1.0000
  H   H6555     1.0  0.78771  0.89426  0.43730  1.0000
  C   C3834     1.0  0.97998  0.60200  0.44199  1.0000
  H   H6556     1.0  0.88352  0.48975  0.08178  1.0000
  H   H6557     1.0  0.90362  0.48855  0.12881  1.0000
  H   H6558     1.0  0.84608  0.89227  0.47387  1.0000
  S   S1090     1.0  0.97913  0.57972  0.41769  1.0000
  C   C3835     1.0  0.91463  0.49664  0.17602  1.0000
  H   H6559     1.0  0.98150  0.51804  0.25643  1.0000
  H   H6560     1.0  0.85049  0.97801  0.41674  1.0000
  H   H6561     1.0  0.98639  0.57515  0.28662  1.0000
  C   C3836     1.0  0.98248  0.55961  0.22867  1.0000
  H   H6562     1.0  0.86553  0.49030  0.99877  1.0000
  H   H6563     1.0  0.98182  0.62198  0.35730  1.0000
  H   H6564     1.0  0.98005  0.66863  0.40609  1.0000
  H   H6565     1.0  0.98552  0.51312  0.35959  1.0000
  H   H6566     1.0  0.96933  0.82609  0.40766  1.0000
  N   N270      1.0  0.98178  0.55528  0.38416  1.0000
  C   C3837     1.0  0.98461  0.71436  0.40611  1.0000
  C   C3838     1.0  0.89034  0.49424  0.11073  1.0000
  H   H6567     1.0  0.95419  0.50155  0.25738  1.0000
  C   C3839     1.0  0.98423  0.50769  0.35275  1.0000
  H   H6568     1.0  0.91104  0.50246  0.16684  1.0000
  H   H6569     1.0  0.98365  0.59535  0.29614  1.0000
  H   H6570     1.0  0.97222  0.50291  0.27660  1.0000
  H   H6571     1.0  0.98016  0.51551  0.34466  1.0000
  H   H6572     1.0  0.80449  0.96821  0.45302  1.0000
  C   C3840     1.0  0.97817  0.63086  0.36173  1.0000
  C   C3841     1.0  0.97326  0.80074  0.40729  1.0000
  H   H6573     1.0  0.97678  0.50957  0.30543  1.0000
  H   H6574     1.0  0.97832  0.54364  0.40452  1.0000
  C   C3842     1.0  0.98443  0.55944  0.47009  1.0000
  H   H6575     1.0  0.78794  0.86494  0.43919  1.0000
  H   H6576     1.0  0.98192  0.52882  0.19402  1.0000
  H   H6577     1.0  0.92733  0.48698  0.19852  1.0000
  H   H6578     1.0  0.97852  0.62200  0.38825  1.0000
  H   H6579     1.0  0.79810  0.49004  0.04622  1.0000
  C   C3843     1.0  0.94705  0.50145  0.27828  1.0000
  C   C3844     1.0  0.97927  0.56800  0.38885  1.0000
  H   H6580     1.0  0.97388  0.56008  0.47060  1.0000
  H   H6581     1.0  0.84946  0.50685  0.98751  1.0000
  H   H6582     1.0  0.81774  0.97011  0.43877  1.0000
  H   H6583     1.0  0.97726  0.56792  0.35128  1.0000
  H   H6584     1.0  0.94754  0.58733  0.47751  1.0000
  C   C3845     1.0  0.89162  0.49164  0.07292  1.0000
  C   C3846     1.0  0.98150  0.56781  0.35966  1.0000
  H   H6585     1.0  0.81428  0.48435  0.98673  1.0000
  H   H6586     1.0  0.97773  0.56592  0.39990  1.0000
  H   H6587     1.0  0.97985  0.63686  0.45139  1.0000
  H   H6588     1.0  0.86686  0.48690  0.12595  1.0000
  C   C3847     1.0  0.98536  0.49785  0.07967  1.0000
  H   H6589     1.0  0.98388  0.75586  0.47713  1.0000
  C   C3848     1.0  0.85566  0.90378  0.48022  1.0000
  H   H6590     1.0  0.98075  0.83134  0.39300  1.0000
  C   C3849     1.0  0.79869  0.98119  0.43410  1.0000
  N   N271      1.0  0.97887  0.48762  0.09041  1.0000
  N   N272      1.0  0.98466  0.81098  0.45973  1.0000
  H   H6591     1.0  0.98198  0.57195  0.16634  1.0000
  C   C3850     1.0  0.98228  0.59223  0.47983  1.0000
  H   H6592     1.0  0.78878  0.52621  0.04522  1.0000
  H   H6593     1.0  0.81042  0.98351  0.44680  1.0000
  H   H6594     1.0  0.98506  0.61448  0.40909  1.0000
  H   H6595     1.0  0.81223  0.93019  0.48054  1.0000
  H   H6596     1.0  0.96709  0.79520  0.48121  1.0000
  C   C3851     1.0  0.98565  0.76009  0.38310  1.0000
  H   H6597     1.0  0.98617  0.70347  0.41024  1.0000
  C   C3852     1.0  0.98638  0.68467  0.45897  1.0000
  H   H6598     1.0  0.98665  0.58554  0.38677  1.0000
  C   C3853     1.0  0.86457  0.53227  0.98222  1.0000
  C   C3854     1.0  0.85407  0.51509  0.98217  1.0000
  Fe  Fe545     1.0  0.82557  0.51364  0.92679  1.0000
  S   S1091     1.0  0.84746  0.50872  0.92535  1.0000
  S   S1092     1.0  0.81313  0.49965  0.92787  1.0000
  Fe  Fe546     1.0  0.82198  0.54182  0.92878  1.0000
  S   S1093     1.0  0.84359  0.53996  0.92756  1.0000
  S   S1094     1.0  0.80581  0.56013  0.93010  1.0000
  Fe  Fe547     1.0  0.84724  0.52879  0.91140  1.0000
  S   S1095     1.0  0.86055  0.53302  0.89080  1.0000
  Fe  Fe548     1.0  0.84242  0.52007  0.94154  1.0000
  S   S1096     1.0  0.85028  0.51014  0.96016  1.0000
  S   S1097     1.0  0.82565  0.53266  0.91145  1.0000
  S   S1098     1.0  0.82052  0.52304  0.94423  1.0000
  Fe  Fe549     1.0  0.95670  0.49847  0.83434  1.0000
  S   S1099     1.0  0.95494  0.50940  0.84993  1.0000
  H   H6599     1.0  0.96868  0.87494  0.49995  1.0000
  Fe  Fe550     1.0  0.93483  0.51851  0.82247  1.0000
  S   S1100     1.0  0.93103  0.53129  0.83726  1.0000
  S   S1101     1.0  0.92079  0.52277  0.80885  1.0000
  Fe  Fe551     1.0  0.95322  0.52749  0.83335  1.0000
  H   H6600     1.0  0.79167  0.52041  0.91423  1.0000
  Fe  Fe552     1.0  0.93301  0.51220  0.85274  1.0000
  S   S1102     1.0  0.92177  0.50762  0.87428  1.0000
  S   S1103     1.0  0.95682  0.51637  0.81726  1.0000
  S   S1104     1.0  0.93500  0.49965  0.83840  1.0000
  Fe  Fe553     1.0  0.83748  0.91664  0.53037  1.0000
  S   S1105     1.0  0.85257  0.92564  0.53336  1.0000
  S   S1106     1.0  0.81602  0.92390  0.53958  1.0000
  Fe  Fe554     1.0  0.85700  0.90365  0.50888  1.0000
  S   S1107     1.0  0.87348  0.91213  0.50937  1.0000
  C   C3855     1.0  0.82289  0.50291  0.90081  1.0000
  Fe  Fe555     1.0  0.86660  0.90599  0.53155  1.0000
  S   S1108     1.0  0.88322  0.89816  0.54247  1.0000
  Fe  Fe556     1.0  0.85823  0.93108  0.51102  1.0000
  S   S1109     1.0  0.86154  0.95138  0.49891  1.0000
  S   S1110     1.0  0.85089  0.89621  0.53102  1.0000
  S   S1111     1.0  0.84235  0.92321  0.50815  1.0000
  H   H6601     1.0  0.93263  0.80157  0.55292  1.0000
  S   S1112     1.0  0.94614  0.85075  0.52254  1.0000
  C   C3856     1.0  0.92724  0.59169  0.58733  1.0000
  Fe  Fe557     1.0  0.95948  0.81261  0.52865  1.0000
  S   S1113     1.0  0.95366  0.82349  0.54542  1.0000
  S   S1114     1.0  0.96831  0.79059  0.53057  1.0000
  Fe  Fe558     1.0  0.93611  0.83482  0.53638  1.0000
  S   S1115     1.0  0.91457  0.83816  0.54670  1.0000
  H   H6602     1.0  0.91053  0.72504  0.48360  1.0000
  S   S1116     1.0  0.94104  0.82261  0.52111  1.0000
  H   H6603     1.0  0.92241  0.58340  0.58863  1.0000
  C   C3857     1.0  0.82975  0.54891  0.96567  1.0000
  C   C3858     1.0  0.95016  0.78059  0.50747  1.0000
  C   C3859     1.0  0.91671  0.66380  0.53331  1.0000
  C   C3860     1.0  0.93016  0.68049  0.52490  1.0000
  S   S1117     1.0  0.92331  0.54792  0.57691  1.0000
  H   H6604     1.0  0.91866  0.49476  0.78188  1.0000
  H   H6605     1.0  0.93752  0.58942  0.58144  1.0000
  Fe  Fe559     1.0  0.95332  0.73568  0.51032  1.0000
  S   S1118     1.0  0.94512  0.50644  0.63539  1.0000
  H   H6606     1.0  0.94992  0.81905  0.49584  1.0000
  S   S1119     1.0  0.93363  0.51176  0.60103  1.0000
  H   H6607     1.0  0.90160  0.96596  0.53416  1.0000
  H   H6608     1.0  0.92013  0.92734  0.53725  1.0000
  C   C3861     1.0  0.96717  0.65851  0.54320  1.0000
  C   C3862     1.0  0.91015  0.62033  0.56231  1.0000
  C   C3863     1.0  0.91615  0.72030  0.49158  1.0000
  C   C3864     1.0  0.82407  0.95690  0.53915  1.0000
  H   H6609     1.0  0.79450  0.93525  0.49545  1.0000
  H   H6610     1.0  0.79498  0.90191  0.48944  1.0000
  H   H6611     1.0  0.91093  0.87500  0.50649  1.0000
  H   H6612     1.0  0.92747  0.60351  0.54783  1.0000
  H   H6613     1.0  0.88257  0.85683  0.50358  1.0000
  C   C3865     1.0  0.96514  0.58571  0.73120  1.0000
  H   H6614     1.0  0.90935  0.71996  0.50157  1.0000
  S   S1120     1.0  0.93949  0.54619  0.70869  1.0000
  Fe  Fe560     1.0  0.95366  0.50859  0.71695  1.0000
  S   S1121     1.0  0.93192  0.51748  0.71976  1.0000
  Fe  Fe561     1.0  0.93749  0.53055  0.69961  1.0000
  H   H6615     1.0  0.78827  0.91299  0.56820  1.0000
  Fe  Fe562     1.0  0.93639  0.53195  0.72860  1.0000
  S   S1122     1.0  0.92294  0.53980  0.74644  1.0000
  H   H6616     1.0  0.79692  0.88815  0.53797  1.0000
  S   S1123     1.0  0.95772  0.52211  0.72735  1.0000
  C   C3866     1.0  0.87137  0.97709  0.52080  1.0000
  H   H6617     1.0  0.93906  0.57653  0.71252  1.0000
  H   H6618     1.0  0.81947  0.96703  0.51602  1.0000
  C   C3867     1.0  0.98372  0.52967  0.84302  1.0000
  H   H6619     1.0  0.89330  0.95309  0.52415  1.0000
  C   C3868     1.0  0.86592  0.53649  0.96832  1.0000
  H   H6620     1.0  0.92745  0.56860  0.75767  1.0000
  H   H6621     1.0  0.91653  0.62723  0.56134  1.0000
  C   C3869     1.0  0.89669  0.62588  0.57092  1.0000
  C   C3870     1.0  0.97535  0.54209  0.83951  1.0000
  H   H6622     1.0  0.87261  0.93944  0.56166  1.0000
  H   H6623     1.0  0.95725  0.87000  0.49415  1.0000
  H   H6624     1.0  0.83370  0.56915  0.95708  1.0000
  C   C3871     1.0  0.86631  0.96587  0.52798  1.0000
  H   H6625     1.0  0.94194  0.78509  0.50262  1.0000
  H   H6626     1.0  0.98154  0.71172  0.57223  1.0000
  H   H6627     1.0  0.80419  0.52048  0.88172  1.0000
  C   C3872     1.0  0.95619  0.55110  0.74179  1.0000
  H   H6628     1.0  0.98173  0.53145  0.72249  1.0000
  H   H6629     1.0  0.96694  0.53183  0.75085  1.0000
  S   S1124     1.0  0.90726  0.62239  0.48887  1.0000
  H   H6630     1.0  0.94685  0.54752  0.74496  1.0000
  C   C3873     1.0  0.93130  0.55872  0.56327  1.0000
  H   H6631     1.0  0.92442  0.52983  0.64017  1.0000
  C   C3874     1.0  0.96434  0.66490  0.50019  1.0000
  N   N273      1.0  0.91738  0.69675  0.48876  1.0000
  C   C3875     1.0  0.93045  0.57668  0.54333  1.0000
  C   C3876     1.0  0.92425  0.56775  0.55399  1.0000
  H   H6632     1.0  0.90125  0.91618  0.52801  1.0000
  C   C3877     1.0  0.90677  0.49493  0.69457  1.0000
  H   H6633     1.0  0.92500  0.58355  0.53616  1.0000
  H   H6634     1.0  0.91399  0.56777  0.55505  1.0000
  C   C3878     1.0  0.94111  0.51628  0.64733  1.0000
  H   H6635     1.0  0.93871  0.78483  0.53949  1.0000
  N   N274      1.0  0.93768  0.76706  0.55523  1.0000
  C   C3879     1.0  0.80686  0.55421  0.96352  1.0000
  C   C3880     1.0  0.94369  0.51829  0.66863  1.0000
  C   C3881     1.0  0.94804  0.51221  0.65762  1.0000
  H   H6636     1.0  0.90924  0.93032  0.55227  1.0000
  H   H6637     1.0  0.87058  0.54475  0.96294  1.0000
  H   H6638     1.0  0.94892  0.51477  0.67664  1.0000
  H   H6639     1.0  0.95573  0.50379  0.75480  1.0000
  H   H6640     1.0  0.88927  0.93897  0.56120  1.0000
  H   H6641     1.0  0.82619  0.51133  0.90126  1.0000
  C   C3882     1.0  0.96439  0.78210  0.52075  1.0000
  C   C3883     1.0  0.95430  0.78807  0.51376  1.0000
  H   H6642     1.0  0.85235  0.50340  0.88818  1.0000
  C   C3884     1.0  0.95613  0.76712  0.50803  1.0000
  C   C3885     1.0  0.96668  0.76128  0.51444  1.0000
  C   C3886     1.0  0.97077  0.76875  0.52082  1.0000
  H   H6643     1.0  0.94930  0.79829  0.51360  1.0000
  S   S1125     1.0  0.97160  0.82679  0.51448  1.0000
  H   H6644     1.0  0.97147  0.75094  0.51478  1.0000
  H   H6645     1.0  0.97862  0.76405  0.52616  1.0000
  C   C3887     1.0  0.86498  0.96143  0.50741  1.0000
  C   C3888     1.0  0.86308  0.95811  0.52131  1.0000
  H   H6646     1.0  0.85917  0.94954  0.52697  1.0000
  C   C3889     1.0  0.89183  0.88156  0.54265  1.0000
  C   C3890     1.0  0.88512  0.87140  0.54516  1.0000
  C   C3891     1.0  0.89216  0.85807  0.54643  1.0000
  C   C3892     1.0  0.90594  0.85491  0.54489  1.0000
  C   C3893     1.0  0.91266  0.86512  0.54203  1.0000
  C   C3894     1.0  0.90560  0.87838  0.54108  1.0000
  H   H6647     1.0  0.87448  0.87377  0.54654  1.0000
  H   H6648     1.0  0.88691  0.85020  0.54869  1.0000
  H   H6649     1.0  0.92323  0.86276  0.54107  1.0000
  H   H6650     1.0  0.91084  0.88615  0.53922  1.0000
  H   H6651     1.0  0.78932  0.54934  0.97926  1.0000
  C   C3895     1.0  0.80619  0.90378  0.53728  1.0000
  H   H6652     1.0  0.95886  0.65631  0.55176  1.0000
  H   H6653     1.0  0.92120  0.52529  0.89348  1.0000
  C   C3896     1.0  0.97947  0.72033  0.55194  1.0000
  C   C3897     1.0  0.79600  0.89879  0.53598  1.0000
  H   H6654     1.0  0.81483  0.89699  0.54043  1.0000
  C   C3898     1.0  0.88294  0.93380  0.55893  1.0000
  H   H6655     1.0  0.88917  0.95828  0.54580  1.0000
  C   C3899     1.0  0.92281  0.52790  0.79129  1.0000
  C   C3900     1.0  0.93486  0.52490  0.78215  1.0000
  C   C3901     1.0  0.93523  0.52820  0.76824  1.0000
  C   C3902     1.0  0.92364  0.53489  0.76354  1.0000
  C   C3903     1.0  0.91185  0.53815  0.77273  1.0000
  C   C3904     1.0  0.91140  0.53448  0.78644  1.0000
  H   H6656     1.0  0.94372  0.51968  0.78581  1.0000
  H   H6657     1.0  0.94440  0.52566  0.76123  1.0000
  H   H6658     1.0  0.90287  0.54334  0.76925  1.0000
  H   H6659     1.0  0.90206  0.53680  0.79338  1.0000
  C   C3905     1.0  0.85545  0.51921  0.96832  1.0000
  C   C3906     1.0  0.86132  0.52998  0.96135  1.0000
  H   H6660     1.0  0.86255  0.53312  0.95061  1.0000
  C   C3907     1.0  0.87781  0.52671  0.88696  1.0000
  C   C3908     1.0  0.88500  0.53111  0.87403  1.0000
  C   C3909     1.0  0.89847  0.52534  0.87002  1.0000
  C   C3910     1.0  0.90493  0.51528  0.87903  1.0000
  C   C3911     1.0  0.89787  0.51118  0.89213  1.0000
  C   C3912     1.0  0.88433  0.51683  0.89608  1.0000
  H   H6661     1.0  0.88004  0.53883  0.86695  1.0000
  H   H6662     1.0  0.90382  0.52865  0.85994  1.0000
  H   H6663     1.0  0.90284  0.50346  0.89919  1.0000
  H   H6664     1.0  0.87889  0.51339  0.90608  1.0000
  H   H6665     1.0  0.97078  0.56291  0.83971  1.0000
  H   H6666     1.0  0.95838  0.66708  0.52639  1.0000
  H   H6667     1.0  0.94771  0.79022  0.55536  1.0000
  H   H6668     1.0  0.95014  0.55175  0.56886  1.0000
  H   H6669     1.0  0.95422  0.58032  0.71229  1.0000
  H   H6670     1.0  0.93771  0.55368  0.76548  1.0000
  H   H6671     1.0  0.93639  0.66054  0.52111  1.0000
  Fe  Fe563     1.0  0.93764  0.53130  0.58732  1.0000
  H   H6672     1.0  0.93963  0.74941  0.54793  1.0000
  H   H6673     1.0  0.98003  0.64756  0.50090  1.0000
  C   C3913     1.0  0.97690  0.61459  0.50135  1.0000
  C   C3914     1.0  0.95676  0.74836  0.56304  1.0000
  H   H6674     1.0  0.88359  0.92306  0.54463  1.0000
  C   C3915     1.0  0.86973  0.97288  0.50021  1.0000
  C   C3916     1.0  0.93826  0.76040  0.54428  1.0000
  H   H6675     1.0  0.94163  0.48552  0.65958  1.0000
  C   C3917     1.0  0.91901  0.86901  0.50024  1.0000
  H   H6676     1.0  0.91244  0.92649  0.51835  1.0000
  H   H6677     1.0  0.94316  0.60938  0.56485  1.0000
  C   C3918     1.0  0.91980  0.68963  0.53094  1.0000
  C   C3919     1.0  0.86869  0.51277  0.86284  1.0000
  H   H6678     1.0  0.96953  0.52045  0.88146  1.0000
  H   H6679     1.0  0.89512  0.92671  0.50719  1.0000
  H   H6680     1.0  0.93421  0.50954  0.75530  1.0000
  S   S1126     1.0  0.85949  0.89151  0.49404  1.0000
  H   H6681     1.0  0.95796  0.74252  0.55555  1.0000
  H   H6682     1.0  0.96678  0.74691  0.56482  1.0000
  H   H6683     1.0  0.95051  0.74422  0.57264  1.0000
  C   C3920     1.0  0.89277  0.93301  0.51457  1.0000
  N   N275      1.0  0.89959  0.93332  0.53590  1.0000
  H   H6684     1.0  0.95858  0.76678  0.54872  1.0000
  H   H6685     1.0  0.83643  0.49131  0.96281  1.0000
  H   H6686     1.0  0.94696  0.76193  0.53605  1.0000
  C   C3921     1.0  0.90090  0.94755  0.53005  1.0000
  H   H6687     1.0  0.78887  0.58107  0.91581  1.0000
  S   S1127     1.0  0.95854  0.69789  0.52660  1.0000
  C   C3922     1.0  0.92550  0.53273  0.65904  1.0000
  H   H6688     1.0  0.93911  0.68362  0.51901  1.0000
  H   H6689     1.0  0.95462  0.49667  0.77249  1.0000
  H   H6690     1.0  0.93028  0.48481  0.79997  1.0000
  H   H6691     1.0  0.81137  0.49121  0.96990  1.0000
  S   S1128     1.0  0.94958  0.75771  0.50147  1.0000
  H   H6692     1.0  0.90657  0.95191  0.54659  1.0000
  H   H6693     1.0  0.78981  0.93461  0.55409  1.0000
  C   C3923     1.0  0.90717  0.84593  0.51194  1.0000
  H   H6694     1.0  0.89407  0.51472  0.69436  1.0000
  C   C3924     1.0  0.92691  0.68341  0.48893  1.0000
  Fe  Fe564     1.0  0.96413  0.83871  0.53032  1.0000
  H   H6695     1.0  0.79107  0.53959  0.93395  1.0000
  H   H6696     1.0  0.86575  0.50074  0.89555  1.0000
  C   C3925     1.0  0.88585  0.93266  0.54421  1.0000
  H   H6697     1.0  0.96777  0.48968  0.76036  1.0000
  C   C3926     1.0  0.91887  0.53617  0.88937  1.0000
  C   C3927     1.0  0.96531  0.57919  0.48549  1.0000
  H   H6698     1.0  0.95304  0.56328  0.71504  1.0000
  H   H6699     1.0  0.93051  0.50157  0.69324  1.0000
  C   C3928     1.0  0.88647  0.87243  0.51013  1.0000
  S   S1129     1.0  0.97669  0.85150  0.53187  1.0000
  H   H6700     1.0  0.86496  0.96316  0.53874  1.0000
  H   H6701     1.0  0.94605  0.58050  0.75283  1.0000
  H   H6702     1.0  0.91721  0.83933  0.51014  1.0000
  Fe  Fe565     1.0  0.93989  0.71221  0.52245  1.0000
  H   H6703     1.0  0.89806  0.63099  0.57800  1.0000
  H   H6704     1.0  0.89157  0.68419  0.51300  1.0000
  H   H6705     1.0  0.85395  0.49504  0.86943  1.0000
  S   S1130     1.0  0.96485  0.50476  0.60191  1.0000
  H   H6706     1.0  0.85862  0.51607  0.86869  1.0000
  H   H6707     1.0  0.81371  0.55164  0.88790  1.0000
  H   H6708     1.0  0.90126  0.90860  0.55381  1.0000
  C   C3929     1.0  0.86076  0.49557  0.89139  1.0000
  C   C3930     1.0  0.98165  0.52767  0.60913  1.0000
  N   N276      1.0  0.86999  0.49011  0.87969  1.0000
  H   H6709     1.0  0.93557  0.76740  0.58174  1.0000
  H   H6710     1.0  0.96480  0.51982  0.86683  1.0000
  H   H6711     1.0  0.95627  0.56570  0.75989  1.0000
  H   H6712     1.0  0.92916  0.67907  0.49900  1.0000
  H   H6713     1.0  0.79273  0.93682  0.52927  1.0000
  C   C3931     1.0  0.94300  0.57243  0.73236  1.0000
  H   H6714     1.0  0.78915  0.51799  0.96062  1.0000
  H   H6715     1.0  0.97419  0.80447  0.48819  1.0000
  H   H6716     1.0  0.88331  0.92379  0.56571  1.0000
  H   H6717     1.0  0.90777  0.85198  0.51852  1.0000
  H   H6718     1.0  0.90059  0.49322  0.68872  1.0000
  C   C3932     1.0  0.96669  0.87343  0.49091  1.0000
  H   H6719     1.0  0.98209  0.48448  0.55516  1.0000
  C   C3933     1.0  0.79189  0.55567  0.96925  1.0000
  H   H6720     1.0  0.84689  0.49057  0.91031  1.0000
  H   H6721     1.0  0.93300  0.49184  0.71623  1.0000
  H   H6722     1.0  0.92618  0.50122  0.67255  1.0000
  H   H6723     1.0  0.82506  0.52311  0.97669  1.0000
  H   H6724     1.0  0.80829  0.89874  0.50559  1.0000
  H   H6725     1.0  0.79284  0.54673  0.90029  1.0000
  H   H6726     1.0  0.92908  0.75110  0.56947  1.0000
  C   C3934     1.0  0.90213  0.92675  0.52435  1.0000
  H   H6727     1.0  0.83020  0.95142  0.53130  1.0000
  H   H6728     1.0  0.90493  0.67460  0.50338  1.0000
  N   N277      1.0  0.81553  0.55219  0.97311  1.0000
  H   H6729     1.0  0.97226  0.52548  0.61001  1.0000
  H   H6730     1.0  0.91862  0.77562  0.58107  1.0000
  C   C3935     1.0  0.79566  0.52767  0.87794  1.0000
  H   H6731     1.0  0.93504  0.53288  0.86462  1.0000
  H   H6732     1.0  0.81011  0.52731  0.85911  1.0000
  C   C3936     1.0  0.81597  0.49566  0.91238  1.0000
  H   H6733     1.0  0.96828  0.66876  0.54222  1.0000
  C   C3937     1.0  0.91024  0.92610  0.54362  1.0000
  C   C3938     1.0  0.96430  0.65717  0.53032  1.0000
  N   N278      1.0  0.91669  0.60617  0.56764  1.0000
  H   H6734     1.0  0.96484  0.64491  0.51159  1.0000
  H   H6735     1.0  0.89100  0.61820  0.57670  1.0000
  H   H6736     1.0  0.96021  0.58374  0.49429  1.0000
  C   C3939     1.0  0.97159  0.65192  0.50818  1.0000
  H   H6737     1.0  0.90975  0.60731  0.58843  1.0000
  C   C3940     1.0  0.81347  0.56481  0.97783  1.0000
  C   C3941     1.0  0.97744  0.62869  0.53261  1.0000
  H   H6738     1.0  0.97054  0.67234  0.49564  1.0000
  C   C3942     1.0  0.90661  0.67285  0.53966  1.0000
  H   H6739     1.0  0.97426  0.49315  0.69548  1.0000
  H   H6740     1.0  0.79876  0.91998  0.57313  1.0000
  S   S1131     1.0  0.96300  0.54431  0.83077  1.0000
  C   C3943     1.0  0.91925  0.60526  0.58105  1.0000
  H   H6741     1.0  0.98242  0.52102  0.84067  1.0000
  C   C3944     1.0  0.81482  0.52726  0.98158  1.0000
  C   C3945     1.0  0.90123  0.59894  0.55773  1.0000
  H   H6742     1.0  0.97095  0.63075  0.54220  1.0000
  C   C3946     1.0  0.97714  0.55327  0.84248  1.0000
  C   C3947     1.0  0.89848  0.68469  0.50304  1.0000
  H   H6743     1.0  0.95656  0.50400  0.65732  1.0000
  C   C3948     1.0  0.92616  0.76496  0.53780  1.0000
  C   C3949     1.0  0.92940  0.60233  0.55782  1.0000
  Fe  Fe566     1.0  0.92296  0.62306  0.49861  1.0000
  C   C3950     1.0  0.94011  0.61019  0.55554  1.0000
  C   C3951     1.0  0.92857  0.66757  0.52596  1.0000
  H   H6744     1.0  0.93399  0.59160  0.56086  1.0000
  S   S1132     1.0  0.94800  0.53546  0.60078  1.0000
  C   C3952     1.0  0.92996  0.52675  0.64794  1.0000
  H   H6745     1.0  0.92439  0.61310  0.58054  1.0000
  H   H6746     1.0  0.94908  0.60591  0.54861  1.0000
  H   H6747     1.0  0.93701  0.62079  0.55065  1.0000
  N   N279      1.0  0.78789  0.92336  0.48608  1.0000
  C   C3953     1.0  0.92755  0.76215  0.56722  1.0000
  H   H6748     1.0  0.90874  0.51475  0.68153  1.0000
  H   H6749     1.0  0.98162  0.79749  0.54625  1.0000
  C   C3954     1.0  0.89739  0.83712  0.52049  1.0000
  C   C3955     1.0  0.82627  0.49877  0.88873  1.0000
  H   H6750     1.0  0.96027  0.54284  0.76205  1.0000
  H   H6751     1.0  0.80315  0.54385  0.86126  1.0000
  H   H6752     1.0  0.87134  0.97544  0.48944  1.0000
  H   H6753     1.0  0.78893  0.52154  0.87781  1.0000
  H   H6754     1.0  0.92325  0.85671  0.48647  1.0000
  H   H6755     1.0  0.87503  0.48820  0.85210  1.0000
  H   H6756     1.0  0.83655  0.54628  0.97263  1.0000
  H   H6757     1.0  0.90058  0.83182  0.52999  1.0000
  H   H6758     1.0  0.96797  0.49297  0.80814  1.0000
  H   H6759     1.0  0.81541  0.54249  0.87577  1.0000
  C   C3956     1.0  0.79828  0.98154  0.53305  1.0000
  H   H6760     1.0  0.91690  0.76338  0.54515  1.0000
  N   N280      1.0  0.97997  0.57839  0.48246  1.0000
  C   C3957     1.0  0.80485  0.91750  0.53523  1.0000
  H   H6761     1.0  0.89730  0.82932  0.51561  1.0000
  N   N281      1.0  0.90400  0.85435  0.49884  1.0000
  H   H6762     1.0  0.84503  0.55637  0.94946  1.0000
  H   H6763     1.0  0.89223  0.68719  0.49568  1.0000
  H   H6764     1.0  0.92291  0.78510  0.55047  1.0000
  H   H6765     1.0  0.91064  0.94789  0.52292  1.0000
  S   S1133     1.0  0.97497  0.54901  0.69801  1.0000
  N   N282      1.0  0.94305  0.53811  0.87858  1.0000
  S   S1134     1.0  0.94867  0.72137  0.50137  1.0000
  C   C3958     1.0  0.93033  0.54272  0.88806  1.0000
  C   C3959     1.0  0.95346  0.54523  0.87819  1.0000
  C   C3960     1.0  0.94103  0.53974  0.86477  1.0000
  S   S1135     1.0  0.92546  0.53508  0.68398  1.0000
  C   C3961     1.0  0.95138  0.76333  0.55795  1.0000
  C   C3962     1.0  0.94909  0.56026  0.87799  1.0000
  C   C3963     1.0  0.93506  0.55384  0.85755  1.0000
  H   H6766     1.0  0.83170  0.54004  0.96139  1.0000
  S   S1136     1.0  0.98322  0.69597  0.49270  1.0000
  H   H6767     1.0  0.92644  0.55360  0.88527  1.0000
  H   H6768     1.0  0.93211  0.54097  0.89826  1.0000
  H   H6769     1.0  0.95786  0.54075  0.88716  1.0000
  H   H6770     1.0  0.96181  0.54396  0.86939  1.0000
  H   H6771     1.0  0.95058  0.53651  0.85802  1.0000
  C   C3964     1.0  0.79825  0.54079  0.89259  1.0000
  N   N283      1.0  0.82337  0.98119  0.52489  1.0000
  Fe  Fe567     1.0  0.95275  0.83754  0.50806  1.0000
  S   S1137     1.0  0.91899  0.61702  0.52109  1.0000
  C   C3965     1.0  0.94374  0.57660  0.54192  1.0000
  S   S1138     1.0  0.91398  0.64794  0.53495  1.0000
  H   H6772     1.0  0.89329  0.60812  0.55729  1.0000
  H   H6773     1.0  0.95802  0.56416  0.87654  1.0000
  H   H6774     1.0  0.81021  0.54624  0.95776  1.0000
  H   H6775     1.0  0.94419  0.56613  0.86974  1.0000
  H   H6776     1.0  0.94296  0.55928  0.85170  1.0000
  H   H6777     1.0  0.92759  0.55986  0.86421  1.0000
  H   H6778     1.0  0.91662  0.54054  0.65965  1.0000
  C   C3966     1.0  0.90608  0.69559  0.50083  1.0000
  H   H6779     1.0  0.95493  0.66936  0.50627  1.0000
  C   C3967     1.0  0.91412  0.86275  0.49169  1.0000
  H   H6780     1.0  0.96758  0.61185  0.50335  1.0000
  H   H6781     1.0  0.83837  0.96832  0.53548  1.0000
  H   H6782     1.0  0.83547  0.97017  0.50992  1.0000
  C   C3968     1.0  0.90481  0.51019  0.69208  1.0000
  H   H6783     1.0  0.80081  0.49560  0.87377  1.0000
  H   H6784     1.0  0.89851  0.70509  0.50066  1.0000
  S   S1139     1.0  0.94254  0.72790  0.53102  1.0000
  N   N284      1.0  0.95344  0.56594  0.74050  1.0000
  H   H6785     1.0  0.88726  0.84312  0.52327  1.0000
  C   C3969     1.0  0.91487  0.50693  0.75727  1.0000
  H   H6786     1.0  0.82904  0.56230  0.94577  1.0000
  Fe  Fe568     1.0  0.94583  0.51515  0.61330  1.0000
  H   H6787     1.0  0.89745  0.66999  0.54538  1.0000
  C   C3970     1.0  0.90499  0.84488  0.49028  1.0000
  H   H6788     1.0  0.92523  0.86128  0.50662  1.0000
  H   H6789     1.0  0.87572  0.87383  0.51472  1.0000
  C   C3971     1.0  0.90807  0.68574  0.53833  1.0000
  C   C3972     1.0  0.93225  0.52842  0.66950  1.0000
  Fe  Fe569     1.0  0.92523  0.63575  0.51964  1.0000
  H   H6790     1.0  0.88839  0.86941  0.49081  1.0000
  H   H6791     1.0  0.92314  0.75831  0.58894  1.0000
  H   H6792     1.0  0.95215  0.76841  0.56530  1.0000
  S   S1140     1.0  0.92025  0.70651  0.52788  1.0000
  H   H6793     1.0  0.89999  0.69279  0.54291  1.0000
  S   S1141     1.0  0.95901  0.52085  0.69626  1.0000
  Fe  Fe570     1.0  0.96070  0.53548  0.70683  1.0000
  C   C3973     1.0  0.94463  0.55859  0.56173  1.0000
  H   H6794     1.0  0.97083  0.56726  0.72429  1.0000
  H   H6795     1.0  0.81472  0.90840  0.48986  1.0000
  C   C3974     1.0  0.87724  0.50057  0.87058  1.0000
  C   C3975     1.0  0.96243  0.51730  0.87787  1.0000
  H   H6796     1.0  0.91753  0.76565  0.56500  1.0000
  H   H6797     1.0  0.93476  0.56706  0.73587  1.0000
  H   H6798     1.0  0.90900  0.49917  0.76135  1.0000
  H   H6799     1.0  0.91611  0.90549  0.54105  1.0000
  H   H6800     1.0  0.90830  0.59942  0.54794  1.0000
  H   H6801     1.0  0.87354  0.52130  0.85997  1.0000
  H   H6802     1.0  0.81206  0.57372  0.96953  1.0000
  Fe  Fe571     1.0  0.95296  0.50270  0.58885  1.0000
  H   H6803     1.0  0.94704  0.52123  0.89496  1.0000
  C   C3976     1.0  0.96612  0.57059  0.73382  1.0000
  H   H6804     1.0  0.88198  0.50436  0.87629  1.0000
  Fe  Fe572     1.0  0.94052  0.60723  0.51825  1.0000
  H   H6805     1.0  0.91038  0.87100  0.48373  1.0000
  C   C3977     1.0  0.93371  0.78195  0.55018  1.0000
  S   S1142     1.0  0.97316  0.72315  0.51306  1.0000
  H   H6806     1.0  0.93263  0.78928  0.56806  1.0000
  C   C3978     1.0  0.94792  0.52340  0.88395  1.0000
  H   H6807     1.0  0.96191  0.66253  0.49181  1.0000
  S   S1143     1.0  0.92768  0.64258  0.49739  1.0000
  H   H6808     1.0  0.80783  0.56340  0.95562  1.0000
  S   S1144     1.0  0.94396  0.61153  0.49587  1.0000
  S   S1145     1.0  0.95173  0.58821  0.52937  1.0000
  H   H6809     1.0  0.89133  0.86859  0.51865  1.0000
  C   C3979     1.0  0.92624  0.76627  0.58033  1.0000
  C   C3980     1.0  0.91108  0.91103  0.54909  1.0000
  H   H6810     1.0  0.95535  0.59182  0.72968  1.0000
  H   H6811     1.0  0.94699  0.68710  0.48250  1.0000
  H   H6812     1.0  0.95726  0.65050  0.53301  1.0000
  H   H6813     1.0  0.90907  0.62185  0.55189  1.0000
  H   H6814     1.0  0.88227  0.93334  0.51974  1.0000
  H   H6815     1.0  0.92791  0.59197  0.59743  1.0000
  S   S1146     1.0  0.94632  0.62554  0.51885  1.0000
  H   H6816     1.0  0.96312  0.56909  0.48860  1.0000
  H   H6817     1.0  0.98496  0.81371  0.54326  1.0000
  C   C3981     1.0  0.95083  0.56744  0.55106  1.0000
  N   N285      1.0  0.97623  0.65317  0.51973  1.0000
  H   H6818     1.0  0.97917  0.52468  0.63042  1.0000
  C   C3982     1.0  0.83443  0.55996  0.95388  1.0000
  S   S1147     1.0  0.95605  0.52178  0.57427  1.0000
  H   H6819     1.0  0.98232  0.83116  0.55548  1.0000
  H   H6820     1.0  0.97163  0.62678  0.52656  1.0000
  H   H6821     1.0  0.91154  0.51398  0.76404  1.0000
  H   H6822     1.0  0.96419  0.50628  0.88107  1.0000
  H   H6823     1.0  0.91239  0.51228  0.74746  1.0000
  H   H6824     1.0  0.90214  0.49134  0.70524  1.0000
  C   C3983     1.0  0.80804  0.54871  0.88238  1.0000
  Fe  Fe573     1.0  0.96607  0.52464  0.58856  1.0000
  H   H6825     1.0  0.89651  0.59048  0.55935  1.0000
  H   H6826     1.0  0.90022  0.59664  0.57864  1.0000
  C   C3984     1.0  0.94775  0.57313  0.71721  1.0000
  H   H6827     1.0  0.93292  0.56821  0.77210  1.0000
  H   H6828     1.0  0.89041  0.63317  0.56427  1.0000
  C   C3985     1.0  0.90807  0.59664  0.56931  1.0000
  H   H6829     1.0  0.98070  0.50366  0.65170  1.0000
  H   H6830     1.0  0.91392  0.58618  0.57062  1.0000
  Fe  Fe574     1.0  0.94843  0.63043  0.49664  1.0000
  H   H6831     1.0  0.80587  0.91607  0.50407  1.0000
  Fe  Fe575     1.0  0.96765  0.70810  0.50604  1.0000
  H   H6832     1.0  0.89405  0.94305  0.50870  1.0000
  C   C3986     1.0  0.94845  0.56950  0.75398  1.0000
  H   H6833     1.0  0.91714  0.90726  0.55678  1.0000
  C   C3987     1.0  0.93592  0.56465  0.76265  1.0000
  H   H6834     1.0  0.87837  0.94039  0.53935  1.0000
  H   H6835     1.0  0.92964  0.55306  0.85047  1.0000
  H   H6836     1.0  0.86832  0.51102  0.85321  1.0000
  H   H6837     1.0  0.93816  0.58273  0.73373  1.0000
  H   H6838     1.0  0.94173  0.51743  0.88245  1.0000
  C   C3988     1.0  0.94564  0.82356  0.48725  1.0000
  C   C3989     1.0  0.89948  0.95614  0.53995  1.0000
  H   H6839     1.0  0.90969  0.69375  0.51006  1.0000
  H   H6840     1.0  0.91593  0.53822  0.87972  1.0000
  H   H6841     1.0  0.96092  0.54855  0.73190  1.0000
  S   S1148     1.0  0.96826  0.71088  0.55274  1.0000
  H   H6842     1.0  0.79349  0.51044  0.90229  1.0000
  H   H6843     1.0  0.96112  0.56730  0.55003  1.0000
  H   H6844     1.0  0.79677  0.48650  0.86461  1.0000
  H   H6845     1.0  0.80455  0.53178  0.89767  1.0000
  H   H6846     1.0  0.94263  0.56215  0.88768  1.0000
  H   H6847     1.0  0.92547  0.87574  0.49350  1.0000
  C   C3990     1.0  0.92570  0.49057  0.67615  1.0000
  Fe  Fe576     1.0  0.96211  0.71437  0.53334  1.0000
  H   H6848     1.0  0.91004  0.54043  0.89645  1.0000
  C   C3991     1.0  0.97971  0.57383  0.50763  1.0000
  H   H6849     1.0  0.97171  0.56867  0.51391  1.0000
  H   H6850     1.0  0.92936  0.70214  0.49885  1.0000
  H   H6851     1.0  0.83211  0.50405  0.87997  1.0000
  C   C3992     1.0  0.79236  0.49291  0.87193  1.0000
  C   C3993     1.0  0.93690  0.79103  0.55723  1.0000
  H   H6852     1.0  0.89718  0.83902  0.49460  1.0000
  H   H6853     1.0  0.90929  0.51312  0.69867  1.0000
  C   C3994     1.0  0.89018  0.86292  0.50055  1.0000
  C   C3995     1.0  0.86192  0.48645  0.87239  1.0000
  C   C3996     1.0  0.80625  0.90856  0.49860  1.0000
  H   H6854     1.0  0.93820  0.80647  0.48861  1.0000
  H   H6855     1.0  0.97882  0.73151  0.53195  1.0000
  H   H6856     1.0  0.92777  0.75893  0.53032  1.0000
  C   C3997     1.0  0.95705  0.49443  0.76247  1.0000
  H   H6857     1.0  0.93257  0.50141  0.77897  1.0000
  H   H6858     1.0  0.82327  0.97422  0.54607  1.0000
  H   H6859     1.0  0.92498  0.77548  0.53222  1.0000
  H   H6860     1.0  0.79961  0.97445  0.52677  1.0000
  C   C3998     1.0  0.80081  0.53402  0.86312  1.0000
  H   H6861     1.0  0.97370  0.56582  0.73992  1.0000
  H   H6862     1.0  0.81780  0.50004  0.97764  1.0000
  C   C3999     1.0  0.87287  0.98076  0.50690  1.0000
  C   C4000     1.0  0.92995  0.50128  0.75526  1.0000
  H   H6863     1.0  0.88861  0.88232  0.50468  1.0000
  H   H6864     1.0  0.93405  0.49977  0.74489  1.0000
  H   H6865     1.0  0.98049  0.48726  0.65114  1.0000
  N   N286      1.0  0.92083  0.48727  0.69110  1.0000
  S   S1149     1.0  0.95286  0.84628  0.48647  1.0000
  C   C4001     1.0  0.79362  0.92620  0.53117  1.0000
  H   H6866     1.0  0.98560  0.49915  0.63597  1.0000
  H   H6867     1.0  0.91459  0.83743  0.48989  1.0000
  H   H6868     1.0  0.97235  0.58880  0.72186  1.0000
  H   H6869     1.0  0.97561  0.58465  0.50649  1.0000
  H   H6870     1.0  0.86450  0.91760  0.48408  1.0000
  H   H6871     1.0  0.92277  0.72687  0.49085  1.0000
  H   H6872     1.0  0.81351  0.95756  0.53987  1.0000
  C   C4002     1.0  0.92966  0.49228  0.77901  1.0000
  S   S1150     1.0  0.96707  0.63637  0.48373  1.0000
  C   C4003     1.0  0.79316  0.91013  0.49460  1.0000
  C   C4004     1.0  0.78831  0.92106  0.57282  1.0000
  H   H6873     1.0  0.97539  0.53643  0.80276  1.0000
  H   H6874     1.0  0.78688  0.56621  0.96938  1.0000
  C   C4005     1.0  0.82493  0.97509  0.51326  1.0000
  C   C4006     1.0  0.97977  0.62555  0.49125  1.0000
  H   H6875     1.0  0.82646  0.95068  0.54876  1.0000
  H   H6876     1.0  0.80309  0.55811  0.87651  1.0000
  H   H6877     1.0  0.79597  0.50298  0.95468  1.0000
  C   C4007     1.0  0.82747  0.97058  0.53663  1.0000
  C   C4008     1.0  0.96508  0.54238  0.75151  1.0000
  H   H6878     1.0  0.88543  0.49612  0.86303  1.0000
  H   H6879     1.0  0.97504  0.59803  0.48691  1.0000
  H   H6880     1.0  0.96741  0.58821  0.73961  1.0000
  H   H6881     1.0  0.97810  0.58034  0.55130  1.0000
  C   C4009     1.0  0.92968  0.49101  0.69745  1.0000
  H   H6882     1.0  0.97654  0.85319  0.49184  1.0000
  H   H6883     1.0  0.97489  0.54486  0.74897  1.0000
  N   N287      1.0  0.93432  0.48903  0.76538  1.0000
  C   C4010     1.0  0.82307  0.48716  0.88837  1.0000
  H   H6884     1.0  0.91588  0.49478  0.71640  1.0000
  C   C4011     1.0  0.79145  0.56025  0.92520  1.0000
  C   C4012     1.0  0.92577  0.48876  0.71282  1.0000
  H   H6885     1.0  0.96872  0.48538  0.78811  1.0000
  C   C4013     1.0  0.97765  0.86277  0.48463  1.0000
  H   H6886     1.0  0.79377  0.53464  0.85702  1.0000
  H   H6887     1.0  0.80789  0.52797  0.97534  1.0000
  H   H6888     1.0  0.92255  0.67601  0.48716  1.0000
  C   C4014     1.0  0.81806  0.48998  0.97655  1.0000
  H   H6889     1.0  0.82188  0.97906  0.49315  1.0000
  H   H6890     1.0  0.79697  0.97633  0.54374  1.0000
  C   C4015     1.0  0.92461  0.70636  0.49009  1.0000
  H   H6891     1.0  0.82244  0.56500  0.98095  1.0000
  N   N288      1.0  0.78859  0.53704  0.88723  1.0000
  H   H6892     1.0  0.78762  0.55226  0.96279  1.0000
  H   H6893     1.0  0.98214  0.80376  0.55980  1.0000
  H   H6894     1.0  0.91864  0.48937  0.67096  1.0000
  H   H6895     1.0  0.93192  0.48663  0.58603  1.0000
  H   H6896     1.0  0.97800  0.67373  0.51290  1.0000
  C   C4016     1.0  0.97634  0.79632  0.48290  1.0000
  H   H6897     1.0  0.98445  0.52339  0.81373  1.0000
  H   H6898     1.0  0.97996  0.78696  0.48985  1.0000
  C   C4017     1.0  0.93932  0.81631  0.48295  1.0000
  C   C4018     1.0  0.98336  0.72948  0.54024  1.0000
  H   H6899     1.0  0.97613  0.65142  0.54594  1.0000
  H   H6900     1.0  0.96490  0.88301  0.48358  1.0000
  C   C4019     1.0  0.98476  0.71855  0.56304  1.0000
  H   H6901     1.0  0.97063  0.48744  0.62950  1.0000
  H   H6902     1.0  0.98484  0.61933  0.53504  1.0000
  H   H6903     1.0  0.98348  0.59888  0.51719  1.0000
  S   S1151     1.0  0.95890  0.48626  0.72248  1.0000
  H   H6904     1.0  0.82888  0.48580  0.94788  1.0000
  H   H6905     1.0  0.98355  0.51834  0.70735  1.0000
  H   H6906     1.0  0.93994  0.48518  0.69505  1.0000
  H   H6907     1.0  0.98327  0.55929  0.49620  1.0000
  C   C4020     1.0  0.98428  0.66363  0.51544  1.0000
  C   C4021     1.0  0.98477  0.63995  0.52488  1.0000
  H   H6908     1.0  0.94743  0.48495  0.67374  1.0000
  H   H6909     1.0  0.89562  0.48628  0.88636  1.0000
  C   C4022     1.0  0.94919  0.48478  0.76169  1.0000
  C   C4023     1.0  0.98544  0.53070  0.80401  1.0000
  C   C4024     1.0  0.98535  0.54926  0.70787  1.0000
  C   C4025     1.0  0.97038  0.48463  0.69630  1.0000
  C   C4026     1.0  0.78675  0.51055  0.95677  1.0000
  H   H6910     1.0  0.98549  0.48585  0.73004  1.0000
  C   C4027     1.0  0.85460  0.48529  0.90311  1.0000
  C   C4028     1.0  0.81162  0.48485  0.91165  1.0000
  H   H6911     1.0  0.98608  0.49025  0.57335  1.0000
  C   C4029     1.0  0.98555  0.52724  0.62071  1.0000
  C   C4030     1.0  0.98603  0.60708  0.50910  1.0000
  C   C4031     1.0  0.98535  0.56933  0.49422  1.0000
  S   S1152     1.0  0.98533  0.53103  0.58205  1.0000
  H   H6912     1.0  0.98623  0.51090  0.67912  1.0000
  C   C4032     1.0  0.98602  0.49530  0.64664  1.0000
