data_image0
_chemical_formula_structural       CFeHS2HCH3FeC4HC2HCH5NHC3H3CHSH2C2HSHS2CHSH2CHCH2C2Fe3H3SHFeH5CH4SH5CH2NHSHCHFeHFeHC2HCHCH2S2C2SH2CSFeH3C3SHC2H3CH2C2HCHCSH2S2HC2Fe2HCH2NHCHS2H2CHCHFeCHC3SCFeHFeS2CH2C3H3CH3CH6CH2CHC2HNHCHS2H2CH2C2HFeC4H3CSCSH3NHC2H2C2H2FeH2C2FeS2HFeSHC4HSC6H4C2HCNHCH7FeCH2CHC2HCH7CH3C2HSH3C2H2C2H4CH2CSH2C2H3S2HFeH5C2HC2SHCFeHCHFeS2FeSC3H5FeH2SC6H5NHCHCH3C3H3C3H2CH3SCH11CSH4C2H3NC2H3CH2CHSCNH3CHCHCH3CHSH4FeCH4CH2CSCH3SH6CHCNCHCHC2H3CH2SHCSCH2CH2CHC2H6NCHFeS2FeCSFeS2FeS2FeSFeS2C3H2C6H4NSC6H6C3SCH2C2HCH5CH3CH10CHCH3CH5CH2CH2NCH2CH4CH6C2H2C3NH2CH2SHNHSHC2H4CH2SCH2CH3C2H3CH2C2H2SFeC3HC2H4NHCHCH2C3H2CH7C2H5
_chemical_formula_sum              "C224 Fe32 H384 S64 N16"
_cell_length_a       33.6224
_cell_length_b       33.8614
_cell_length_c       31.4163
_cell_angle_alpha    91.5534
_cell_angle_beta     91.701
_cell_angle_gamma    119.583

_space_group_name_H-M_alt    "P 1"
_space_group_IT_number       1

loop_
  _space_group_symop_operation_xyz
  'x, y, z'

loop_
  _atom_site_type_symbol
  _atom_site_label
  _atom_site_symmetry_multiplicity
  _atom_site_fract_x
  _atom_site_fract_y
  _atom_site_fract_z
  _atom_site_occupancy
  C   C1        1.0  0.15441  0.40096  0.29955  1.0000
  Fe  Fe1       1.0  0.07521  0.10281  0.25476  1.0000
  H   H1        1.0  0.27241  0.22014  0.28573  1.0000
  S   S1        1.0  0.10866  0.17136  0.29141  1.0000
  S   S2        1.0  0.10932  0.06481  0.22976  1.0000
  H   H2        1.0  0.15007  0.29802  0.21611  1.0000
  C   C2        1.0  0.10989  0.28798  0.33427  1.0000
  H   H3        1.0  0.13222  0.38587  0.32672  1.0000
  H   H4        1.0  0.22354  0.01763  0.31089  1.0000
  H   H5        1.0  0.12097  0.26088  0.25867  1.0000
  Fe  Fe2       1.0  0.05425  0.03892  0.17602  1.0000
  C   C3        1.0  0.08354  0.03517  0.02107  1.0000
  C   C4        1.0  0.19990  0.19498  0.28958  1.0000
  C   C5        1.0  0.24609  0.22083  0.30420  1.0000
  C   C6        1.0  0.15394  0.27983  0.24339  1.0000
  H   H6        1.0  0.19091  0.17512  0.25973  1.0000
  C   C7        1.0  0.19369  0.31241  0.27471  1.0000
  C   C8        1.0  0.16398  0.36636  0.27555  1.0000
  H   H7        1.0  0.13579  0.41195  0.27737  1.0000
  C   C9        1.0  0.26593  0.37002  0.33932  1.0000
  H   H8        1.0  0.22374  0.33070  0.25461  1.0000
  H   H9        1.0  0.13067  0.34013  0.26062  1.0000
  H   H10       1.0  0.18515  0.38359  0.24811  1.0000
  H   H11       1.0  0.20212  0.29096  0.29503  1.0000
  H   H12       1.0  0.16185  0.25394  0.22985  1.0000
  N   N1        1.0  0.18680  0.34586  0.30191  1.0000
  H   H13       1.0  0.27485  0.34918  0.31801  1.0000
  C   C10       1.0  0.04197  0.07017  0.04975  1.0000
  C   C11       1.0  0.06526  0.04599  0.05647  1.0000
  C   C12       1.0  0.16570  0.19659  0.31256  1.0000
  H   H14       1.0  0.18637  0.43210  0.31075  1.0000
  H   H15       1.0  0.25216  0.40490  0.28984  1.0000
  H   H16       1.0  0.09163  0.29404  0.30774  1.0000
  C   C13       1.0  0.23358  0.38414  0.31701  1.0000
  H   H17       1.0  0.10567  0.25345  0.32974  1.0000
  S   S3        1.0  0.07223  0.02798  0.10786  1.0000
  H   H18       1.0  0.30643  0.14176  0.33256  1.0000
  H   H19       1.0  0.02769  0.07880  0.07648  1.0000
  C   C14       1.0  0.25848  0.24819  0.34203  1.0000
  C   C15       1.0  0.16093  0.32422  0.34084  1.0000
  H   H20       1.0  0.10192  0.01680  0.02581  1.0000
  S   S4        1.0  0.02804  0.04623  0.29458  1.0000
  H   H21       1.0  0.23074  0.40796  0.34025  1.0000
  S   S5        1.0  0.07237  0.31908  0.46205  1.0000
  S   S6        1.0  0.09911  0.39346  0.56913  1.0000
  C   C16       1.0  0.13179  0.35273  0.45983  1.0000
  H   H22       1.0  0.13313  0.41471  0.47999  1.0000
  S   S7        1.0  0.07023  0.49652  0.58055  1.0000
  H   H23       1.0  0.13202  0.32597  0.58533  1.0000
  H   H24       1.0  0.14146  0.29687  0.43966  1.0000
  C   C17       1.0  0.15335  0.39903  0.47170  1.0000
  H   H25       1.0  0.08489  0.49414  0.48893  1.0000
  C   C18       1.0  0.15809  0.33277  0.44870  1.0000
  H   H26       1.0  0.17024  0.27839  0.52724  1.0000
  H   H27       1.0  0.12803  0.25278  0.56762  1.0000
  C   C19       1.0  0.14336  0.28053  0.54507  1.0000
  C   C20       1.0  0.16106  0.32771  0.56763  1.0000
  Fe  Fe3       1.0  0.05305  0.34200  0.61446  1.0000
  Fe  Fe4       1.0  0.05001  0.34447  0.51817  1.0000
  Fe  Fe5       1.0  0.05146  0.42231  0.57053  1.0000
  H   H28       1.0  0.16685  0.35142  0.54183  1.0000
  H   H29       1.0  0.11533  0.27433  0.52151  1.0000
  H   H30       1.0  0.15164  0.22415  0.36907  1.0000
  S   S8        1.0  0.08690  0.32165  0.66663  1.0000
  H   H31       1.0  0.16347  0.35042  0.36463  1.0000
  Fe  Fe6       1.0  0.39696  0.01681  0.55709  1.0000
  H   H32       1.0  0.19444  0.42245  0.56578  1.0000
  H   H33       1.0  0.18085  0.38435  0.63424  1.0000
  H   H34       1.0  0.16198  0.30510  0.64716  1.0000
  H   H35       1.0  0.17725  0.30734  0.35817  1.0000
  H   H36       1.0  0.18488  0.27726  0.61578  1.0000
  C   C21       1.0  0.17795  0.22302  0.35096  1.0000
  H   H37       1.0  0.23397  0.46046  0.60605  1.0000
  H   H38       1.0  0.09172  0.28851  0.36311  1.0000
  H   H39       1.0  0.29950  0.20336  0.66368  1.0000
  H   H40       1.0  0.31823  0.12119  0.40309  1.0000
  S   S9        1.0  0.31708  0.28065  0.35878  1.0000
  H   H41       1.0  0.42574  0.31738  0.54322  1.0000
  H   H42       1.0  0.27860  0.17146  0.35142  1.0000
  H   H43       1.0  0.22957  0.20893  0.47189  1.0000
  H   H44       1.0  0.36944  0.20053  0.66340  1.0000
  H   H45       1.0  0.29855  0.40129  0.34901  1.0000
  C   C22       1.0  0.24874  0.05982  0.66814  1.0000
  H   H46       1.0  0.25202  0.35198  0.36882  1.0000
  H   H47       1.0  0.28729  0.22897  0.49040  1.0000
  N   N2        1.0  0.20350  0.34513  0.59677  1.0000
  H   H48       1.0  0.24072  0.36308  0.53897  1.0000
  S   S10       1.0  0.31373  0.06621  0.56515  1.0000
  H   H49       1.0  0.23914  0.40284  0.64281  1.0000
  C   C23       1.0  0.40698  0.21066  0.56002  1.0000
  H   H50       1.0  0.30910  0.41304  0.57083  1.0000
  Fe  Fe7       1.0  0.35341  0.33922  0.51199  1.0000
  H   H51       1.0  0.22603  0.34326  0.44217  1.0000
  Fe  Fe8       1.0  0.32734  0.02616  0.61315  1.0000
  H   H52       1.0  0.27019  0.20163  0.41316  1.0000
  C   C24       1.0  0.19299  0.31082  0.63042  1.0000
  C   C25       1.0  0.21170  0.38952  0.61737  1.0000
  H   H53       1.0  0.34518  0.15698  0.58393  1.0000
  C   C26       1.0  0.29178  0.38231  0.58982  1.0000
  H   H54       1.0  0.30649  0.20283  0.58851  1.0000
  C   C27       1.0  0.22769  0.40505  0.46334  1.0000
  H   H55       1.0  0.22776  0.14706  0.42696  1.0000
  H   H56       1.0  0.47367  0.49749  0.53421  1.0000
  S   S11       1.0  0.38182  0.41473  0.51593  1.0000
  S   S12       1.0  0.33526  0.29464  0.56797  1.0000
  C   C28       1.0  0.26170  0.17617  0.43790  1.0000
  C   C29       1.0  0.24175  0.08849  0.47804  1.0000
  S   S13       1.0  0.38762  0.05596  0.50503  1.0000
  H   H57       1.0  0.21779  0.46093  0.48289  1.0000
  H   H58       1.0  0.48046  0.05711  0.49311  1.0000
  C   C30       1.0  0.42978  0.25615  0.54903  1.0000
  S   S14       1.0  0.39873  0.34036  0.46049  1.0000
  Fe  Fe9       1.0  0.34115  0.33133  0.41554  1.0000
  H   H59       1.0  0.29444  0.39323  0.62365  1.0000
  H   H60       1.0  0.21364  0.09661  0.47846  1.0000
  H   H61       1.0  0.38898  0.18618  0.41251  1.0000
  C   C31       1.0  0.24266  0.35016  0.57077  1.0000
  C   C32       1.0  0.34385  0.20384  0.44862  1.0000
  C   C33       1.0  0.25525  0.19810  0.47891  1.0000
  S   S15       1.0  0.40415  0.06629  0.61020  1.0000
  H   H62       1.0  0.31458  0.11883  0.47867  1.0000
  C   C34       1.0  0.40802  0.28229  0.55189  1.0000
  C   C35       1.0  0.23099  0.32153  0.66481  1.0000
  H   H63       1.0  0.33940  0.19471  0.36198  1.0000
  H   H64       1.0  0.22349  0.10738  0.66794  1.0000
  H   H65       1.0  0.34715  0.21957  0.48097  1.0000
  C   C36       1.0  0.28956  0.13131  0.47790  1.0000
  H   H66       1.0  0.23304  0.26924  0.39500  1.0000
  H   H67       1.0  0.24218  0.17403  0.50490  1.0000
  C   C37       1.0  0.20603  0.35892  0.45052  1.0000
  C   C38       1.0  0.29512  0.13593  0.40050  1.0000
  H   H68       1.0  0.39625  0.14980  0.64403  1.0000
  C   C39       1.0  0.36275  0.19171  0.57480  1.0000
  H   H69       1.0  0.29558  0.15043  0.50891  1.0000
  C   C40       1.0  0.36362  0.26311  0.56627  1.0000
  S   S16       1.0  0.28755  0.43798  0.46894  1.0000
  H   H70       1.0  0.23578  0.06427  0.45094  1.0000
  H   H71       1.0  0.31245  0.36509  0.58721  1.0000
  S   S17       1.0  0.43421  0.17817  0.55426  1.0000
  S   S18       1.0  0.29431  0.32460  0.46727  1.0000
  H   H72       1.0  0.34820  0.23068  0.42643  1.0000
  C   C41       1.0  0.34112  0.21793  0.57806  1.0000
  C   C42       1.0  0.30574  0.16307  0.35970  1.0000
  Fe  Fe10      1.0  0.42337  0.41573  0.46101  1.0000
  Fe  Fe11      1.0  0.38973  0.10256  0.55844  1.0000
  H   H73       1.0  0.26365  0.06904  0.63754  1.0000
  C   C43       1.0  0.22412  0.24872  0.36567  1.0000
  H   H74       1.0  0.23968  0.07014  0.50742  1.0000
  H   H75       1.0  0.41727  0.22976  0.45341  1.0000
  N   N3        1.0  0.29753  0.16179  0.44120  1.0000
  H   H76       1.0  0.26084  0.32126  0.65101  1.0000
  C   C44       1.0  0.50042  0.04001  0.49313  1.0000
  H   H77       1.0  0.38529  0.17230  0.46809  1.0000
  S   S19       1.0  0.49839  0.46917  0.45514  1.0000
  S   S20       1.0  0.37005  0.40672  0.41066  1.0000
  H   H78       1.0  0.23976  0.31635  0.56383  1.0000
  H   H79       1.0  0.26020  0.10624  0.39435  1.0000
  C   C45       1.0  0.22400  0.42859  0.58692  1.0000
  H   H80       1.0  0.25304  0.43503  0.56703  1.0000
  C   C46       1.0  0.38569  0.19685  0.44526  1.0000
  H   H81       1.0  0.46407  0.27101  0.53768  1.0000
  Fe  Fe12      1.0  0.32674  0.40025  0.46578  1.0000
  C   C47       1.0  0.20123  0.42520  0.47316  1.0000
  H   H82       1.0  0.32485  0.14511  0.66960  1.0000
  C   C48       1.0  0.06239  0.26421  0.68063  1.0000
  C   C49       1.0  0.07897  0.04850  0.97974  1.0000
  C   C50       1.0  0.08805  0.25105  0.70683  1.0000
  S   S21       1.0  0.09774  0.12560  0.80609  1.0000
  C   C51       1.0  0.21054  0.03725  0.74807  1.0000
  Fe  Fe13      1.0  0.06008  0.07195  0.85361  1.0000
  H   H83       1.0  0.28957  0.23750  0.70112  1.0000
  Fe  Fe14      1.0  0.11866  0.07696  0.77776  1.0000
  S   S22       1.0  0.18926  0.10623  0.75108  1.0000
  S   S23       1.0  0.05804  0.04306  0.73123  1.0000
  C   C52       1.0  0.31633  0.19728  0.73029  1.0000
  H   H84       1.0  0.28944  0.14655  0.79859  1.0000
  H   H85       1.0  0.12251  0.27599  0.71785  1.0000
  C   C53       1.0  0.35848  0.17149  0.68422  1.0000
  C   C54       1.0  0.32067  0.14320  0.79956  1.0000
  C   C55       1.0  0.20704  0.07063  0.72566  1.0000
  H   H86       1.0  0.21741  0.29409  0.68791  1.0000
  H   H87       1.0  0.45891  0.28353  0.73822  1.0000
  H   H88       1.0  0.36487  0.13264  0.75873  1.0000
  C   C56       1.0  0.22567  0.08133  0.68535  1.0000
  H   H89       1.0  0.07889  0.24162  0.85671  1.0000
  H   H90       1.0  0.37930  0.11944  0.69148  1.0000
  H   H91       1.0  0.07630  0.18972  0.87470  1.0000
  C   C57       1.0  0.06935  0.20579  0.71903  1.0000
  H   H92       1.0  0.31098  0.11046  0.81448  1.0000
  H   H93       1.0  0.42222  0.20826  0.75612  1.0000
  H   H94       1.0  0.08944  0.19605  0.73913  1.0000
  H   H95       1.0  0.24166  0.35363  0.68355  1.0000
  H   H96       1.0  0.09676  0.21059  0.82384  1.0000
  H   H97       1.0  0.39153  0.22940  0.78293  1.0000
  C   C58       1.0  0.07106  0.20673  0.84718  1.0000
  H   H98       1.0  0.42143  0.26226  0.69310  1.0000
  H   H99       1.0  0.34772  0.17052  0.82075  1.0000
  C   C59       1.0  0.39728  0.22038  0.75028  1.0000
  H   H100      1.0  0.30853  0.11159  0.73694  1.0000
  C   C60       1.0  0.33720  0.14144  0.75453  1.0000
  C   C61       1.0  0.25450  0.02831  0.69164  1.0000
  H   H101      1.0  0.34689  0.25521  0.68717  1.0000
  N   N4        1.0  0.35289  0.18362  0.72936  1.0000
  H   H102      1.0  0.09414  0.04071  0.95327  1.0000
  C   C62       1.0  0.05566  0.07266  0.97304  1.0000
  H   H103      1.0  0.31926  0.21645  0.76068  1.0000
  S   S24       1.0  0.08656  0.02648  0.82886  1.0000
  S   S25       1.0  0.04877  0.09058  0.92154  1.0000
  H   H104      1.0  0.28173  0.16660  0.72953  1.0000
  H   H105      1.0  0.42694  0.17763  0.69283  1.0000
  C   C63       1.0  0.42194  0.26593  0.72819  1.0000
  H   H106      1.0  0.40773  0.28827  0.73723  1.0000
  H   H107      1.0  0.04118  0.19864  0.92752  1.0000
  C   C64       1.0  0.39237  0.15368  0.67863  1.0000
  C   C65       1.0  0.31373  0.22517  0.69335  1.0000
  H   H108      1.0  0.19710  0.02930  0.77946  1.0000
  Fe  Fe15      1.0  0.03505  0.08831  0.76238  1.0000
  C   C66       1.0  0.03727  0.08337  0.00838  1.0000
  C   C67       1.0  0.16237  0.90177  0.31873  1.0000
  C   C68       1.0  0.05783  0.91379  0.32159  1.0000
  C   C69       1.0  0.04422  0.88508  0.28486  1.0000
  H   H109      1.0  0.13299  0.84492  0.27070  1.0000
  H   H110      1.0  0.16425  0.97917  0.30041  1.0000
  H   H111      1.0  0.13193  0.90298  0.30598  1.0000
  C   C70       1.0  0.15866  0.85794  0.29803  1.0000
  S   S26       1.0  0.07581  0.97221  0.31938  1.0000
  C   C71       1.0  0.18460  0.94588  0.23184  1.0000
  S   S27       1.0  0.03653  0.76958  0.32803  1.0000
  H   H112      1.0  0.18094  0.97673  0.23198  1.0000
  H   H113      1.0  0.19085  0.86062  0.28749  1.0000
  H   H114      1.0  0.19661  0.94283  0.19999  1.0000
  N   N5        1.0  0.20495  0.94632  0.31180  1.0000
  H   H115      1.0  0.04187  0.89796  0.25429  1.0000
  C   C72       1.0  0.04126  0.82384  0.32667  1.0000
  C   C73       1.0  0.03620  0.84027  0.28741  1.0000
  H   H116      1.0  0.25185  0.98305  0.26312  1.0000
  H   H117      1.0  0.15052  0.91548  0.23484  1.0000
  C   C74       1.0  0.19470  0.98455  0.32022  1.0000
  C   C75       1.0  0.22004  0.94992  0.26664  1.0000
  H   H118      1.0  0.22976  0.92409  0.25787  1.0000
  H   H119      1.0  0.27329  0.91760  0.30708  1.0000
  Fe  Fe16      1.0  0.05830  0.00627  0.26637  1.0000
  H   H120      1.0  0.14487  0.83071  0.32137  1.0000
  H   H121      1.0  0.27372  0.98867  0.33924  1.0000
  C   C76       1.0  0.26144  0.91991  0.33907  1.0000
  C   C77       1.0  0.24385  0.95402  0.34239  1.0000
  Fe  Fe17      1.0  0.06044  0.75763  0.48565  1.0000
  S   S28       1.0  0.10085  0.75566  0.43075  1.0000
  S   S29       1.0  0.09165  0.81255  0.53774  1.0000
  H   H122      1.0  0.09040  0.63999  0.52829  1.0000
  Fe  Fe18      1.0  0.06768  0.68065  0.44145  1.0000
  S   S30       1.0  0.10211  0.63752  0.43713  1.0000
  H   H123      1.0  0.11138  0.84290  0.45206  1.0000
  C   C78       1.0  0.09431  0.59876  0.47711  1.0000
  C   C79       1.0  0.08270  0.57694  0.55078  1.0000
  C   C80       1.0  0.08911  0.60829  0.51950  1.0000
  C   C81       1.0  0.09361  0.55779  0.46643  1.0000
  H   H124      1.0  0.07168  0.91882  0.38959  1.0000
  S   S31       1.0  0.25733  0.98485  0.46514  1.0000
  C   C82       1.0  0.13371  0.86362  0.51780  1.0000
  C   C83       1.0  0.16605  0.89828  0.54579  1.0000
  C   C84       1.0  0.20338  0.93647  0.52976  1.0000
  C   C85       1.0  0.20800  0.94035  0.48570  1.0000
  C   C86       1.0  0.17411  0.90702  0.45787  1.0000
  C   C87       1.0  0.13702  0.86874  0.47384  1.0000
  H   H125      1.0  0.16316  0.89498  0.57989  1.0000
  H   H126      1.0  0.22879  0.96259  0.55160  1.0000
  H   H127      1.0  0.17724  0.90992  0.42400  1.0000
  H   H128      1.0  0.20849  0.84818  0.48879  1.0000
  C   C88       1.0  0.22294  0.77733  0.48167  1.0000
  C   C89       1.0  0.24010  0.85302  0.50606  1.0000
  H   H129      1.0  0.23410  0.72466  0.51155  1.0000
  C   C90       1.0  0.20954  0.72748  0.48928  1.0000
  N   N6        1.0  0.23289  0.80808  0.52105  1.0000
  H   H130      1.0  0.18298  0.75247  0.55667  1.0000
  C   C91       1.0  0.19096  0.78688  0.54718  1.0000
  H   H131      1.0  0.19485  0.77640  0.46113  1.0000
  H   H132      1.0  0.16038  0.78207  0.52782  1.0000
  H   H133      1.0  0.25325  0.79053  0.46163  1.0000
  H   H134      1.0  0.20912  0.71035  0.45843  1.0000
  H   H135      1.0  0.17430  0.70795  0.50060  1.0000
  H   H136      1.0  0.07892  0.58473  0.58353  1.0000
  H   H137      1.0  0.05671  0.83964  0.39397  1.0000
  Fe  Fe19      1.0  0.03698  0.73963  0.39169  1.0000
  C   C92       1.0  0.19315  0.81227  0.58934  1.0000
  H   H138      1.0  0.20148  0.84781  0.58525  1.0000
  H   H139      1.0  0.15882  0.79495  0.60300  1.0000
  C   C93       1.0  0.05281  0.85197  0.36361  1.0000
  H   H140      1.0  0.24580  0.87740  0.53280  1.0000
  C   C94       1.0  0.50805  0.52292  0.52729  1.0000
  C   C95       1.0  0.27987  0.87778  0.47619  1.0000
  H   H141      1.0  0.28668  0.91318  0.47313  1.0000
  C   C96       1.0  0.08055  0.53536  0.53997  1.0000
  H   H142      1.0  0.26420  0.78146  0.56435  1.0000
  H   H143      1.0  0.21738  0.81093  0.61321  1.0000
  H   H144      1.0  0.15823  0.95993  0.37979  1.0000
  H   H145      1.0  0.23391  0.95282  0.37589  1.0000
  H   H146      1.0  0.31212  0.87992  0.48850  1.0000
  H   H147      1.0  0.09808  0.55035  0.43378  1.0000
  H   H148      1.0  0.06553  0.89714  0.63466  1.0000
  C   C97       1.0  0.27420  0.81210  0.54550  1.0000
  H   H149      1.0  0.29946  0.81285  0.52286  1.0000
  H   H150      1.0  0.27080  0.86149  0.44359  1.0000
  H   H151      1.0  0.28224  0.87103  0.58762  1.0000
  C   C98       1.0  0.08608  0.52586  0.49761  1.0000
  C   C99       1.0  0.30142  0.85449  0.57622  1.0000
  H   H152      1.0  0.15708  0.89647  0.35326  1.0000
  S   S32       1.0  0.03290  0.68429  0.49983  1.0000
  H   H153      1.0  0.06969  0.84786  0.62174  1.0000
  H   H154      1.0  0.50572  0.95242  0.53788  1.0000
  H   H155      1.0  0.21613  0.00733  0.38771  1.0000
  C   C100      1.0  0.18462  0.99178  0.36655  1.0000
  C   C101      1.0  0.06123  0.89681  0.36102  1.0000
  H   H156      1.0  0.04966  0.87237  0.58181  1.0000
  H   H157      1.0  0.17116  0.01587  0.36715  1.0000
  C   C102      1.0  0.04859  0.86421  0.61582  1.0000
  C   C103      1.0  0.48837  0.00296  0.51873  1.0000
  H   H158      1.0  0.46736  0.56379  0.45206  1.0000
  H   H159      1.0  0.51809  0.61982  0.40455  1.0000
  H   H160      1.0  0.31340  0.84440  0.60513  1.0000
  H   H161      1.0  0.51736  0.56509  0.58363  1.0000
  C   C104      1.0  0.51480  0.98118  0.51828  1.0000
  H   H162      1.0  0.33316  0.88018  0.56172  1.0000
  H   H163      1.0  0.49062  0.60098  0.49792  1.0000
  C   C105      1.0  0.52409  0.69862  0.43402  1.0000
  S   S33       1.0  0.32131  0.97262  0.56530  1.0000
  H   H164      1.0  0.51996  0.76084  0.43370  1.0000
  H   H165      1.0  0.49866  0.67196  0.51501  1.0000
  C   C106      1.0  0.48317  0.60012  0.46319  1.0000
  C   C107      1.0  0.52728  0.62778  0.43933  1.0000
  H   H166      1.0  0.45710  0.61041  0.45680  1.0000
  H   H167      1.0  0.51412  0.69013  0.39940  1.0000
  H   H168      1.0  0.49102  0.68366  0.44960  1.0000
  S   S34       1.0  0.44204  0.98417  0.55305  1.0000
  S   S35       1.0  0.29015  0.00659  0.67487  1.0000
  H   H169      1.0  0.29154  0.93166  0.36180  1.0000
  Fe  Fe20      1.0  0.31279  0.01580  0.51717  1.0000
  H   H170      1.0  0.23552  0.88593  0.34916  1.0000
  H   H171      1.0  0.06407  0.97140  0.90455  1.0000
  H   H172      1.0  0.23851  0.99197  0.74958  1.0000
  H   H173      1.0  0.05835  0.93456  0.94727  1.0000
  H   H174      1.0  0.07141  0.92333  0.89519  1.0000
  C   C108      1.0  0.23432  0.01634  0.73119  1.0000
  C   C109      1.0  0.05116  0.93568  0.91279  1.0000
  H   H175      1.0  0.93893  0.07985  0.28065  1.0000
  C   C110      1.0  0.90560  0.05944  0.29342  1.0000
  C   C111      1.0  0.88589  0.08029  0.31769  1.0000
  S   S36       1.0  0.02315  0.08109  0.19911  1.0000
  H   H176      1.0  0.90418  0.11680  0.32324  1.0000
  C   C112      1.0  0.84232  0.05431  0.33391  1.0000
  Fe  Fe21      1.0  0.97900  0.02109  0.23809  1.0000
  H   H177      1.0  0.87105  0.06370  0.55101  1.0000
  C   C113      1.0  0.69060  0.16448  0.50688  1.0000
  H   H178      1.0  0.58146  0.14406  0.61032  1.0000
  Fe  Fe22      1.0  0.75045  0.04937  0.50095  1.0000
  S   S37       1.0  0.79401  0.08209  0.56119  1.0000
  S   S38       1.0  0.74431  0.08940  0.44838  1.0000
  Fe  Fe23      1.0  0.96757  0.32891  0.56607  1.0000
  S   S39       1.0  0.89107  0.29613  0.56087  1.0000
  C   C114      1.0  0.64720  0.14644  0.53271  1.0000
  C   C115      1.0  0.87645  0.21189  0.44227  1.0000
  C   C116      1.0  0.86399  0.44908  0.48583  1.0000
  H   H179      1.0  0.87921  0.12583  0.49796  1.0000
  H   H180      1.0  0.94736  0.15393  0.39932  1.0000
  H   H181      1.0  0.95486  0.48406  0.46104  1.0000
  H   H182      1.0  0.85182  0.42147  0.50872  1.0000
  H   H183      1.0  0.68885  0.18605  0.48169  1.0000
  Fe  Fe24      1.0  0.75853  0.04451  0.40501  1.0000
  H   H184      1.0  0.69247  0.13627  0.48997  1.0000
  H   H185      1.0  0.83373  0.44727  0.46862  1.0000
  S   S40       1.0  0.00698  0.29158  0.56316  1.0000
  C   C117      1.0  0.86374  0.23695  0.56353  1.0000
  C   C118      1.0  0.82239  0.21049  0.54013  1.0000
  C   C119      1.0  0.80118  0.16303  0.53936  1.0000
  C   C120      1.0  0.82042  0.14167  0.56283  1.0000
  C   C121      1.0  0.86120  0.16812  0.58739  1.0000
  C   C122      1.0  0.88318  0.21583  0.58738  1.0000
  H   H186      1.0  0.80745  0.22679  0.52158  1.0000
  H   H187      1.0  0.76947  0.14311  0.52114  1.0000
  H   H188      1.0  0.87620  0.15180  0.60585  1.0000
  H   H189      1.0  0.91495  0.23624  0.60591  1.0000
  H   H190      1.0  0.92534  0.47382  0.57428  1.0000
  N   N7        1.0  0.64519  0.12057  0.57181  1.0000
  H   H191      1.0  0.62742  0.03372  0.60695  1.0000
  C   C123      1.0  0.66317  0.08845  0.56245  1.0000
  H   H192      1.0  0.64323  0.06479  0.53480  1.0000
  C   C124      1.0  0.66972  0.15263  0.60987  1.0000
  H   H193      1.0  0.64257  0.17603  0.54110  1.0000
  H   H194      1.0  0.89462  0.04958  0.59557  1.0000
  H   H195      1.0  0.93055  0.09388  0.46855  1.0000
  C   C125      1.0  0.72243  0.18078  0.61025  1.0000
  C   C126      1.0  0.97420  0.22522  0.39558  1.0000
  C   C127      1.0  0.95077  0.44250  0.53042  1.0000
  H   H196      1.0  0.69873  0.10629  0.55213  1.0000
  H   H197      1.0  0.85744  0.12101  0.44543  1.0000
  H   H198      1.0  0.00828  0.22737  0.39808  1.0000
  C   C128      1.0  0.96609  0.17617  0.52876  1.0000
  C   C129      1.0  0.87406  0.03553  0.56516  1.0000
  C   C130      1.0  0.58921  0.45921  0.53541  1.0000
  H   H199      1.0  0.89290  0.02579  0.54276  1.0000
  H   H200      1.0  0.89906  0.20149  0.50305  1.0000
  C   C131      1.0  0.88910  0.12851  0.46420  1.0000
  H   H201      1.0  0.98115  0.45206  0.51121  1.0000
  H   H202      1.0  0.60370  0.46649  0.50366  1.0000
  H   H203      1.0  0.66035  0.13465  0.64026  1.0000
  S   S41       1.0  0.00985  0.37550  0.62130  1.0000
  C   C132      1.0  0.89177  0.49609  0.50926  1.0000
  H   H204      1.0  0.94724  0.13919  0.53385  1.0000
  H   H205      1.0  0.59615  0.48594  0.59856  1.0000
  H   H206      1.0  0.73866  0.16254  0.59586  1.0000
  H   H207      1.0  0.89848  0.08377  0.41818  1.0000
  H   H208      1.0  0.86715  0.23591  0.45773  1.0000
  H   H209      1.0  0.98696  0.16716  0.46651  1.0000
  H   H210      1.0  0.67151  0.47308  0.53670  1.0000
  H   H211      1.0  0.59029  0.42918  0.54736  1.0000
  H   H212      1.0  0.96382  0.16204  0.66965  1.0000
  H   H213      1.0  0.90444  0.16766  0.38937  1.0000
  H   H214      1.0  0.91930  0.41900  0.51135  1.0000
  C   C133      1.0  0.93633  0.17862  0.40951  1.0000
  S   S42       1.0  0.81788  0.08229  0.36222  1.0000
  H   H215      1.0  0.94892  0.19254  0.54519  1.0000
  H   H216      1.0  0.74126  0.48206  0.56870  1.0000
  H   H217      1.0  0.98497  0.50543  0.56579  1.0000
  H   H218      1.0  0.73643  0.18858  0.64379  1.0000
  C   C134      1.0  0.53876  0.05538  0.46779  1.0000
  C   C135      1.0  0.68106  0.49022  0.56897  1.0000
  H   H219      1.0  0.87456  0.49311  0.53958  1.0000
  H   H220      1.0  0.97639  0.25439  0.41436  1.0000
  H   H221      1.0  0.56392  0.12986  0.55414  1.0000
  N   N8        1.0  0.92741  0.17561  0.45632  1.0000
  C   C136      1.0  0.97094  0.18598  0.48092  1.0000
  C   C137      1.0  0.91310  0.20939  0.47098  1.0000
  H   H222      1.0  0.66407  0.46249  0.59158  1.0000
  H   H223      1.0  0.55243  0.44921  0.53084  1.0000
  H   H224      1.0  0.68181  0.08048  0.62851  1.0000
  C   C138      1.0  0.95067  0.48509  0.54893  1.0000
  H   H225      1.0  0.94285  0.24446  0.47537  1.0000
  H   H226      1.0  0.65790  0.17791  0.61345  1.0000
  C   C139      1.0  0.59547  0.09177  0.58192  1.0000
  H   H227      1.0  0.88255  0.44254  0.46069  1.0000
  S   S43       1.0  0.00611  0.37713  0.51565  1.0000
  C   C140      1.0  0.73320  0.50964  0.57549  1.0000
  N   N9        1.0  0.94226  0.51397  0.51800  1.0000
  H   H228      1.0  0.95373  0.42317  0.55723  1.0000
  H   H229      1.0  0.73392  0.21346  0.59463  1.0000
  H   H230      1.0  0.57725  0.06366  0.55745  1.0000
  C   C141      1.0  0.56589  0.03438  0.46814  1.0000
  H   H231      1.0  0.88948  0.22527  0.41078  1.0000
  C   C142      1.0  0.89837  0.08915  0.45317  1.0000
  H   H232      1.0  0.72243  0.18552  0.52639  1.0000
  C   C143      1.0  0.66279  0.05937  0.59953  1.0000
  H   H233      1.0  0.61846  0.12456  0.50941  1.0000
  H   H234      1.0  0.00073  0.19008  0.54453  1.0000
  H   H235      1.0  0.59197  0.07494  0.61261  1.0000
  C   C144      1.0  0.56735  0.11648  0.58507  1.0000
  H   H236      1.0  0.87011  0.05717  0.46461  1.0000
  S   S44       1.0  0.61630  0.05794  0.43882  1.0000
  H   H237      1.0  0.99719  0.22252  0.47890  1.0000
  H   H238      1.0  0.84462  0.17857  0.43777  1.0000
  H   H239      1.0  0.84904  0.02495  0.65566  1.0000
  H   H240      1.0  0.68029  0.04022  0.58986  1.0000
  Fe  Fe25      1.0  0.66994  0.03538  0.44284  1.0000
  C   C145      1.0  0.01772  0.23172  0.66687  1.0000
  H   H241      1.0  0.54794  0.08428  0.44835  1.0000
  H   H242      1.0  0.53194  0.09151  0.59344  1.0000
  H   H243      1.0  0.96659  0.22994  0.36206  1.0000
  H   H244      1.0  0.99746  0.24146  0.64702  1.0000
  C   C146      1.0  0.61263  0.50005  0.56813  1.0000
  H   H245      1.0  0.01895  0.24075  0.88339  1.0000
  H   H246      1.0  0.89297  0.08218  0.79082  1.0000
  C   C147      1.0  0.94028  0.14781  0.82215  1.0000
  S   S45       1.0  0.99788  0.11728  0.72356  1.0000
  C   C148      1.0  0.92286  0.09650  0.81407  1.0000
  H   H247      1.0  0.91144  0.15069  0.83559  1.0000
  H   H248      1.0  0.94135  0.12995  0.89916  1.0000
  H   H249      1.0  0.91116  0.07714  0.84333  1.0000
  S   S46       1.0  0.99562  0.03780  0.81121  1.0000
  H   H250      1.0  0.00223  0.15123  0.95600  1.0000
  H   H251      1.0  0.01891  0.14367  0.81859  1.0000
  H   H252      1.0  0.94883  0.09006  0.79977  1.0000
  H   H253      1.0  0.94507  0.16216  0.78996  1.0000
  H   H254      1.0  0.95877  0.21586  0.87948  1.0000
  H   H255      1.0  0.96219  0.23428  0.80185  1.0000
  C   C149      1.0  0.98861  0.21992  0.86157  1.0000
  H   H256      1.0  0.02315  0.19199  0.79443  1.0000
  C   C150      1.0  0.97781  0.14783  0.89035  1.0000
  N   N10       1.0  0.98338  0.17388  0.85049  1.0000
  C   C151      1.0  0.02287  0.17773  0.82588  1.0000
  H   H257      1.0  0.98891  0.19497  0.94488  1.0000
  C   C152      1.0  0.00445  0.17530  0.93158  1.0000
  H   H258      1.0  0.98676  0.12056  0.88463  1.0000
  C   C153      1.0  0.99326  0.24971  0.82357  1.0000
  C   C154      1.0  0.02435  0.17353  0.70595  1.0000
  H   H259      1.0  0.99774  0.28278  0.83599  1.0000
  H   H260      1.0  0.02383  0.25764  0.80525  1.0000
  H   H261      1.0  0.01931  0.10215  0.00389  1.0000
  C   C155      1.0  0.99871  0.18670  0.67979  1.0000
  H   H262      1.0  0.95269  0.94154  0.29498  1.0000
  H   H263      1.0  0.95801  0.88172  0.25318  1.0000
  S   S47       1.0  0.00619  0.97710  0.21159  1.0000
  H   H264      1.0  0.97872  0.89380  0.02465  1.0000
  C   C156      1.0  0.81877  0.00715  0.32610  1.0000
  S   S48       1.0  0.90332  0.98560  0.25092  1.0000
  C   C157      1.0  0.92732  0.87351  0.27147  1.0000
  H   H265      1.0  0.91325  0.83815  0.28115  1.0000
  H   H266      1.0  0.90253  0.87609  0.24915  1.0000
  C   C158      1.0  0.94147  0.90821  0.30960  1.0000
  H   H267      1.0  0.85956  0.90409  0.29622  1.0000
  H   H268      1.0  0.78675  0.85335  0.33009  1.0000
  C   C159      1.0  0.85917  0.88038  0.32029  1.0000
  H   H269      1.0  0.84882  0.84829  0.30163  1.0000
  C   C160      1.0  0.88126  0.01254  0.28411  1.0000
  C   C161      1.0  0.83792  0.98646  0.30077  1.0000
  H   H270      1.0  0.81864  0.95024  0.29340  1.0000
  H   H271      1.0  0.97297  0.91099  0.32510  1.0000
  H   H272      1.0  0.78507  0.98687  0.33819  1.0000
  H   H273      1.0  0.91421  0.96703  0.34021  1.0000
  H   H274      1.0  0.86349  0.80431  0.33837  1.0000
  H   H275      1.0  0.02726  0.81862  0.25872  1.0000
  N   N11       1.0  0.90606  0.89947  0.34213  1.0000
  C   C162      1.0  0.68485  0.54984  0.49704  1.0000
  H   H276      1.0  0.64401  0.79996  0.48051  1.0000
  Fe  Fe26      1.0  0.69335  0.96050  0.44982  1.0000
  S   S49       1.0  0.65946  0.88459  0.45283  1.0000
  S   S50       1.0  0.68319  0.99432  0.39312  1.0000
  Fe  Fe27      1.0  0.97492  0.67194  0.45426  1.0000
  C   C163      1.0  0.68695  0.56259  0.54472  1.0000
  S   S51       1.0  0.90505  0.61468  0.46665  1.0000
  Fe  Fe28      1.0  0.76485  0.75965  0.53396  1.0000
  S   S52       1.0  0.71536  0.76738  0.57499  1.0000
  S   S53       1.0  0.78905  0.80060  0.47554  1.0000
  Fe  Fe29      1.0  0.77578  0.69832  0.59543  1.0000
  S   S54       1.0  0.72839  0.70265  0.64145  1.0000
  S   S55       1.0  0.80404  0.65328  0.61355  1.0000
  Fe  Fe30      1.0  0.68395  0.69205  0.58248  1.0000
  S   S56       1.0  0.60763  0.64210  0.58332  1.0000
  Fe  Fe31      1.0  0.76516  0.77698  0.62884  1.0000
  S   S57       1.0  0.72968  0.68362  0.53706  1.0000
  S   S58       1.0  0.81635  0.77336  0.58742  1.0000
  C   C164      1.0  0.57786  0.59446  0.54713  1.0000
  C   C165      1.0  0.59741  0.58943  0.51013  1.0000
  C   C166      1.0  0.57251  0.55101  0.48213  1.0000
  H   H277      1.0  0.63161  0.61511  0.50299  1.0000
  H   H278      1.0  0.90353  0.71299  0.66518  1.0000
  C   C167      1.0  0.83291  0.64412  0.57256  1.0000
  C   C168      1.0  0.84270  0.60868  0.57535  1.0000
  C   C169      1.0  0.86462  0.59974  0.54246  1.0000
  C   C170      1.0  0.87890  0.62762  0.50772  1.0000
  C   C171      1.0  0.87036  0.66402  0.50538  1.0000
  C   C172      1.0  0.84644  0.67172  0.53747  1.0000
  H   H279      1.0  0.83252  0.58757  0.60261  1.0000
  H   H280      1.0  0.87061  0.57131  0.54395  1.0000
  H   H281      1.0  0.88090  0.68522  0.47817  1.0000
  H   H282      1.0  0.83874  0.69910  0.53518  1.0000
  N   N12       1.0  0.55326  0.67857  0.44851  1.0000
  S   S59       1.0  0.67559  0.99831  0.49861  1.0000
  C   C173      1.0  0.69615  0.86174  0.45611  1.0000
  C   C174      1.0  0.74184  0.88603  0.44485  1.0000
  C   C175      1.0  0.77037  0.86683  0.44966  1.0000
  C   C176      1.0  0.75303  0.82333  0.46543  1.0000
  C   C177      1.0  0.70712  0.79880  0.47546  1.0000
  C   C178      1.0  0.67895  0.81816  0.47117  1.0000
  H   H283      1.0  0.75509  0.91938  0.43238  1.0000
  H   H284      1.0  0.80598  0.88605  0.44220  1.0000
  H   H285      1.0  0.69340  0.76497  0.48689  1.0000
  H   H286      1.0  0.98205  0.58485  0.45599  1.0000
  H   H287      1.0  0.88035  0.79836  0.39000  1.0000
  H   H288      1.0  0.89387  0.94037  0.38896  1.0000
  C   C179      1.0  0.99092  0.76018  0.61315  1.0000
  C   C180      1.0  0.65814  0.57565  0.63285  1.0000
  C   C181      1.0  0.92233  0.76902  0.62209  1.0000
  S   S60       1.0  0.99843  0.74581  0.44630  1.0000
  C   C182      1.0  0.82546  0.99591  0.57193  1.0000
  H   H289      1.0  0.57400  0.76920  0.41862  1.0000
  H   H290      1.0  0.92834  0.53812  0.43369  1.0000
  C   C183      1.0  0.55347  0.99687  0.49325  1.0000
  C   C184      1.0  0.96412  0.54877  0.44424  1.0000
  H   H291      1.0  0.70431  0.58160  0.47980  1.0000
  C   C185      1.0  0.96245  0.56141  0.53824  1.0000
  H   H292      1.0  0.63998  0.68306  0.46277  1.0000
  H   H293      1.0  0.74615  0.87863  0.54112  1.0000
  H   H294      1.0  0.61544  0.73543  0.42687  1.0000
  H   H295      1.0  0.94296  0.88360  0.38990  1.0000
  H   H296      1.0  0.77148  0.89345  0.61901  1.0000
  C   C186      1.0  0.56946  0.69013  0.49481  1.0000
  H   H297      1.0  0.61438  0.64457  0.41610  1.0000
  H   H298      1.0  0.84850  0.93381  0.64418  1.0000
  H   H299      1.0  0.00288  0.83006  0.66496  1.0000
  C   C187      1.0  0.54621  0.75075  0.44075  1.0000
  H   H300      1.0  0.55949  0.76284  0.47399  1.0000
  H   H301      1.0  0.72381  0.58478  0.55459  1.0000
  H   H302      1.0  0.58403  0.69203  0.38687  1.0000
  H   H303      1.0  0.73723  0.92722  0.54283  1.0000
  H   H304      1.0  0.92204  0.81733  0.34945  1.0000
  H   H305      1.0  0.71486  0.56482  0.62501  1.0000
  H   H306      1.0  0.89816  0.74039  0.59997  1.0000
  H   H307      1.0  0.70441  0.87942  0.57390  1.0000
  H   H308      1.0  0.91813  0.82146  0.55673  1.0000
  H   H309      1.0  0.75262  0.53674  0.55322  1.0000
  C   C188      1.0  0.89274  0.81986  0.36197  1.0000
  H   H310      1.0  0.98139  0.69239  0.60149  1.0000
  C   C189      1.0  0.96397  0.71171  0.59230  1.0000
  H   H311      1.0  0.65986  0.70107  0.41113  1.0000
  H   H312      1.0  0.94310  0.76397  0.54183  1.0000
  H   H313      1.0  0.88996  0.98470  0.62272  1.0000
  C   C190      1.0  0.85306  0.96533  0.62983  1.0000
  H   H314      1.0  0.58780  0.54729  0.45357  1.0000
  H   H315      1.0  0.95186  0.58239  0.51958  1.0000
  H   H316      1.0  0.82067  0.92746  0.52543  1.0000
  H   H317      1.0  0.59959  0.72495  0.49872  1.0000
  H   H318      1.0  0.97759  0.86624  0.55840  1.0000
  C   C191      1.0  0.90746  0.86936  0.37594  1.0000
  H   H319      1.0  0.97224  0.00618  0.39593  1.0000
  H   H320      1.0  0.62019  0.55825  0.63112  1.0000
  C   C192      1.0  0.59467  0.69795  0.42148  1.0000
  H   H321      1.0  0.80651  0.98778  0.54042  1.0000
  H   H322      1.0  0.99381  0.97808  0.36312  1.0000
  N   N13       1.0  0.66435  0.52394  0.57423  1.0000
  C   C193      1.0  0.96642  0.97214  0.38512  1.0000
  H   H323      1.0  0.67165  0.58499  0.54694  1.0000
  H   H324      1.0  0.64943  0.53298  0.48315  1.0000
  C   C194      1.0  0.73909  0.90109  0.56197  1.0000
  H   H325      1.0  0.67168  0.60618  0.61367  1.0000
  H   H326      1.0  0.60103  0.52450  0.55968  1.0000
  H   H327      1.0  0.58236  0.66755  0.50594  1.0000
  H   H328      1.0  0.79868  0.85993  0.57284  1.0000
  C   C195      1.0  0.83451  0.88618  0.56811  1.0000
  H   H329      1.0  0.88759  0.86892  0.40387  1.0000
  H   H330      1.0  0.00044  0.57949  0.53805  1.0000
  H   H331      1.0  0.91317  0.54650  0.58924  1.0000
  H   H332      1.0  0.70103  0.52879  0.49060  1.0000
  H   H333      1.0  0.00360  0.53023  0.48561  1.0000
  H   H334      1.0  0.81668  0.84689  0.37475  1.0000
  C   C196      1.0  0.62859  0.68011  0.42880  1.0000
  C   C197      1.0  0.95285  0.83119  0.54624  1.0000
  H   H335      1.0  0.57379  0.98015  0.49363  1.0000
  H   H336      1.0  0.82221  0.90195  0.36379  1.0000
  C   C198      1.0  0.53464  0.68818  0.52711  1.0000
  C   C199      1.0  0.83894  0.93223  0.55694  1.0000
  C   C200      1.0  0.77402  0.92198  0.60033  1.0000
  N   N14       1.0  0.82289  0.95385  0.58977  1.0000
  H   H337      1.0  0.90982  0.79394  0.62238  1.0000
  H   H338      1.0  0.84635  0.87342  0.54114  1.0000
  C   C201      1.0  0.67704  0.54403  0.61942  1.0000
  H   H339      1.0  0.85630  0.88919  0.59657  1.0000
  H   H340      1.0  0.87575  0.95485  0.55129  1.0000
  S   S61       1.0  0.76899  0.00756  0.45837  1.0000
  H   H341      1.0  0.98264  0.85653  0.62988  1.0000
  N   N15       1.0  0.97015  0.79022  0.60621  1.0000
  H   H342      1.0  0.97033  0.95572  0.41377  1.0000
  S   S62       1.0  0.00794  0.66419  0.39632  1.0000
  H   H343      1.0  0.76107  0.93967  0.62137  1.0000
  C   C202      1.0  0.99932  0.83514  0.63055  1.0000
  C   C203      1.0  0.96783  0.79663  0.55904  1.0000
  H   H344      1.0  0.98203  0.54717  0.41563  1.0000
  H   H345      1.0  0.95135  0.83182  0.51089  1.0000
  H   H346      1.0  0.96316  0.60131  0.59393  1.0000
  H   H347      1.0  0.96342  0.71205  0.55698  1.0000
  C   C204      1.0  0.53296  0.56126  0.55532  1.0000
  H   H348      1.0  0.54508  0.72287  0.54038  1.0000
  H   H349      1.0  0.88522  0.52064  0.49172  1.0000
  S   S63       1.0  0.78815  0.83707  0.67556  1.0000
  C   C205      1.0  0.91785  0.94468  0.36357  1.0000
  H   H350      1.0  0.92857  0.69264  0.60298  1.0000
  H   H351      1.0  0.96769  0.55279  0.60728  1.0000
  C   C206      1.0  0.95045  0.56495  0.58479  1.0000
  H   H352      1.0  0.54884  0.61248  0.44766  1.0000
  H   H353      1.0  0.74575  0.52240  0.60880  1.0000
  H   H354      1.0  0.53539  0.66869  0.55477  1.0000
  C   C207      1.0  0.91622  0.75015  0.66718  1.0000
  C   C208      1.0  0.84460  0.99197  0.66572  1.0000
  H   H355      1.0  0.00124  0.80660  0.54479  1.0000
  H   H356      1.0  0.99660  0.75723  0.64770  1.0000
  H   H357      1.0  0.66957  0.58805  0.66651  1.0000
  C   C209      1.0  0.81954  0.87034  0.34956  1.0000
  H   H358      1.0  0.02551  0.77544  0.60018  1.0000
  H   H359      1.0  0.80808  0.00934  0.59260  1.0000
  C   C210      1.0  0.96680  0.51754  0.47765  1.0000
  C   C211      1.0  0.52779  0.51749  0.49063  1.0000
  H   H360      1.0  0.66526  0.51659  0.64264  1.0000
  H   H361      1.0  0.01098  0.99180  0.91474  1.0000
  S   S64       1.0  0.98382  0.91972  0.77091  1.0000
  Fe  Fe32      1.0  0.02416  0.99592  0.78370  1.0000
  C   C212      1.0  0.93030  0.89784  0.74298  1.0000
  C   C213      1.0  0.90603  0.92152  0.74369  1.0000
  C   C214      1.0  0.86220  0.90221  0.72343  1.0000
  H   H362      1.0  0.92935  0.83660  0.72089  1.0000
  C   C215      1.0  0.94191  0.97880  0.91006  1.0000
  C   C216      1.0  0.91085  0.85517  0.72117  1.0000
  H   H363      1.0  0.92056  0.95423  0.76066  1.0000
  H   H364      1.0  0.86771  0.85764  0.85452  1.0000
  H   H365      1.0  0.91922  0.90485  0.84109  1.0000
  H   H366      1.0  0.85268  0.80360  0.68309  1.0000
  N   N16       1.0  0.96789  0.91908  0.91860  1.0000
  H   H367      1.0  0.91663  0.85067  0.84391  1.0000
  C   C217      1.0  0.97764  0.96392  0.90128  1.0000
  H   H368      1.0  0.94703  0.76774  0.68897  1.0000
  C   C218      1.0  0.91946  0.88237  0.90710  1.0000
  H   H369      1.0  0.94909  0.93287  0.98042  1.0000
  H   H370      1.0  0.90828  0.95569  0.89356  1.0000
  C   C219      1.0  0.90550  0.87347  0.85896  1.0000
  C   C220      1.0  0.97463  0.92508  0.96652  1.0000
  C   C221      1.0  0.86756  0.83650  0.69976  1.0000
  H   H371      1.0  0.89396  0.88808  0.92405  1.0000
  H   H372      1.0  0.91354  0.84917  0.91850  1.0000
  C   C222      1.0  0.84299  0.85987  0.70111  1.0000
  H   H373      1.0  0.98207  0.96429  0.86634  1.0000
  H   H374      1.0  0.87012  0.99979  0.69252  1.0000
  H   H375      1.0  0.84307  0.92011  0.72512  1.0000
  H   H376      1.0  0.99734  0.90481  0.86394  1.0000
  H   H377      1.0  0.93780  0.98204  0.94462  1.0000
  H   H378      1.0  0.99553  0.87361  0.97954  1.0000
  H   H379      1.0  0.99017  0.86964  0.90679  1.0000
  C   C223      1.0  0.99999  0.90519  0.89944  1.0000
  C   C224      1.0  0.97075  0.88401  0.99007  1.0000
  H   H380      1.0  0.93552  0.85454  0.98710  1.0000
  H   H381      1.0  0.95392  0.01300  0.89751  1.0000
  H   H382      1.0  0.00842  0.95502  0.97633  1.0000
  H   H383      1.0  0.88864  0.75367  0.68237  1.0000
  H   H384      1.0  0.81026  0.97148  0.67858  1.0000
