data_image0
_chemical_formula_structural       SC2H9CHSHCSC2NC3SCH5CH2C2HC2HCHCH4C2H3C2SH3C2H4CH3CHC2HC3FeHCH2CHFeSFeSHFeSFeS3FeS2H5C2HC2HCSFeH2C5H3CHCSH2CH3SH6SH3SCFe2CH3CNHCH3CNH4CHCH2SC2H4C3SCSHFeSHFeS2FeS2FeSFeS4H4CHCSHFeS2FeS2FeSFeHS2HSCH3FeSHSHCHC5H4SC2HC6H4C6H5CHCH2C6H4C2HSHCHSH2FeSHCH2C7H7CH2CH2CH2C2H4SCHSH2CHFeH2CH5FeHSH2CH5CH2CH2SNC2H2CH3CNCHCH7C5H3CH3NC5HCH3CHCH7SCH5CNH2CHNCHCH2FeH3CH4C3H3NH2SCHCH3NCHC2HCH2C2HCH3CHCH7NCH2CH2C2SH3C3HCH3C2HCH10CH2CHN2CHFeH2CH2C2H4SCSH9CH4C2HSH5CH6C3H5C3H2CH2CH2C2H4CH2FeCH2CHCH5CHFeC2H2CH4CH3C3H2FeHCFeSHSH7NSH2C2FeS2FeSHFeSFeS4FeHSFeH2FeSHSHC5HSHSC6H4C6H4C6H5NHC2H4C6H6CSH2SCHCH3NC3HCH3SH6C2H5NH3CSH3CH3NH3CHCHCSH4CH7CH6NC8H4NH7CSH6CFeCH2CHCHSCNFeHCHC4HFeH2C2HC2H2CSH2CHCH2SH2C2H2CHCHC2HFeC4H2C2HC2H5CH6SHCSH4SH8C4H2CFeH2CHNCHCSHCH3CH6CHSCH4FeH2S3CFeSFeS2FeS2FeSFeS3FeSHFeSFe2SFeS3H6C6H4C2SHCH2SHC3H2CH2SC7H3C6H5SFeH2C3HCHCH2C2HCHFeHCH2CSHSH3CH4FeHNC5HC2HCH8CH2CFeCHNHCSCH4CH3NCHCH2CHCHSHCHCH5C3H2CHCH3CSH10NH2CHSH2SCHC3HSH5NFeC4H4CH2CH3CHFeH2CH2CH2C4HCH5SH5C2H2FeH2C2HCH4NFeH2S2HCH2SHSCSH2SFeS2FeSFeSCSFeS2FeS2FeSFeCS2H2FeC2S2FeH3C2H2FeH2CHCH3C6H4C2HCSH2CHC2H2SHC6H2CHC6H4C2H2C2H2CNH4CH2SCH3CHFeNHC3NC4H6C2HCH2CH6NC8H20SH5C2HFeH2C2H4CH2C2H4FeHCH3NH2CHC2H2CHCH5C2HC2SH5CSHCH8SHFeCH3CHCH2SH2C5H2SH2C2HC2HCSHSHCHFeHNHSH2SH3CH2C2H2SCHFeC2SHC3HCFeCHSFeH3C2HC2FeC6NH2SC2HCSH2CHC3HCHSH2FeH7SH2FeHCSCH5SC3FeH2CHSH2SNFeCHCHCNCFeS2FeSHFeSFeS3FeS2FeS2FeSFeS3FeCS2H3FeH2C6H4C7H3C6H5C6SH2CH2C4H2SNC8H20CHCH4FeHC2H5C5H5C2H2NC2HCH6SHC2FeH3CHS2NSH2CHCH11SHCH4C2H7C2HNH2CH2CNCH3CH5CH2CH2CHCH5CH2CHCHCH2CH3CSHFeS2FeSHFeSFeS3FeSHFeS2FeCFeS3FeS2FeS2FeSFeS3H2CHC6H4C3H2CHCNH4C2HC2H2C6H4CHC2HSH3SC2H3CH3C6H3CNC8H12NH7NC5HC2H3CH7CHCH5CH2CHC3H2CH2CHCH2NH2CH3CHSCH2C2H2CH6CH4CH5CH2C2HC2H3C2H2C2HCH9NH2FeH2CH2C3H3C2H3C2H10NCH2C2HSH2NC2H2CH3CSCH2C3H2CSCH3CH2CNCH5SH3NHCHCH5CH3CHCH3CH2CH2SHCH4NCSCFeS2HFeS2FeS2FeSFeS3CHFeSFeS2FeSFeS3C6H9FeC6H4C6H4C2HC2H2C6H4C2H2CH3SCH2CFeH2CH3CH5C2HC3HNHC3HCH3CHC2HC3H2CH3C2HNH2CH2CSH6CHNC8H20SHCH3CHCHCH5CH2CFeH3S2H3CHCHCH2SH2CH3C3HFeCH3C5NH2CSH7CH3CH3C2H4CH4CNCH5C2H3C2HNH4CH2CH11CH4CH4C2H2NH4S2CH3SCH5SC6H3FeH2CHSHC4FeH2C2FeSHSHFeCH3CHC2HCH2FeS2FeSHFeSFeS3CHC6H4C5HCHC6H2CHCH3CHC2HCHCH3CH2NHCNH2CH3CH3C2HCH2C2H3CHCH3SH4CH3C2HCHCHCH5CH4CHSHNH4C2H4CNHCH4CH7CHSCHCH3SCHCH4C2SFeC3HSH4CH5SH2FeH3SHCH2C3HC2H3SCNH2CHC2SFeH6FeSCFeS2FeSFeS5H5CHCHS2H2CFeC2H2C2H2CHC6H5C3H2CSHCH2C2H3CH7CSHCHCHC2NC4HC3H10CH12CFeC2H2CHNHC2HNHCHC5H3CHCH2CH5NCH3C2HCH2FeSFeSFeS2FeS2FeS2FeSFeS3FeHSCS2HSC2HSH2FeSHCH4C2H3CHCHSH5SH2CHCHC5H3S2C6H4C6H4C2NCH2C6H4CH2C3H2FeCNC3H2CHSH5CH3CH5CHCHSC2H2CH4C2SH2C2H2CH4C3SH2NC8H9FeH5CH5CH2C2HFeC2SFeSHCHCFeHSHCH2CH2CFeH2C2H5CSH7CH6CHCHSHCH3SH2CHCH3CH3CH8FeHCH2FeH3CH2C5H6C2FeHSC2SCH6CH2CFeCH2NC2H5CHNSC3HCH4NC3H6CHCH2CH2C2HCHC3H2SNCHCHC2H3NSCHCH5SH6CNH4FeH2SCHSH3C2H2SH2CH3C2H3C3SFeS3HC3SFeS2FeS2FeSFeS3CHC2FeH2CHS2HC6H4C6H4C6H2CFeH3CH3CHC6H4C2H3CHCNH5CHCHC2HFeH2CHCH2CH3FeCH4CSH4FeH7CSH3CHC2HNC4HCHFeH8CSH2SHS3CSH2CHCHFeH2CHCH3C2NSFeH6CH2C2SH2CH2SFeH3CSH2C3HCFe2SFeC2SHSNC3HC2HNH10C4H3SH2CSCH3CHCH4CH2NHCH4FeSCHSH2CH3FeHC2H8SCH2C2HC2SHC2H3CNC3HCH2FeHCHCHCH7FeH3CHCFeS2FeHSH2CHFeS2FeSFe2SFeS3FeS2FeSCFeSFeS3C2H3SCHC2SC6H6SCSH2C6H4C6H8CHCH2CH4CH4SHSH2CH2C2HCHFeHC2H2CHNH2C2H3NCH3NC7H5FeH12CH2CSCH2CH2CHC2H4CHCHCH9NH4CNHC3H2CH5CHCH3C3H3C2HNC8H6CHCH8CHCH5FeH5FeSH4CH3NH3CHC2H6SC2H2C2H2FeH5CS2H2Fe2SFeS2FeS3HSFeCSH6FeSCHFeCH5SHCH2SH2CHCHFeHCH8CHSC5SC2HCHC3HC2H3C6H4NH3SC7H2SC2H2CH3C3H4S2CHC6H14NH3CH2CSH6C2H2FeCH4CHCHCFeSCSCFeC2N2C7H13NC2HC2H3C2H3CH4CHCH2CHCH2CH3NSH11CHC3HSH9CH2CH2CH2CHCH4FeC2H2CHCHCHCHC2SHSHNSFeSHCH4CH4SHC2FeSHCSFeCHSH2CH2C2HSC7HCH2C7H3SHCSH4CSHCHCH2C2H3CH5C2SCNH6CH7CH3S3CHCH4FeH2CH2CH3C2NFeSCFeSH2CHCH4CHCH3NHFeHCHCH6CHC2H2CH2CHFeSCS2HFe2SHSFeS2FeS2FeHFeS3HSH8C6H4C6H5CHC3HNH3CHCH9CH2CSH2C2HCH2CHCH5SHC2NC2HCH2CHNH10C4H2CH2FeH2SCHCH5CH2C2H4C3HCNHCHCHCH3SC2HCHCH4C2FeHSH5CH2C2FeSHFeS2FeSFeS3FeS2FeS2FeSFeS3FeS2FeS2FeSFeHS2CHCH7C2HC6H4CH4C6H4C3HCHCH4C2H2CH3C6H9CHC4H2CH2SHNC6H15C5NH3C2HC3HC2HCHCH5CHC3H2NH3CH4CHSHC2H2C3HC4H2CH7C2NH2C2H12C2H4C2SH5CHSCHC2HC2H2C2HCH2C2H2CH3CHC2H8CHCNH3CHNHCSCH2NCH4CNH3CH3CH4CH2CHSH2CHCH4C2H3CH3FeHCHSHSFeS2FeHFeS2CFeS2FeS3CH6S2H2FeHCH2FeSCFeH2CHCSCH3C2H4CHC4H2C6HC6H6C6H4C6H5SCH3CHC2HSCSCHCH2CHCH3CH2CNH5C3H3C2H3CNHCHNCH3CHFeHCH3NC8H22SHCHSHNH6C2H5SCHCHCFeNC5HC2H22C2H6C3HC3SCH4SCH5CSH2SC2HC2H4CH2CHFeHCHNHCHFeH2CH3S2H7FeHCHSH6FeH5CH2C4HCSCSH4SHC2H5CSC3H2C2NCHCH4CH2CFeH2CH2CHCH2CNC5HC2H2CH6SH2CHNH2CHNHFeCSH2FeS2FeS2FeHNHS2HSC6H2NHC3HSCHC2H2CHC3H4FeCH6FeH3CHCH4CHCH2SHCH4CHCH6SH3CNHC2H4C2H6C2H4CHCHC3H4
_chemical_formula_sum              "S512 C1792 H3072 N128 Fe256"
_cell_length_a       58.4662
_cell_length_b       59.1788
_cell_length_c       100.083
_cell_angle_alpha    78.914
_cell_angle_beta     79.1815
_cell_angle_gamma    77.4603

_space_group_name_H-M_alt    "P 1"
_space_group_IT_number       1

loop_
  _space_group_symop_operation_xyz
  'x, y, z'

loop_
  _atom_site_type_symbol
  _atom_site_label
  _atom_site_symmetry_multiplicity
  _atom_site_fract_x
  _atom_site_fract_y
  _atom_site_fract_z
  _atom_site_occupancy
  S   S1        1.0  0.16413  0.08083  0.99015  1.0000
  C   C1        1.0  0.03724  0.20971  0.00331  1.0000
  C   C2        1.0  0.16188  0.03457  0.00021  1.0000
  H   H1        1.0  0.07927  0.16915  0.03270  1.0000
  H   H2        1.0  0.07745  0.18136  0.00681  1.0000
  H   H3        1.0  0.10498  0.17864  0.02265  1.0000
  H   H4        1.0  0.04723  0.24478  0.99773  1.0000
  H   H5        1.0  0.03636  0.18152  0.03661  1.0000
  H   H6        1.0  0.03015  0.01348  0.00840  1.0000
  H   H7        1.0  0.00500  0.16585  0.03154  1.0000
  H   H8        1.0  0.08495  0.19808  0.03290  1.0000
  H   H9        1.0  0.11265  0.24382  0.00614  1.0000
  C   C3        1.0  0.12600  0.06275  0.00532  1.0000
  H   H10       1.0  0.04727  0.16519  0.02291  1.0000
  S   S2        1.0  0.11828  0.13950  0.00073  1.0000
  H   H11       1.0  0.01774  0.21573  0.00478  1.0000
  C   C4        1.0  0.12637  0.24681  0.99746  1.0000
  S   S3        1.0  0.11255  0.99911  0.02418  1.0000
  C   C5        1.0  0.02674  0.29899  0.99771  1.0000
  C   C6        1.0  0.17567  0.99955  0.04156  1.0000
  N   N1        1.0  0.04649  0.20270  0.01690  1.0000
  C   C7        1.0  0.01093  0.18038  0.02379  1.0000
  C   C8        1.0  0.14965  0.05792  0.99917  1.0000
  C   C9        1.0  0.02601  0.00015  0.01756  1.0000
  S   S4        1.0  0.05153  0.14311  0.99847  1.0000
  C   C10       1.0  0.08587  0.18464  0.02639  1.0000
  H   H12       1.0  0.11652  0.08068  0.00464  1.0000
  H   H13       1.0  0.01076  0.17594  0.01353  1.0000
  H   H14       1.0  0.13663  0.02099  0.08021  1.0000
  H   H15       1.0  0.16010  0.99824  0.00836  1.0000
  H   H16       1.0  0.17154  0.01415  0.03304  1.0000
  C   C11       1.0  0.01941  0.11792  0.99576  1.0000
  H   H17       1.0  0.12541  0.28224  0.00039  1.0000
  H   H18       1.0  0.18161  0.00672  0.04949  1.0000
  C   C12       1.0  0.11478  0.04445  0.01275  1.0000
  C   C13       1.0  0.15051  0.01615  0.00746  1.0000
  H   H19       1.0  0.04701  0.21698  0.03522  1.0000
  C   C14       1.0  0.04287  0.11724  0.99714  1.0000
  C   C15       1.0  0.07299  0.19483  0.01378  1.0000
  H   H20       1.0  0.14746  0.02505  0.06222  1.0000
  C   C16       1.0  0.05263  0.07636  0.99411  1.0000
  H   H21       1.0  0.08158  0.20969  0.00821  1.0000
  C   C17       1.0  0.03703  0.30263  0.00852  1.0000
  H   H22       1.0  0.02281  0.00941  0.02661  1.0000
  H   H23       1.0  0.11994  0.01499  0.06855  1.0000
  H   H24       1.0  0.04045  0.19417  0.99800  1.0000
  H   H25       1.0  0.09659  0.04844  0.01772  1.0000
  C   C18       1.0  0.12700  0.02114  0.01391  1.0000
  C   C19       1.0  0.03618  0.18215  0.02544  1.0000
  H   H26       1.0  0.05305  0.23610  0.01965  1.0000
  H   H27       1.0  0.00656  0.13395  0.99637  1.0000
  H   H28       1.0  0.03889  0.28925  0.01748  1.0000
  C   C20       1.0  0.04181  0.22297  0.02480  1.0000
  C   C21       1.0  0.13814  0.01360  0.07061  1.0000
  S   S5        1.0  0.12855  0.20106  0.99534  1.0000
  H   H29       1.0  0.00402  0.22523  0.03348  1.0000
  H   H30       1.0  0.22135  0.31888  0.02320  1.0000
  H   H31       1.0  0.26409  0.31343  0.01589  1.0000
  C   C22       1.0  0.01610  0.23641  0.02702  1.0000
  C   C23       1.0  0.04786  0.22915  0.99303  1.0000
  H   H32       1.0  0.20079  0.30336  0.00985  1.0000
  H   H33       1.0  0.02075  0.28277  0.99835  1.0000
  H   H34       1.0  0.07742  0.09556  0.99804  1.0000
  H   H35       1.0  0.06529  0.06010  0.99385  1.0000
  C   C24       1.0  0.13364  0.26861  0.99425  1.0000
  H   H36       1.0  0.00953  0.24441  0.01718  1.0000
  H   H37       1.0  0.13790  0.00286  0.04681  1.0000
  H   H38       1.0  0.18024  0.03077  0.99550  1.0000
  C   C25       1.0  0.05943  0.09635  0.99655  1.0000
  H   H39       1.0  0.01538  0.25111  0.03262  1.0000
  C   C26       1.0  0.02955  0.07759  0.99174  1.0000
  C   C27       1.0  0.01286  0.09828  0.99278  1.0000
  H   H40       1.0  0.25037  0.29873  0.00663  1.0000
  C   C28       1.0  0.13698  0.22875  0.98973  1.0000
  C   C29       1.0  0.25204  0.31638  0.00809  1.0000
  C   C30       1.0  0.20215  0.31729  0.00067  1.0000
  Fe  Fe1       1.0  0.08922  0.14236  0.98856  1.0000
  H   H41       1.0  0.06637  0.22254  0.98843  1.0000
  C   C31       1.0  0.04606  0.32306  0.00735  1.0000
  H   H42       1.0  0.18400  0.32253  0.99779  1.0000
  H   H43       1.0  0.21769  0.28659  0.99079  1.0000
  C   C32       1.0  0.21776  0.30573  0.98857  1.0000
  H   H44       1.0  0.17470  0.32307  0.02593  1.0000
  Fe  Fe2       1.0  0.41241  0.06379  0.44790  1.0000
  S   S6        1.0  0.40704  0.08079  0.42617  1.0000
  Fe  Fe3       1.0  0.46522  0.05041  0.44065  1.0000
  S   S7        1.0  0.46482  0.06710  0.41870  1.0000
  H   H45       1.0  0.45063  0.04030  0.32229  1.0000
  Fe  Fe4       1.0  0.43844  0.09693  0.42681  1.0000
  S   S8        1.0  0.44522  0.13357  0.41751  1.0000
  Fe  Fe5       1.0  0.43400  0.04954  0.41980  1.0000
  S   S9        1.0  0.44018  0.02685  0.40312  1.0000
  S   S10       1.0  0.44210  0.08168  0.44877  1.0000
  S   S11       1.0  0.43608  0.03138  0.44136  1.0000
  Fe  Fe6       1.0  0.41777  0.25588  0.44268  1.0000
  S   S12       1.0  0.43354  0.26164  0.46034  1.0000
  S   S13       1.0  0.40107  0.22352  0.44652  1.0000
  H   H46       1.0  0.45941  0.13300  0.44458  1.0000
  H   H47       1.0  0.47151  0.21034  0.44262  1.0000
  H   H48       1.0  0.44602  0.11819  0.46864  1.0000
  H   H49       1.0  0.42121  0.00363  0.46980  1.0000
  H   H50       1.0  0.47056  0.04156  0.33328  1.0000
  C   C33       1.0  0.47410  0.17274  0.44891  1.0000
  C   C34       1.0  0.42557  0.00297  0.40528  1.0000
  H   H51       1.0  0.47636  0.02821  0.35776  1.0000
  C   C35       1.0  0.48242  0.25572  0.38926  1.0000
  C   C36       1.0  0.45665  0.13232  0.46632  1.0000
  H   H52       1.0  0.40350  0.00959  0.35908  1.0000
  C   C37       1.0  0.40195  0.00424  0.41156  1.0000
  S   S14       1.0  0.44897  0.30832  0.44001  1.0000
  Fe  Fe7       1.0  0.41731  0.29953  0.45482  1.0000
  H   H53       1.0  0.47375  0.02539  0.48117  1.0000
  H   H54       1.0  0.39274  0.01955  0.41610  1.0000
  C   C38       1.0  0.43167  0.15869  0.42528  1.0000
  C   C39       1.0  0.43852  0.18028  0.41952  1.0000
  C   C40       1.0  0.41287  0.19896  0.43801  1.0000
  C   C41       1.0  0.40575  0.17745  0.44364  1.0000
  C   C42       1.0  0.41520  0.15736  0.43737  1.0000
  H   H55       1.0  0.39295  0.17629  0.45297  1.0000
  H   H56       1.0  0.40975  0.14086  0.44190  1.0000
  H   H57       1.0  0.44008  0.00919  0.37027  1.0000
  C   C43       1.0  0.42929  0.20030  0.42589  1.0000
  H   H58       1.0  0.49056  0.99519  0.34217  1.0000
  C   C44       1.0  0.48471  0.00969  0.36081  1.0000
  S   S15       1.0  0.40025  0.32331  0.47057  1.0000
  H   H59       1.0  0.49815  0.28104  0.41988  1.0000
  H   H60       1.0  0.43901  0.03331  0.34946  1.0000
  C   C45       1.0  0.39610  0.05871  0.48185  1.0000
  H   H61       1.0  0.46222  0.00433  0.46516  1.0000
  H   H62       1.0  0.48497  0.30101  0.45444  1.0000
  H   H63       1.0  0.45104  0.31086  0.46938  1.0000
  S   S16       1.0  0.44956  0.26141  0.42693  1.0000
  H   H64       1.0  0.49607  0.24606  0.38212  1.0000
  H   H65       1.0  0.40337  0.99677  0.37671  1.0000
  H   H66       1.0  0.45567  0.17429  0.44695  1.0000
  H   H67       1.0  0.47923  0.00418  0.37201  1.0000
  H   H68       1.0  0.48206  0.11284  0.45232  1.0000
  H   H69       1.0  0.41247  0.08847  0.47295  1.0000
  S   S17       1.0  0.39867  0.29358  0.43840  1.0000
  H   H70       1.0  0.47816  0.06458  0.46504  1.0000
  H   H71       1.0  0.45114  0.18148  0.41013  1.0000
  H   H72       1.0  0.49362  0.28892  0.38611  1.0000
  S   S18       1.0  0.38559  0.05686  0.46680  1.0000
  C   C46       1.0  0.47193  0.13111  0.45199  1.0000
  Fe  Fe8       1.0  0.46385  0.26992  0.44421  1.0000
  Fe  Fe9       1.0  0.43210  0.29954  0.42397  1.0000
  C   C47       1.0  0.46117  0.02941  0.33019  1.0000
  H   H73       1.0  0.47230  0.17564  0.45976  1.0000
  H   H74       1.0  0.43469  0.21680  0.42137  1.0000
  H   H75       1.0  0.46745  0.12934  0.47469  1.0000
  C   C48       1.0  0.44399  0.01965  0.34261  1.0000
  N   N2        1.0  0.45315  0.99623  0.35076  1.0000
  H   H76       1.0  0.41626  0.00151  0.48778  1.0000
  C   C49       1.0  0.41022  0.07504  0.48177  1.0000
  H   H77       1.0  0.48884  0.99760  0.40987  1.0000
  H   H78       1.0  0.42745  0.01913  0.33877  1.0000
  H   H79       1.0  0.44374  0.14907  0.46661  1.0000
  C   C50       1.0  0.48295  0.19403  0.43947  1.0000
  N   N3        1.0  0.48829  0.14862  0.44710  1.0000
  H   H80       1.0  0.47494  0.24320  0.39786  1.0000
  H   H81       1.0  0.47412  0.01609  0.32498  1.0000
  H   H82       1.0  0.46761  0.26476  0.38350  1.0000
  H   H83       1.0  0.48121  0.19444  0.42857  1.0000
  C   C51       1.0  0.45954  0.01489  0.48469  1.0000
  H   H84       1.0  0.48287  0.15452  0.42587  1.0000
  C   C52       1.0  0.46389  0.99527  0.47585  1.0000
  H   H85       1.0  0.44259  0.02710  0.48326  1.0000
  H   H86       1.0  0.47640  0.28157  0.40220  1.0000
  S   S19       1.0  0.43948  0.32301  0.40361  1.0000
  C   C53       1.0  0.49155  0.27419  0.39477  1.0000
  C   C54       1.0  0.49723  0.06236  0.46343  1.0000
  H   H87       1.0  0.49934  0.24205  0.41834  1.0000
  H   H88       1.0  0.49505  0.11226  0.42904  1.0000
  H   H89       1.0  0.49731  0.08972  0.47483  1.0000
  H   H90       1.0  0.49388  0.31577  0.40063  1.0000
  C   C55       1.0  0.41227  0.99474  0.36606  1.0000
  C   C56       1.0  0.43902  0.99448  0.36508  1.0000
  C   C57       1.0  0.49755  0.14754  0.43207  1.0000
  S   S20       1.0  0.49797  0.02836  0.44825  1.0000
  C   C58       1.0  0.47892  0.99317  0.35224  1.0000
  S   S21       1.0  0.38064  0.19505  0.73413  1.0000
  H   H91       1.0  0.40150  0.28307  0.50741  1.0000
  Fe  Fe10      1.0  0.12548  0.29411  0.70137  1.0000
  S   S22       1.0  0.12909  0.25593  0.71050  1.0000
  H   H92       1.0  0.01214  0.04035  0.69024  1.0000
  Fe  Fe11      1.0  0.11032  0.16870  0.67161  1.0000
  S   S23       1.0  0.11596  0.14503  0.65593  1.0000
  S   S24       1.0  0.10956  0.20690  0.66460  1.0000
  Fe  Fe12      1.0  0.10866  0.12935  0.69558  1.0000
  S   S25       1.0  0.11354  0.10211  0.68194  1.0000
  S   S26       1.0  0.10561  0.12141  0.71867  1.0000
  Fe  Fe13      1.0  0.14144  0.12133  0.66904  1.0000
  S   S27       1.0  0.17746  0.10181  0.66080  1.0000
  Fe  Fe14      1.0  0.08744  0.12850  0.67020  1.0000
  S   S28       1.0  0.05956  0.12036  0.65982  1.0000
  S   S29       1.0  0.13819  0.14668  0.68354  1.0000
  S   S30       1.0  0.08002  0.15415  0.68500  1.0000
  S   S31       1.0  0.42952  0.12421  0.69029  1.0000
  H   H93       1.0  0.00519  0.20763  0.68160  1.0000
  H   H94       1.0  0.07584  0.03737  0.69268  1.0000
  H   H95       1.0  0.38018  0.03039  0.49406  1.0000
  H   H96       1.0  0.28117  0.11675  0.57685  1.0000
  C   C59       1.0  0.17593  0.16953  0.70687  1.0000
  H   H97       1.0  0.40429  0.08695  0.70372  1.0000
  C   C60       1.0  0.21124  0.17090  0.71697  1.0000
  S   S32       1.0  0.43280  0.05560  0.51880  1.0000
  H   H98       1.0  0.33784  0.22757  0.67470  1.0000
  Fe  Fe15      1.0  0.35055  0.14620  0.63382  1.0000
  S   S33       1.0  0.36696  0.10892  0.63148  1.0000
  S   S34       1.0  0.37306  0.17373  0.63070  1.0000
  Fe  Fe16      1.0  0.30080  0.13526  0.64385  1.0000
  S   S35       1.0  0.31297  0.09690  0.64252  1.0000
  S   S36       1.0  0.26403  0.15437  0.65141  1.0000
  Fe  Fe17      1.0  0.34411  0.10035  0.65174  1.0000
  S   S37       1.0  0.35760  0.07678  0.67011  1.0000
  Fe  Fe18      1.0  0.33473  0.10886  0.62229  1.0000
  H   H99       1.0  0.41698  0.08847  0.59290  1.0000
  S   S38       1.0  0.33012  0.13757  0.65473  1.0000
  S   S39       1.0  0.32009  0.14719  0.62293  1.0000
  H   H100      1.0  0.40753  0.09292  0.57021  1.0000
  S   S40       1.0  0.32739  0.29933  0.65793  1.0000
  C   C61       1.0  0.06476  0.27223  0.70898  1.0000
  H   H101      1.0  0.05986  0.22864  0.63148  1.0000
  H   H102      1.0  0.40240  0.28885  0.53100  1.0000
  H   H103      1.0  0.47087  0.00086  0.58419  1.0000
  Fe  Fe19      1.0  0.32599  0.30214  0.63549  1.0000
  S   S41       1.0  0.31043  0.27529  0.62890  1.0000
  H   H104      1.0  0.34256  0.04686  0.71570  1.0000
  S   S42       1.0  0.39279  0.29660  0.66149  1.0000
  H   H105      1.0  0.28452  0.27954  0.65846  1.0000
  C   C62       1.0  0.07011  0.21706  0.63918  1.0000
  H   H106      1.0  0.30074  0.08204  0.67899  1.0000
  C   C63       1.0  0.42099  0.07441  0.49328  1.0000
  C   C64       1.0  0.44208  0.23120  0.71305  1.0000
  C   C65       1.0  0.43614  0.21425  0.70702  1.0000
  C   C66       1.0  0.41677  0.20362  0.71332  1.0000
  C   C67       1.0  0.15440  0.10943  0.71596  1.0000
  H   H107      1.0  0.43317  0.19242  0.65524  1.0000
  H   H108      1.0  0.41091  0.32190  0.60617  1.0000
  H   H109      1.0  0.00649  0.20115  0.63951  1.0000
  H   H110      1.0  0.07487  0.06910  0.67234  1.0000
  S   S43       1.0  0.39276  0.00120  0.58402  1.0000
  C   C68       1.0  0.49086  0.07729  0.51560  1.0000
  C   C69       1.0  0.42378  0.30206  0.67734  1.0000
  H   H111      1.0  0.43205  0.28412  0.67631  1.0000
  C   C70       1.0  0.35583  0.20204  0.63006  1.0000
  C   C71       1.0  0.33127  0.20539  0.63072  1.0000
  C   C72       1.0  0.31757  0.22802  0.63014  1.0000
  C   C73       1.0  0.32826  0.24732  0.62933  1.0000
  C   C74       1.0  0.35280  0.24403  0.62889  1.0000
  C   C75       1.0  0.36663  0.22139  0.62908  1.0000
  H   H112      1.0  0.32281  0.19057  0.63157  1.0000
  H   H113      1.0  0.29868  0.23054  0.63034  1.0000
  H   H114      1.0  0.36114  0.25893  0.62818  1.0000
  H   H115      1.0  0.38566  0.21885  0.62853  1.0000
  C   C76       1.0  0.37809  0.08949  0.67562  1.0000
  C   C77       1.0  0.38788  0.10766  0.66696  1.0000
  C   C78       1.0  0.40406  0.11790  0.67138  1.0000
  C   C79       1.0  0.40988  0.11064  0.68468  1.0000
  C   C80       1.0  0.39981  0.09272  0.69345  1.0000
  C   C81       1.0  0.38437  0.08180  0.68881  1.0000
  H   H116      1.0  0.38327  0.11370  0.65675  1.0000
  H   H117      1.0  0.20022  0.17839  0.68746  1.0000
  H   H118      1.0  0.37721  0.06753  0.69551  1.0000
  H   H119      1.0  0.33553  0.21704  0.65957  1.0000
  H   H120      1.0  0.47352  0.01882  0.73381  1.0000
  C   C82       1.0  0.35805  0.05159  0.60689  1.0000
  H   H121      1.0  0.41596  0.24465  0.67612  1.0000
  C   C83       1.0  0.26521  0.28344  0.65802  1.0000
  H   H122      1.0  0.35330  0.05300  0.61772  1.0000
  H   H123      1.0  0.15400  0.10680  0.70561  1.0000
  C   C84       1.0  0.20130  0.11638  0.65930  1.0000
  C   C85       1.0  0.19750  0.14070  0.65868  1.0000
  C   C86       1.0  0.21690  0.15212  0.65658  1.0000
  C   C87       1.0  0.24016  0.13930  0.65506  1.0000
  C   C88       1.0  0.24395  0.11493  0.65609  1.0000
  C   C89       1.0  0.22456  0.10352  0.65812  1.0000
  H   H124      1.0  0.17962  0.15077  0.65948  1.0000
  H   H125      1.0  0.21384  0.17099  0.65583  1.0000
  H   H126      1.0  0.26178  0.10485  0.65521  1.0000
  H   H127      1.0  0.22756  0.08467  0.65875  1.0000
  C   C90       1.0  0.02904  0.12444  0.66651  1.0000
  C   C91       1.0  0.01320  0.11997  0.65883  1.0000
  H   H128      1.0  0.41893  0.06307  0.56843  1.0000
  S   S44       1.0  0.48718  0.30204  0.70849  1.0000
  H   H129      1.0  0.00535  0.26722  0.64635  1.0000
  C   C92       1.0  0.02044  0.13093  0.67951  1.0000
  H   H130      1.0  0.01972  0.11499  0.64875  1.0000
  S   S45       1.0  0.46738  0.24317  0.70579  1.0000
  H   H131      1.0  0.34824  0.32323  0.55916  1.0000
  H   H132      1.0  0.03247  0.13457  0.68545  1.0000
  Fe  Fe20      1.0  0.36093  0.31347  0.65109  1.0000
  S   S46       1.0  0.09618  0.32115  0.70996  1.0000
  H   H133      1.0  0.31819  0.11190  0.68587  1.0000
  C   C93       1.0  0.03035  0.23703  0.69876  1.0000
  H   H134      1.0  0.25819  0.28174  0.62817  1.0000
  H   H135      1.0  0.35011  0.30646  0.68792  1.0000
  C   C94       1.0  0.03889  0.17598  0.63635  1.0000
  C   C95       1.0  0.12640  0.24027  0.69789  1.0000
  C   C96       1.0  0.11625  0.22017  0.70159  1.0000
  C   C97       1.0  0.11211  0.20905  0.69133  1.0000
  C   C98       1.0  0.11761  0.21845  0.67743  1.0000
  C   C99       1.0  0.12875  0.23783  0.67377  1.0000
  C   C100      1.0  0.13355  0.24841  0.68402  1.0000
  H   H136      1.0  0.11079  0.21369  0.71233  1.0000
  H   H137      1.0  0.10366  0.19389  0.69418  1.0000
  H   H138      1.0  0.13346  0.24481  0.66302  1.0000
  H   H139      1.0  0.14254  0.26306  0.68115  1.0000
  H   H140      1.0  0.21379  0.15161  0.72061  1.0000
  H   H141      1.0  0.18397  0.21605  0.72069  1.0000
  H   H142      1.0  0.26260  0.10712  0.70826  1.0000
  C   C101      1.0  0.05780  0.08092  0.69821  1.0000
  H   H143      1.0  0.49958  0.08887  0.51963  1.0000
  H   H144      1.0  0.24281  0.17108  0.62373  1.0000
  C   C102      1.0  0.19081  0.26940  0.66922  1.0000
  H   H145      1.0  0.36365  0.27350  0.72262  1.0000
  H   H146      1.0  0.39350  0.22193  0.69073  1.0000
  C   C103      1.0  0.41765  0.05741  0.50493  1.0000
  H   H147      1.0  0.46018  0.18773  0.72879  1.0000
  H   H148      1.0  0.18223  0.27420  0.67944  1.0000
  C   C104      1.0  0.18062  0.20712  0.71261  1.0000
  C   C105      1.0  0.45868  0.06426  0.59646  1.0000
  H   H149      1.0  0.39988  0.02864  0.51420  1.0000
  H   H150      1.0  0.15927  0.18059  0.70362  1.0000
  H   H151      1.0  0.37726  0.18480  0.69953  1.0000
  H   H152      1.0  0.35994  0.20985  0.70639  1.0000
  S   S47       1.0  0.36165  0.31246  0.62865  1.0000
  C   C106      1.0  0.38057  0.32393  0.54423  1.0000
  H   H153      1.0  0.23236  0.29743  0.62127  1.0000
  S   S48       1.0  0.38222  0.13743  0.72021  1.0000
  H   H154      1.0  0.18202  0.28273  0.66146  1.0000
  H   H155      1.0  0.45978  0.00817  0.49578  1.0000
  C   C107      1.0  0.37692  0.02823  0.58873  1.0000
  H   H156      1.0  0.25633  0.28894  0.66798  1.0000
  Fe  Fe21      1.0  0.43033  0.02258  0.53382  1.0000
  H   H157      1.0  0.02985  0.16212  0.64287  1.0000
  H   H158      1.0  0.23721  0.26627  0.62420  1.0000
  C   C108      1.0  0.41443  0.06037  0.61886  1.0000
  H   H159      1.0  0.49674  0.05614  0.49980  1.0000
  H   H160      1.0  0.31137  0.06207  0.69887  1.0000
  H   H161      1.0  0.43211  0.08692  0.49308  1.0000
  H   H162      1.0  0.20518  0.11099  0.62819  1.0000
  H   H163      1.0  0.19256  0.10096  0.71394  1.0000
  Fe  Fe22      1.0  0.42035  0.12384  0.71305  1.0000
  H   H164      1.0  0.32938  0.29806  0.72885  1.0000
  S   S49       1.0  0.42381  0.09266  0.72982  1.0000
  H   H165      1.0  0.06689  0.25289  0.71150  1.0000
  H   H166      1.0  0.30758  0.10336  0.72490  1.0000
  C   C109      1.0  0.21763  0.26940  0.66760  1.0000
  H   H167      1.0  0.47617  0.06406  0.57464  1.0000
  H   H168      1.0  0.35257  0.08368  0.57523  1.0000
  H   H169      1.0  0.33499  0.07624  0.69769  1.0000
  H   H170      1.0  0.45197  0.07915  0.60232  1.0000
  H   H171      1.0  0.05398  0.01146  0.71214  1.0000
  C   C110      1.0  0.25319  0.15817  0.61710  1.0000
  H   H172      1.0  0.38208  0.29528  0.71912  1.0000
  H   H173      1.0  0.44910  0.30602  0.68937  1.0000
  C   C111      1.0  0.46816  0.03808  0.73332  1.0000
  H   H174      1.0  0.33848  0.29355  0.70483  1.0000
  H   H175      1.0  0.34760  0.99764  0.54184  1.0000
  S   S50       1.0  0.39794  0.00702  0.54253  1.0000
  N   N4        1.0  0.49712  0.18341  0.73119  1.0000
  C   C112      1.0  0.05541  0.20726  0.65278  1.0000
  C   C113      1.0  0.37056  0.04762  0.57882  1.0000
  H   H176      1.0  0.01597  0.23528  0.66449  1.0000
  H   H177      1.0  0.43884  0.08280  0.56813  1.0000
  C   C114      1.0  0.40784  0.18857  0.67468  1.0000
  H   H178      1.0  0.03851  0.17462  0.62548  1.0000
  H   H179      1.0  0.14550  0.30877  0.73475  1.0000
  H   H180      1.0  0.18307  0.21724  0.69020  1.0000
  C   C115      1.0  0.35761  0.06879  0.58295  1.0000
  N   N5        1.0  0.18530  0.18087  0.71653  1.0000
  C   C116      1.0  0.34422  0.30723  0.72865  1.0000
  H   H181      1.0  0.22496  0.30012  0.64545  1.0000
  C   C117      1.0  0.40310  0.21020  0.72551  1.0000
  H   H182      1.0  0.34969  0.19923  0.69347  1.0000
  H   H183      1.0  0.37394  0.28177  0.73621  1.0000
  H   H184      1.0  0.21981  0.11450  0.60346  1.0000
  H   H185      1.0  0.06012  0.11115  0.70692  1.0000
  H   H186      1.0  0.39972  0.17359  0.68065  1.0000
  H   H187      1.0  0.40445  0.22539  0.65192  1.0000
  H   H188      1.0  0.03069  0.21319  0.63014  1.0000
  C   C118      1.0  0.01894  0.25174  0.64371  1.0000
  C   C119      1.0  0.40273  0.04168  0.50524  1.0000
  C   C120      1.0  0.39937  0.22969  0.66256  1.0000
  C   C121      1.0  0.46628  0.01381  0.59144  1.0000
  C   C122      1.0  0.19321  0.21733  0.69853  1.0000
  H   H189      1.0  0.22205  0.17283  0.70662  1.0000
  H   H190      1.0  0.09311  0.27958  0.65807  1.0000
  H   H191      1.0  0.18274  0.15753  0.68700  1.0000
  C   C123      1.0  0.31815  0.07326  0.70438  1.0000
  H   H192      1.0  0.16150  0.21357  0.71225  1.0000
  H   H193      1.0  0.21173  0.20826  0.69605  1.0000
  H   H194      1.0  0.19438  0.23573  0.69877  1.0000
  N   N6        1.0  0.04809  0.27387  0.68658  1.0000
  C   C124      1.0  0.07082  0.27975  0.67801  1.0000
  C   C125      1.0  0.04528  0.28314  0.69995  1.0000
  C   C126      1.0  0.02800  0.28620  0.67873  1.0000
  C   C127      1.0  0.05010  0.24763  0.68868  1.0000
  C   C128      1.0  0.07586  0.27464  0.66306  1.0000
  H   H195      1.0  0.13781  0.17087  0.72607  1.0000
  C   C129      1.0  0.39157  0.04268  0.49382  1.0000
  H   H196      1.0  0.47661  0.04621  0.72316  1.0000
  H   H197      1.0  0.07123  0.29866  0.67739  1.0000
  H   H198      1.0  0.08642  0.27000  0.68286  1.0000
  C   C130      1.0  0.40371  0.31273  0.67117  1.0000
  H   H199      1.0  0.33728  0.12688  0.71631  1.0000
  C   C131      1.0  0.22323  0.18164  0.72606  1.0000
  H   H200      1.0  0.02712  0.27654  0.67038  1.0000
  H   H201      1.0  0.05051  0.24172  0.67875  1.0000
  H   H202      1.0  0.06741  0.23835  0.69183  1.0000
  H   H203      1.0  0.07677  0.07339  0.69914  1.0000
  H   H204      1.0  0.06235  0.28527  0.65682  1.0000
  H   H205      1.0  0.02158  0.08451  0.68512  1.0000
  H   H206      1.0  0.41537  0.03156  0.60843  1.0000
  S   S51       1.0  0.15460  0.31257  0.70182  1.0000
  C   C132      1.0  0.33397  0.11586  0.70933  1.0000
  H   H207      1.0  0.16834  0.25689  0.72905  1.0000
  H   H208      1.0  0.04633  0.06456  0.66985  1.0000
  H   H209      1.0  0.02251  0.02146  0.71190  1.0000
  H   H210      1.0  0.32846  0.00927  0.58582  1.0000
  H   H211      1.0  0.43978  0.32397  0.60882  1.0000
  C   C133      1.0  0.27500  0.10787  0.58734  1.0000
  N   N7        1.0  0.30091  0.09602  0.70556  1.0000
  H   H212      1.0  0.41184  0.13163  0.66452  1.0000
  H   H213      1.0  0.43334  0.25002  0.73033  1.0000
  C   C134      1.0  0.13317  0.11613  0.72460  1.0000
  H   H214      1.0  0.29121  0.09755  0.59133  1.0000
  N   N8        1.0  0.04409  0.06161  0.69912  1.0000
  C   C135      1.0  0.19274  0.16339  0.69366  1.0000
  H   H215      1.0  0.41251  0.19019  0.70879  1.0000
  C   C136      1.0  0.36578  0.20200  0.69679  1.0000
  H   H216      1.0  0.39409  0.31131  0.54973  1.0000
  H   H217      1.0  0.42036  0.19105  0.68116  1.0000
  Fe  Fe23      1.0  0.46610  0.27356  0.71640  1.0000
  H   H218      1.0  0.26231  0.29820  0.64945  1.0000
  H   H219      1.0  0.42578  0.07174  0.62084  1.0000
  H   H220      1.0  0.35823  0.99671  0.56661  1.0000
  C   C137      1.0  0.03785  0.02341  0.71624  1.0000
  H   H221      1.0  0.44676  0.20904  0.69764  1.0000
  H   H222      1.0  0.31181  0.04557  0.72200  1.0000
  H   H223      1.0  0.36705  0.23608  0.68433  1.0000
  H   H224      1.0  0.27249  0.07673  0.70753  1.0000
  C   C138      1.0  0.36727  0.28881  0.72624  1.0000
  C   C139      1.0  0.42260  0.17966  0.66159  1.0000
  C   C140      1.0  0.37037  0.03021  0.60276  1.0000
  H   H225      1.0  0.20727  0.14842  0.69612  1.0000
  H   H226      1.0  0.22283  0.14878  0.61182  1.0000
  H   H227      1.0  0.35188  0.23977  0.65798  1.0000
  N   N9        1.0  0.23227  0.26336  0.65419  1.0000
  H   H228      1.0  0.24851  0.13869  0.59049  1.0000
  H   H229      1.0  0.25736  0.16817  0.60666  1.0000
  S   S52       1.0  0.43104  0.29721  0.71893  1.0000
  C   C141      1.0  0.40871  0.22748  0.73138  1.0000
  H   H230      1.0  0.06510  0.18911  0.65589  1.0000
  C   C142      1.0  0.06291  0.05625  0.67409  1.0000
  H   H231      1.0  0.02823  0.28105  0.70661  1.0000
  H   H232      1.0  0.04468  0.30239  0.69783  1.0000
  H   H233      1.0  0.48965  0.10171  0.72949  1.0000
  N   N10       1.0  0.38912  0.21031  0.67231  1.0000
  C   C143      1.0  0.27620  0.09165  0.71155  1.0000
  H   H234      1.0  0.45315  0.04021  0.57559  1.0000
  C   C144      1.0  0.23920  0.28159  0.62839  1.0000
  C   C145      1.0  0.23829  0.13963  0.61708  1.0000
  H   H235      1.0  0.46050  0.00409  0.60171  1.0000
  C   C146      1.0  0.42171  0.07777  0.57299  1.0000
  H   H236      1.0  0.47100  0.05195  0.60297  1.0000
  H   H237      1.0  0.08192  0.27727  0.70410  1.0000
  C   C147      1.0  0.30855  0.11105  0.71387  1.0000
  C   C148      1.0  0.37010  0.20423  0.66608  1.0000
  H   H238      1.0  0.21887  0.28720  0.66911  1.0000
  C   C149      1.0  0.26220  0.12673  0.59625  1.0000
  H   H239      1.0  0.23078  0.13456  0.62806  1.0000
  H   H240      1.0  0.27588  0.13717  0.59635  1.0000
  H   H241      1.0  0.22977  0.08772  0.63221  1.0000
  C   C150      1.0  0.27843  0.07841  0.61852  1.0000
  H   H242      1.0  0.38863  0.31298  0.50245  1.0000
  C   C151      1.0  0.34773  0.22345  0.66462  1.0000
  H   H243      1.0  0.24107  0.20921  0.64207  1.0000
  H   H244      1.0  0.36425  0.18798  0.67200  1.0000
  H   H245      1.0  0.03637  0.25610  0.64392  1.0000
  H   H246      1.0  0.47921  0.21949  0.73139  1.0000
  H   H247      1.0  0.03104  0.30395  0.67350  1.0000
  H   H248      1.0  0.05686  0.21721  0.66086  1.0000
  H   H249      1.0  0.27633  0.07282  0.60900  1.0000
  N   N11       1.0  0.25119  0.11825  0.61073  1.0000
  C   C152      1.0  0.23276  0.10419  0.61027  1.0000
  H   H250      1.0  0.03339  0.17155  0.66355  1.0000
  H   H251      1.0  0.26972  0.15030  0.62143  1.0000
  C   C153      1.0  0.27007  0.08660  0.72739  1.0000
  H   H252      1.0  0.29617  0.12828  0.71376  1.0000
  H   H253      1.0  0.20607  0.28226  0.73349  1.0000
  C   C154      1.0  0.27006  0.10490  0.61925  1.0000
  C   C155      1.0  0.32454  0.05758  0.71785  1.0000
  S   S53       1.0  0.33536  0.09788  0.60165  1.0000
  H   H254      1.0  0.39837  0.07136  0.61497  1.0000
  H   H255      1.0  0.43118  0.02577  0.58593  1.0000
  H   H256      1.0  0.38586  0.24613  0.66160  1.0000
  C   C156      1.0  0.42092  0.23647  0.66663  1.0000
  C   C157      1.0  0.37914  0.21874  0.68588  1.0000
  C   C158      1.0  0.42797  0.04283  0.60915  1.0000
  H   H257      1.0  0.26335  0.09626  0.58603  1.0000
  C   C159      1.0  0.21832  0.09619  0.62432  1.0000
  H   H258      1.0  0.01720  0.24967  0.63321  1.0000
  H   H259      1.0  0.28950  0.11110  0.67135  1.0000
  H   H260      1.0  0.27104  0.09694  0.68512  1.0000
  C   C160      1.0  0.35154  0.07094  0.59698  1.0000
  C   C161      1.0  0.25800  0.26124  0.65546  1.0000
  H   H261      1.0  0.22449  0.25712  0.67651  1.0000
  C   C162      1.0  0.02150  0.18886  0.66414  1.0000
  H   H262      1.0  0.24050  0.08821  0.60560  1.0000
  H   H263      1.0  0.25274  0.08070  0.73015  1.0000
  H   H264      1.0  0.05770  0.17226  0.63790  1.0000
  H   H265      1.0  0.08199  0.22757  0.64159  1.0000
  H   H266      1.0  0.21167  0.24289  0.64696  1.0000
  H   H267      1.0  0.40183  0.06605  0.59205  1.0000
  H   H268      1.0  0.48275  0.02023  0.59145  1.0000
  H   H269      1.0  0.20801  0.08318  0.62313  1.0000
  H   H270      1.0  0.28605  0.11320  0.61659  1.0000
  H   H271      1.0  0.26361  0.10597  0.63032  1.0000
  C   C163      1.0  0.28967  0.09899  0.68131  1.0000
  H   H272      1.0  0.18701  0.25199  0.66886  1.0000
  H   H273      1.0  0.49156  0.02364  0.51227  1.0000
  C   C164      1.0  0.17624  0.10594  0.72073  1.0000
  H   H274      1.0  0.37718  0.19998  0.65556  1.0000
  N   N12       1.0  0.43846  0.05337  0.59493  1.0000
  N   N13       1.0  0.02972  0.20705  0.65247  1.0000
  C   C165      1.0  0.42842  0.23767  0.72528  1.0000
  H   H275      1.0  0.25537  0.23319  0.63401  1.0000
  Fe  Fe24      1.0  0.41270  0.99868  0.56245  1.0000
  H   H276      1.0  0.40815  0.05041  0.62899  1.0000
  H   H277      1.0  0.05050  0.08839  0.71966  1.0000
  C   C166      1.0  0.41922  0.07173  0.58884  1.0000
  H   H278      1.0  0.26247  0.21646  0.65024  1.0000
  H   H279      1.0  0.22296  0.20060  0.72244  1.0000
  C   C167      1.0  0.44651  0.03378  0.58645  1.0000
  C   C168      1.0  0.24790  0.22418  0.64407  1.0000
  H   H280      1.0  0.03433  0.01728  0.72752  1.0000
  H   H281      1.0  0.34741  0.09946  0.71037  1.0000
  H   H282      1.0  0.26992  0.25618  0.64608  1.0000
  H   H283      1.0  0.32598  0.06745  0.72586  1.0000
  S   S54       1.0  0.43404  0.14656  0.72402  1.0000
  C   C169      1.0  0.17214  0.17509  0.73090  1.0000
  S   S55       1.0  0.44287  0.01758  0.55415  1.0000
  H   H284      1.0  0.17744  0.15619  0.73500  1.0000
  H   H285      1.0  0.17089  0.15266  0.71223  1.0000
  H   H286      1.0  0.05829  0.04785  0.71822  1.0000
  H   H287      1.0  0.08213  0.20249  0.63441  1.0000
  H   H288      1.0  0.29767  0.07358  0.61924  1.0000
  H   H289      1.0  0.43088  0.31580  0.54212  1.0000
  H   H290      1.0  0.41142  0.17481  0.65518  1.0000
  H   H291      1.0  0.44194  0.03108  0.61473  1.0000
  H   H292      1.0  0.20597  0.28354  0.64165  1.0000
  C   C170      1.0  0.22762  0.24014  0.65210  1.0000
  H   H293      1.0  0.26974  0.06773  0.62763  1.0000
  H   H294      1.0  0.37506  0.01521  0.61049  1.0000
  H   H295      1.0  0.28311  0.07258  0.73226  1.0000
  H   H296      1.0  0.07209  0.04224  0.66794  1.0000
  C   C171      1.0  0.47357  0.07430  0.58311  1.0000
  C   C172      1.0  0.22466  0.28278  0.64282  1.0000
  H   H297      1.0  0.07762  0.25577  0.66262  1.0000
  S   S56       1.0  0.12202  0.30911  0.67939  1.0000
  H   H298      1.0  0.42757  0.24990  0.65831  1.0000
  H   H299      1.0  0.24212  0.17280  0.72559  1.0000
  H   H300      1.0  0.43589  0.22155  0.66790  1.0000
  H   H301      1.0  0.37539  0.04628  0.56798  1.0000
  H   H302      1.0  0.44878  0.04322  0.73341  1.0000
  C   C173      1.0  0.30010  0.10970  0.69119  1.0000
  H   H303      1.0  0.26305  0.24689  0.66398  1.0000
  H   H304      1.0  0.43541  0.16351  0.66473  1.0000
  H   H305      1.0  0.41933  0.31153  0.62281  1.0000
  H   H306      1.0  0.28962  0.12778  0.69157  1.0000
  H   H307      1.0  0.22344  0.22889  0.66220  1.0000
  H   H308      1.0  0.03785  0.21892  0.70337  1.0000
  C   C174      1.0  0.02005  0.07275  0.69516  1.0000
  C   C175      1.0  0.43295  0.31862  0.53072  1.0000
  C   C176      1.0  0.05823  0.04525  0.68941  1.0000
  H   H309      1.0  0.48557  0.02185  0.53047  1.0000
  H   H310      1.0  0.05797  0.09234  0.68799  1.0000
  H   H311      1.0  0.37056  0.31949  0.70216  1.0000
  H   H312      1.0  0.05986  0.27923  0.71887  1.0000
  H   H313      1.0  0.13650  0.28528  0.72987  1.0000
  C   C177      1.0  0.39086  0.30253  0.52466  1.0000
  C   C178      1.0  0.04184  0.04892  0.71380  1.0000
  C   C179      1.0  0.04886  0.09757  0.70903  1.0000
  H   H314      1.0  0.03039  0.10699  0.70854  1.0000
  H   H315      1.0  0.03725  0.19829  0.68031  1.0000
  C   C180      1.0  0.35693  0.31533  0.54983  1.0000
  H   H316      1.0  0.48982  0.19390  0.71025  1.0000
  H   H317      1.0  0.49180  0.07360  0.58512  1.0000
  C   C181      1.0  0.00319  0.05640  0.69454  1.0000
  H   H318      1.0  0.33681  0.12560  0.69872  1.0000
  H   H319      1.0  0.04974  0.03012  0.68971  1.0000
  C   C182      1.0  0.02577  0.20051  0.63934  1.0000
  C   C183      1.0  0.33944  0.31045  0.69791  1.0000
  H   H320      1.0  0.02292  0.24626  0.70765  1.0000
  H   H321      1.0  0.46570  0.09283  0.57954  1.0000
  H   H322      1.0  0.00998  0.08467  0.70246  1.0000
  H   H323      1.0  0.36006  0.29592  0.55260  1.0000
  C   C184      1.0  0.43342  0.31446  0.68481  1.0000
  H   H324      1.0  0.37346  0.29673  0.52675  1.0000
  H   H325      1.0  0.20283  0.27135  0.71864  1.0000
  Fe  Fe25      1.0  0.39587  0.15741  0.73270  1.0000
  C   C185      1.0  0.14476  0.18043  0.73247  1.0000
  H   H326      1.0  0.18300  0.29710  0.72346  1.0000
  H   H327      1.0  0.02721  0.05889  0.72047  1.0000
  C   C186      1.0  0.17703  0.10952  0.73407  1.0000
  H   H328      1.0  0.32145  0.31930  0.69569  1.0000
  C   C187      1.0  0.19281  0.27975  0.72755  1.0000
  H   H329      1.0  0.48862  0.15027  0.71548  1.0000
  H   H330      1.0  0.32920  0.99726  0.56409  1.0000
  H   H331      1.0  0.13762  0.19946  0.73023  1.0000
  H   H332      1.0  0.01785  0.17772  0.68635  1.0000
  H   H333      1.0  0.43724  0.30161  0.52689  1.0000
  C   C188      1.0  0.49980  0.01802  0.52171  1.0000
  H   H334      1.0  0.01572  0.23619  0.69333  1.0000
  Fe  Fe26      1.0  0.48877  0.30185  0.73087  1.0000
  C   C189      1.0  0.40053  0.30116  0.50933  1.0000
  C   C190      1.0  0.00292  0.29030  0.68706  1.0000
  H   H335      1.0  0.47274  0.15891  0.73603  1.0000
  H   H336      1.0  0.00105  0.30293  0.69423  1.0000
  C   C191      1.0  0.02057  0.19373  0.67886  1.0000
  H   H337      1.0  0.26786  0.10271  0.73203  1.0000
  H   H338      1.0  0.41869  0.30500  0.50630  1.0000
  H   H339      1.0  0.48734  0.01585  0.55871  1.0000
  H   H340      1.0  0.47593  0.08873  0.51071  1.0000
  C   C192      1.0  0.49642  0.20810  0.73344  1.0000
  H   H341      1.0  0.48282  0.06530  0.52425  1.0000
  H   H342      1.0  0.34396  0.32071  0.54253  1.0000
  H   H343      1.0  0.00347  0.18621  0.66338  1.0000
  C   C193      1.0  0.01423  0.23041  0.65459  1.0000
  C   C194      1.0  0.17609  0.26383  0.73643  1.0000
  C   C195      1.0  0.47258  0.17776  0.73598  1.0000
  H   H344      1.0  0.21520  0.17881  0.73702  1.0000
  H   H345      1.0  0.33225  0.18009  0.73756  1.0000
  Fe  Fe27      1.0  0.38618  0.10802  0.73787  1.0000
  H   H346      1.0  0.17672  0.18476  0.73822  1.0000
  C   C196      1.0  0.13394  0.11892  0.73810  1.0000
  Fe  Fe28      1.0  0.12159  0.14746  0.96120  1.0000
  S   S57       1.0  0.12541  0.14865  0.93822  1.0000
  H   H347      1.0  0.05502  0.01363  0.92563  1.0000
  S   S58       1.0  0.09769  0.17374  0.97355  1.0000
  H   H348      1.0  0.14215  0.28767  0.77419  1.0000
  H   H349      1.0  0.18062  0.14789  0.81860  1.0000
  H   H350      1.0  0.47012  0.06443  0.77091  1.0000
  H   H351      1.0  0.19623  0.01594  0.95257  1.0000
  H   H352      1.0  0.39849  0.23231  0.74094  1.0000
  H   H353      1.0  0.30721  0.24565  0.76657  1.0000
  H   H354      1.0  0.13789  0.06657  0.93598  1.0000
  N   N14       1.0  0.15121  0.04928  0.95485  1.0000
  S   S59       1.0  0.39645  0.12941  0.75122  1.0000
  H   H355      1.0  0.11534  0.03740  0.80723  1.0000
  H   H356      1.0  0.00930  0.05229  0.95137  1.0000
  C   C197      1.0  0.03810  0.01111  0.92306  1.0000
  C   C198      1.0  0.05097  0.16862  0.94044  1.0000
  Fe  Fe29      1.0  0.23486  0.12297  0.78016  1.0000
  S   S60       1.0  0.20693  0.14934  0.79034  1.0000
  S   S61       1.0  0.26991  0.11570  0.78785  1.0000
  Fe  Fe30      1.0  0.20435  0.12093  0.75900  1.0000
  S   S62       1.0  0.17443  0.14763  0.76738  1.0000
  H   H357      1.0  0.15990  0.30289  0.94973  1.0000
  Fe  Fe31      1.0  0.20266  0.16699  0.76882  1.0000
  S   S63       1.0  0.20155  0.20536  0.76019  1.0000
  Fe  Fe32      1.0  0.18162  0.12723  0.78812  1.0000
  S   S64       1.0  0.15065  0.12105  0.80485  1.0000
  S   S65       1.0  0.23213  0.14190  0.75879  1.0000
  S   S66       1.0  0.20998  0.09906  0.77963  1.0000
  S   S67       1.0  0.26045  0.25513  0.78878  1.0000
  Fe  Fe33      1.0  0.10538  0.05381  0.90171  1.0000
  H   H358      1.0  0.24158  0.08790  0.83293  1.0000
  S   S68       1.0  0.08269  0.07386  0.91794  1.0000
  Fe  Fe34      1.0  0.10172  0.02251  0.88174  1.0000
  H   H359      1.0  0.25214  0.10412  0.81695  1.0000
  H   H360      1.0  0.32244  0.30320  0.77432  1.0000
  Fe  Fe35      1.0  0.14418  0.04574  0.87762  1.0000
  S   S69       1.0  0.17305  0.05899  0.86152  1.0000
  H   H361      1.0  0.25733  0.11133  0.83245  1.0000
  S   S70       1.0  0.10504  0.06029  0.87877  1.0000
  H   H362      1.0  0.31571  0.25570  0.74876  1.0000
  C   C199      1.0  0.14359  0.02521  0.84342  1.0000
  C   C200      1.0  0.10613  0.05039  0.81413  1.0000
  C   C201      1.0  0.05054  0.01717  0.87043  1.0000
  C   C202      1.0  0.04153  0.04122  0.86963  1.0000
  C   C203      1.0  0.01755  0.04992  0.86830  1.0000
  H   H363      1.0  0.14230  0.05339  0.82670  1.0000
  S   S71       1.0  0.27437  0.31063  0.76274  1.0000
  H   H364      1.0  0.05306  0.05306  0.86995  1.0000
  S   S72       1.0  0.21851  0.31398  0.77728  1.0000
  C   C204      1.0  0.15652  0.10240  0.82027  1.0000
  C   C205      1.0  0.17859  0.08777  0.82121  1.0000
  C   C206      1.0  0.18324  0.07398  0.83384  1.0000
  C   C207      1.0  0.16578  0.07451  0.84556  1.0000
  C   C208      1.0  0.14346  0.08861  0.84452  1.0000
  C   C209      1.0  0.13886  0.10254  0.83190  1.0000
  H   H365      1.0  0.19220  0.08735  0.81224  1.0000
  H   H366      1.0  0.20053  0.06304  0.83458  1.0000
  H   H367      1.0  0.13002  0.08939  0.85355  1.0000
  H   H368      1.0  0.12176  0.11388  0.83123  1.0000
  C   C210      1.0  0.21798  0.21912  0.76819  1.0000
  C   C211      1.0  0.22426  0.24060  0.76173  1.0000
  C   C212      1.0  0.23679  0.25205  0.76817  1.0000
  C   C213      1.0  0.24368  0.24172  0.78094  1.0000
  C   C214      1.0  0.23788  0.22006  0.78727  1.0000
  C   C215      1.0  0.22485  0.20892  0.78098  1.0000
  H   H369      1.0  0.21975  0.24835  0.75168  1.0000
  H   H370      1.0  0.24155  0.26864  0.76312  1.0000
  H   H371      1.0  0.24324  0.21199  0.79714  1.0000
  H   H372      1.0  0.22012  0.19249  0.78609  1.0000
  C   C216      1.0  0.33323  0.09513  0.75527  1.0000
  C   C217      1.0  0.31113  0.08984  0.75493  1.0000
  C   C218      1.0  0.29148  0.09669  0.76469  1.0000
  C   C219      1.0  0.29415  0.10779  0.77527  1.0000
  C   C220      1.0  0.31639  0.11252  0.77586  1.0000
  C   C221      1.0  0.33581  0.10666  0.76570  1.0000
  H   H373      1.0  0.47344  0.06622  0.74267  1.0000
  H   H374      1.0  0.27443  0.09269  0.76430  1.0000
  H   H375      1.0  0.31854  0.12088  0.78414  1.0000
  H   H376      1.0  0.35289  0.11041  0.76618  1.0000
  H   H377      1.0  0.18249  0.27470  0.75985  1.0000
  N   N15       1.0  0.46584  0.03842  0.75937  1.0000
  H   H378      1.0  0.44296  0.17743  0.75268  1.0000
  C   C222      1.0  0.12674  0.03367  0.94061  1.0000
  C   C223      1.0  0.01320  0.03853  0.94469  1.0000
  H   H379      1.0  0.18081  0.17180  0.82749  1.0000
  H   H380      1.0  0.20490  0.15781  0.85362  1.0000
  H   H381      1.0  0.47350  0.03556  0.78012  1.0000
  H   H382      1.0  0.15485  0.15951  0.82940  1.0000
  C   C224      1.0  0.09562  0.09376  0.92362  1.0000
  C   C225      1.0  0.11399  0.10380  0.91525  1.0000
  C   C226      1.0  0.12305  0.12065  0.91981  1.0000
  C   C227      1.0  0.11421  0.12707  0.93285  1.0000
  C   C228      1.0  0.09628  0.11650  0.94132  1.0000
  C   C229      1.0  0.08693  0.10000  0.93669  1.0000
  H   H383      1.0  0.12077  0.09905  0.90514  1.0000
  H   H384      1.0  0.13691  0.12878  0.91321  1.0000
  H   H385      1.0  0.08919  0.12140  0.95132  1.0000
  H   H386      1.0  0.07291  0.09205  0.94324  1.0000
  H   H387      1.0  0.21408  0.16537  0.83603  1.0000
  H   H388      1.0  0.24420  0.15966  0.85292  1.0000
  C   C230      1.0  0.30729  0.24212  0.75607  1.0000
  S   S73       1.0  0.10988  0.11650  0.97515  1.0000
  H   H389      1.0  0.22355  0.13909  0.82030  1.0000
  H   H390      1.0  0.34445  0.15126  0.74525  1.0000
  S   S74       1.0  0.02182  0.05377  0.98680  1.0000
  C   C231      1.0  0.12285  0.30014  0.95485  1.0000
  H   H391      1.0  0.20912  0.11480  0.82332  1.0000
  C   C232      1.0  0.13883  0.29225  0.73900  1.0000
  H   H392      1.0  0.16479  0.02665  0.97243  1.0000
  H   H393      1.0  0.15616  0.11811  0.75319  1.0000
  H   H394      1.0  0.24889  0.12952  0.85255  1.0000
  N   N16       1.0  0.31329  0.19699  0.76316  1.0000
  C   C233      1.0  0.14513  0.04860  0.94095  1.0000
  C   C234      1.0  0.28883  0.19607  0.76082  1.0000
  C   C235      1.0  0.33781  0.31086  0.76962  1.0000
  H   H395      1.0  0.10973  0.08655  0.81527  1.0000
  C   C236      1.0  0.02828  0.19755  0.96754  1.0000
  H   H396      1.0  0.13937  0.31509  0.76200  1.0000
  H   H397      1.0  0.10816  0.27766  0.93931  1.0000
  H   H398      1.0  0.33986  0.22000  0.77667  1.0000
  S   S75       1.0  0.08065  0.00569  0.87118  1.0000
  H   H399      1.0  0.43846  0.06976  0.75782  1.0000
  H   H400      1.0  0.07940  0.29450  0.93788  1.0000
  H   H401      1.0  0.49626  0.04143  0.74309  1.0000
  H   H402      1.0  0.13750  0.17442  0.74335  1.0000
  H   H403      1.0  0.01530  0.16716  0.97916  1.0000
  H   H404      1.0  0.42445  0.02816  0.77941  1.0000
  C   C237      1.0  0.02219  0.07111  0.89967  1.0000
  C   C238      1.0  0.10213  0.01690  0.83271  1.0000
  H   H405      1.0  0.20256  0.12721  0.87105  1.0000
  H   H406      1.0  0.17814  0.11540  0.86784  1.0000
  H   H407      1.0  0.14606  0.02548  0.82163  1.0000
  H   H408      1.0  0.18692  0.05408  0.94551  1.0000
  H   H409      1.0  0.47078  0.17199  0.75866  1.0000
  N   N17       1.0  0.01172  0.16800  0.95791  1.0000
  H   H410      1.0  0.02748  0.02475  0.94873  1.0000
  H   H411      1.0  0.20249  0.09645  0.87479  1.0000
  H   H412      1.0  0.20494  0.09399  0.85019  1.0000
  C   C239      1.0  0.31200  0.19926  0.77804  1.0000
  S   S76       1.0  0.09825  0.01739  0.90468  1.0000
  H   H413      1.0  0.14449  0.01524  0.96601  1.0000
  H   H414      1.0  0.03836  0.05488  0.92963  1.0000
  H   H415      1.0  0.34051  0.21760  0.75402  1.0000
  C   C240      1.0  0.03573  0.04698  0.90562  1.0000
  H   H416      1.0  0.25405  0.14938  0.83656  1.0000
  H   H417      1.0  0.14195  0.00650  0.84617  1.0000
  H   H418      1.0  0.12805  0.28073  0.95711  1.0000
  N   N18       1.0  0.10948  0.04052  0.82886  1.0000
  H   H419      1.0  0.31311  0.16016  0.74711  1.0000
  H   H420      1.0  0.12748  0.01772  0.94840  1.0000
  H   H421      1.0  0.13381  0.03504  0.85177  1.0000
  C   C241      1.0  0.09636  0.05669  0.83894  1.0000
  H   H422      1.0  0.08733  0.05356  0.81269  1.0000
  C   C242      1.0  0.11517  0.07350  0.80815  1.0000
  H   H423      1.0  0.17832  0.06109  0.96248  1.0000
  C   C243      1.0  0.07186  0.07117  0.83603  1.0000
  S   S77       1.0  0.35742  0.08651  0.74277  1.0000
  H   H424      1.0  0.43317  0.05365  0.78322  1.0000
  H   H425      1.0  0.05315  0.04965  0.90732  1.0000
  H   H426      1.0  0.06413  0.02555  0.84075  1.0000
  H   H427      1.0  0.05851  0.18484  0.93862  1.0000
  C   C244      1.0  0.32158  0.21765  0.75362  1.0000
  H   H428      1.0  0.48139  0.26506  0.78729  1.0000
  H   H429      1.0  0.10716  0.06983  0.83927  1.0000
  H   H430      1.0  0.01681  0.16603  0.93613  1.0000
  H   H431      1.0  0.03388  0.20567  0.95684  1.0000
  H   H432      1.0  0.15266  0.09886  0.95328  1.0000
  H   H433      1.0  0.28880  0.24477  0.75409  1.0000
  H   H434      1.0  0.13478  0.07032  0.80538  1.0000
  C   C245      1.0  0.14379  0.30822  0.94464  1.0000
  H   H435      1.0  0.11642  0.29525  0.91715  1.0000
  H   H436      1.0  0.04238  0.19754  0.97357  1.0000
  H   H437      1.0  0.48728  0.26346  0.76902  1.0000
  H   H438      1.0  0.06042  0.07379  0.84601  1.0000
  H   H439      1.0  0.06199  0.06309  0.83044  1.0000
  H   H440      1.0  0.07351  0.08911  0.83062  1.0000
  N   N19       1.0  0.20785  0.12985  0.84165  1.0000
  C   C246      1.0  0.18162  0.13714  0.84094  1.0000
  C   C247      1.0  0.21092  0.10891  0.85291  1.0000
  C   C248      1.0  0.22040  0.12321  0.82790  1.0000
  C   C249      1.0  0.21624  0.15045  0.84464  1.0000
  C   C250      1.0  0.17451  0.15516  0.82834  1.0000
  C   C251      1.0  0.19764  0.11265  0.86739  1.0000
  C   C252      1.0  0.24422  0.10573  0.82779  1.0000
  C   C253      1.0  0.24237  0.14675  0.84664  1.0000
  H   H441      1.0  0.17379  0.12161  0.84099  1.0000
  H   H442      1.0  0.17193  0.14486  0.85019  1.0000
  H   H443      1.0  0.22977  0.10210  0.85405  1.0000
  H   H444      1.0  0.01055  0.06852  0.86765  1.0000
  N   N20       1.0  0.02322  0.03468  0.91866  1.0000
  H   H445      1.0  0.17696  0.25725  0.96729  1.0000
  H   H446      1.0  0.32887  0.16018  0.76874  1.0000
  H   H447      1.0  0.11189  0.29633  0.75819  1.0000
  H   H448      1.0  0.07016  0.26815  0.97556  1.0000
  H   H449      1.0  0.04252  0.16073  0.96864  1.0000
  H   H450      1.0  0.17675  0.30130  0.74817  1.0000
  H   H451      1.0  0.16002  0.24395  0.76225  1.0000
  C   C254      1.0  0.35986  0.29629  0.76643  1.0000
  S   S78       1.0  0.16271  0.29913  0.98001  1.0000
  H   H452      1.0  0.08934  0.26117  0.96014  1.0000
  H   H453      1.0  0.34931  0.17756  0.75957  1.0000
  H   H454      1.0  0.43010  0.04469  0.75428  1.0000
  H   H455      1.0  0.07342  0.99795  0.83513  1.0000
  H   H456      1.0  0.03735  0.23504  0.98440  1.0000
  H   H457      1.0  0.09615  0.06245  0.97575  1.0000
  C   C255      1.0  0.42586  0.04676  0.77569  1.0000
  Fe  Fe36      1.0  0.13751  0.00605  0.90181  1.0000
  C   C256      1.0  0.44007  0.05044  0.76104  1.0000
  H   H458      1.0  0.11749  0.03720  0.98068  1.0000
  H   H459      1.0  0.27006  0.17844  0.77986  1.0000
  C   C257      1.0  0.33079  0.17504  0.76018  1.0000
  H   H460      1.0  0.30732  0.18322  0.78493  1.0000
  C   C258      1.0  0.08596  0.27245  0.96821  1.0000
  H   H461      1.0  0.16123  0.09146  0.93605  1.0000
  S   S79       1.0  0.14476  0.04227  0.90041  1.0000
  C   C259      1.0  0.11347  0.29874  0.74687  1.0000
  N   N21       1.0  0.09873  0.30726  0.95036  1.0000
  Fe  Fe37      1.0  0.43402  0.11689  0.74161  1.0000
  H   H462      1.0  0.01197  0.01911  0.89710  1.0000
  C   C260      1.0  0.00860  0.14279  0.96071  1.0000
  H   H463      1.0  0.00495  0.06990  0.89702  1.0000
  C   C261      1.0  0.15484  0.23281  0.97860  1.0000
  C   C262      1.0  0.02351  0.17446  0.94328  1.0000
  C   C263      1.0  0.17164  0.06218  0.95258  1.0000
  C   C264      1.0  0.02114  0.04960  0.92971  1.0000
  H   H464      1.0  0.02891  0.00183  0.93261  1.0000
  Fe  Fe38      1.0  0.25405  0.29411  0.78195  1.0000
  H   H465      1.0  0.05385  0.99996  0.90266  1.0000
  H   H466      1.0  0.03294  0.07803  0.88997  1.0000
  C   C265      1.0  0.13650  0.23959  0.74914  1.0000
  C   C266      1.0  0.14639  0.25550  0.75628  1.0000
  H   H467      1.0  0.10851  0.04429  0.94164  1.0000
  C   C267      1.0  0.17948  0.00910  0.95481  1.0000
  C   C268      1.0  0.47671  0.04671  0.74481  1.0000
  H   H468      1.0  0.07031  0.02351  0.82240  1.0000
  H   H469      1.0  0.10788  0.08151  0.79848  1.0000
  C   C269      1.0  0.11118  0.04941  0.97163  1.0000
  S   S80       1.0  0.15331  0.14633  0.97124  1.0000
  H   H470      1.0  0.16286  0.30662  0.77194  1.0000
  H   H471      1.0  0.12654  0.22797  0.75708  1.0000
  C   C270      1.0  0.33495  0.20311  0.78202  1.0000
  H   H472      1.0  0.29740  0.21372  0.78110  1.0000
  C   C271      1.0  0.46671  0.01233  0.76220  1.0000
  H   H473      1.0  0.01849  0.19368  0.93979  1.0000
  H   H474      1.0  0.10527  0.00876  0.84333  1.0000
  S   S81       1.0  0.20476  0.10759  0.73923  1.0000
  H   H475      1.0  0.16333  0.21894  0.97268  1.0000
  H   H476      1.0  0.10407  0.03997  0.96533  1.0000
  C   C272      1.0  0.07594  0.01646  0.83259  1.0000
  C   C273      1.0  0.10694  0.30863  0.92369  1.0000
  H   H477      1.0  0.27605  0.21191  0.76360  1.0000
  H   H478      1.0  0.05678  0.16097  0.93077  1.0000
  C   C274      1.0  0.15579  0.11574  0.74281  1.0000
  H   H479      1.0  0.05954  0.15594  0.94845  1.0000
  C   C275      1.0  0.01156  0.01047  0.86897  1.0000
  H   H480      1.0  0.13048  0.02712  0.93059  1.0000
  C   C276      1.0  0.47752  0.04582  0.76969  1.0000
  C   C277      1.0  0.09798  0.29599  0.93817  1.0000
  H   H481      1.0  0.11759  0.12389  0.74487  1.0000
  Fe  Fe39      1.0  0.12821  0.17009  0.98500  1.0000
  C   C278      1.0  0.16815  0.28731  0.75496  1.0000
  C   C279      1.0  0.13575  0.03655  0.82939  1.0000
  C   C280      1.0  0.49194  0.27084  0.77729  1.0000
  C   C281      1.0  0.38004  0.30595  0.76052  1.0000
  H   H482      1.0  0.36134  0.27745  0.76865  1.0000
  H   H483      1.0  0.01951  0.08414  0.90669  1.0000
  C   C282      1.0  0.03137  0.12404  0.95939  1.0000
  C   C283      1.0  0.16637  0.08849  0.94644  1.0000
  H   H484      1.0  0.17479  0.00600  0.94516  1.0000
  C   C284      1.0  0.13061  0.06270  0.96344  1.0000
  C   C285      1.0  0.15913  0.02518  0.96264  1.0000
  H   H485      1.0  0.10093  0.26804  0.97420  1.0000
  H   H486      1.0  0.16268  0.02558  0.84285  1.0000
  H   H487      1.0  0.02650  0.10641  0.96227  1.0000
  H   H488      1.0  0.49723  0.20846  0.74442  1.0000
  H   H489      1.0  0.10646  0.31760  0.74348  1.0000
  C   C286      1.0  0.46064  0.18259  0.75055  1.0000
  H   H490      1.0  0.30920  0.08026  0.74721  1.0000
  H   H491      1.0  0.13198  0.26202  0.76427  1.0000
  H   H492      1.0  0.04039  0.12511  0.94858  1.0000
  H   H493      1.0  0.16127  0.04307  0.93356  1.0000
  H   H494      1.0  0.18271  0.09583  0.94530  1.0000
  H   H495      1.0  0.12420  0.24980  0.74202  1.0000
  S   S82       1.0  0.46129  0.10961  0.75601  1.0000
  H   H496      1.0  0.48630  0.29017  0.77484  1.0000
  C   C287      1.0  0.32979  0.16646  0.74671  1.0000
  S   S83       1.0  0.14078  0.00826  0.87901  1.0000
  H   H497      1.0  0.40745  0.05676  0.77542  1.0000
  H   H498      1.0  0.00824  0.06630  0.92776  1.0000
  H   H499      1.0  0.07909  0.30853  0.97103  1.0000
  H   H500      1.0  0.29093  0.15854  0.77007  1.0000
  S   S84       1.0  0.40758  0.28698  0.75744  1.0000
  H   H501      1.0  0.13704  0.06970  0.97133  1.0000
  H   H502      1.0  0.45961  0.00667  0.77316  1.0000
  H   H503      1.0  0.35001  0.18852  0.78004  1.0000
  H   H504      1.0  0.12162  0.07827  0.95693  1.0000
  H   H505      1.0  0.34247  0.31098  0.73932  1.0000
  H   H506      1.0  0.18746  0.24830  0.74161  1.0000
  H   H507      1.0  0.26411  0.17207  0.76401  1.0000
  H   H508      1.0  0.45740  0.20148  0.75141  1.0000
  C   C288      1.0  0.49192  0.10686  0.74989  1.0000
  C   C289      1.0  0.02482  0.17212  0.96860  1.0000
  C   C290      1.0  0.08094  0.29880  0.96229  1.0000
  C   C291      1.0  0.03559  0.00189  0.86996  1.0000
  H   H509      1.0  0.04375  0.12466  0.96638  1.0000
  H   H510      1.0  0.09396  0.04672  0.84960  1.0000
  C   C292      1.0  0.27799  0.17516  0.76927  1.0000
  Fe  Fe40      1.0  0.14019  0.11623  0.98590  1.0000
  H   H511      1.0  0.33201  0.20383  0.79324  1.0000
  H   H512      1.0  0.45457  0.00721  0.75643  1.0000
  C   C293      1.0  0.00252  0.03451  0.86805  1.0000
  H   H513      1.0  0.04031  0.03640  0.89724  1.0000
  N   N22       1.0  0.15678  0.27505  0.74678  1.0000
  C   C294      1.0  0.04463  0.99330  0.91289  1.0000
  H   H514      1.0  0.12247  0.30660  0.96463  1.0000
  C   C295      1.0  0.15178  0.29966  0.76639  1.0000
  S   S85       1.0  0.01349  0.31093  0.97202  1.0000
  H   H515      1.0  0.28786  0.19694  0.74973  1.0000
  C   C296      1.0  0.16262  0.25447  0.97562  1.0000
  H   H516      1.0  0.11311  0.00455  0.82584  1.0000
  H   H517      1.0  0.49983  0.99199  0.76902  1.0000
  H   H518      1.0  0.06297  0.30233  0.95930  1.0000
  C   C297      1.0  0.15216  0.27238  0.98351  1.0000
  H   H519      1.0  0.14782  0.29937  0.93544  1.0000
  H   H520      1.0  0.08173  0.99360  0.94712  1.0000
  H   H521      1.0  0.09177  0.31852  0.91846  1.0000
  H   H522      1.0  0.06784  0.99388  0.97828  1.0000
  H   H523      1.0  0.20978  0.31207  0.97898  1.0000
  H   H524      1.0  0.15103  0.22798  0.74347  1.0000
  C   C298      1.0  0.02531  0.31583  0.98582  1.0000
  H   H525      1.0  0.32122  0.21641  0.74272  1.0000
  S   S86       1.0  0.25898  0.31906  0.79499  1.0000
  C   C299      1.0  0.49130  0.99652  0.75958  1.0000
  H   H526      1.0  0.10127  0.28912  0.74397  1.0000
  H   H527      1.0  0.11939  0.32041  0.92336  1.0000
  H   H528      1.0  0.18309  0.99172  0.96142  1.0000
  H   H529      1.0  0.01183  0.20859  0.97209  1.0000
  Fe  Fe41      1.0  0.43648  0.29725  0.74031  1.0000
  H   H530      1.0  0.00008  0.99848  0.86879  1.0000
  H   H531      1.0  0.23647  0.30771  0.98650  1.0000
  S   S87       1.0  0.47039  0.27098  0.73836  1.0000
  S   S88       1.0  0.41489  0.62285  0.19888  1.0000
  S   S89       1.0  0.40863  0.63143  0.16609  1.0000
  C   C300      1.0  0.15936  0.57310  0.05934  1.0000
  Fe  Fe42      1.0  0.39003  0.60079  0.17100  1.0000
  S   S90       1.0  0.37395  0.59050  0.15458  1.0000
  Fe  Fe43      1.0  0.13487  0.51874  0.04218  1.0000
  S   S91       1.0  0.15315  0.49780  0.05972  1.0000
  S   S92       1.0  0.15504  0.53101  0.02162  1.0000
  Fe  Fe44      1.0  0.08548  0.51692  0.05791  1.0000
  S   S93       1.0  0.09925  0.49597  0.07686  1.0000
  S   S94       1.0  0.04736  0.52728  0.05454  1.0000
  Fe  Fe45      1.0  0.12549  0.52043  0.07291  1.0000
  S   S95       1.0  0.12940  0.54030  0.08958  1.0000
  Fe  Fe46      1.0  0.12554  0.47534  0.06204  1.0000
  S   S96       1.0  0.13048  0.43597  0.06403  1.0000
  S   S97       1.0  0.10925  0.54307  0.05496  1.0000
  S   S98       1.0  0.10971  0.49471  0.04351  1.0000
  Fe  Fe47      1.0  0.19652  0.62453  0.13778  1.0000
  S   S99       1.0  0.21107  0.58586  0.14152  1.0000
  H   H532      1.0  0.19206  0.36954  0.01296  1.0000
  Fe  Fe48      1.0  0.24029  0.63560  0.11821  1.0000
  S   S100      1.0  0.25873  0.59789  0.12015  1.0000
  Fe  Fe49      1.0  0.11269  0.59976  0.21865  1.0000
  Fe  Fe50      1.0  0.22287  0.59062  0.11850  1.0000
  S   S101      1.0  0.22200  0.56408  0.10486  1.0000
  Fe  Fe51      1.0  0.24546  0.59613  0.14283  1.0000
  S   S102      1.0  0.26506  0.58403  0.16133  1.0000
  S   S103      1.0  0.20574  0.62882  0.11473  1.0000
  S   S104      1.0  0.22971  0.63419  0.14087  1.0000
  H   H533      1.0  0.15066  0.55770  0.06056  1.0000
  H   H534      1.0  0.18750  0.59298  0.20298  1.0000
  H   H535      1.0  0.17292  0.59415  0.18911  1.0000
  H   H536      1.0  0.02572  0.37392  0.05411  1.0000
  H   H537      1.0  0.30947  0.63486  0.10901  1.0000
  H   H538      1.0  0.37354  0.49710  0.20295  1.0000
  C   C301      1.0  0.15542  0.54603  0.09401  1.0000
  C   C302      1.0  0.15317  0.56343  0.10222  1.0000
  C   C303      1.0  0.17332  0.56913  0.10566  1.0000
  C   C304      1.0  0.19602  0.55739  0.10095  1.0000
  C   C305      1.0  0.19827  0.53990  0.09278  1.0000
  C   C306      1.0  0.17810  0.53414  0.08938  1.0000
  H   H539      1.0  0.13571  0.57265  0.10591  1.0000
  H   H540      1.0  0.17129  0.58258  0.11197  1.0000
  H   H541      1.0  0.21574  0.53061  0.08916  1.0000
  H   H542      1.0  0.18006  0.52049  0.08323  1.0000
  C   C307      1.0  0.03669  0.50293  0.05234  1.0000
  C   C308      1.0  0.04646  0.48022  0.05813  1.0000
  S   S105      1.0  0.36681  0.61292  0.18964  1.0000
  H   H543      1.0  0.48149  0.58354  0.19712  1.0000
  C   C309      1.0  0.19873  0.59833  0.05548  1.0000
  H   H544      1.0  0.06104  0.47745  0.06388  1.0000
  H   H545      1.0  0.23143  0.34593  0.01726  1.0000
  S   S106      1.0  0.12949  0.33605  0.01048  1.0000
  H   H546      1.0  0.07604  0.51900  0.01462  1.0000
  C   C310      1.0  0.13630  0.54492  0.00946  1.0000
  C   C311      1.0  0.11167  0.54921  0.01327  1.0000
  C   C312      1.0  0.16460  0.58982  0.01967  1.0000
  H   H547      1.0  0.16016  0.54001  0.21838  1.0000
  H   H548      1.0  0.16808  0.56766  0.21692  1.0000
  C   C313      1.0  0.49787  0.58930  0.19227  1.0000
  H   H549      1.0  0.10394  0.54409  0.02383  1.0000
  H   H550      1.0  0.17130  0.56809  0.06718  1.0000
  S   S107      1.0  0.14545  0.40190  0.00609  1.0000
  C   C314      1.0  0.07174  0.51175  0.00608  1.0000
  C   C315      1.0  0.14093  0.41074  0.02238  1.0000
  C   C316      1.0  0.14986  0.43033  0.02353  1.0000
  C   C317      1.0  0.14644  0.43825  0.03624  1.0000
  C   C318      1.0  0.13462  0.42624  0.04801  1.0000
  C   C319      1.0  0.12604  0.40634  0.04692  1.0000
  C   C320      1.0  0.12890  0.39877  0.03409  1.0000
  H   H551      1.0  0.15326  0.45349  0.03699  1.0000
  H   H552      1.0  0.11682  0.39705  0.05600  1.0000
  H   H553      1.0  0.12188  0.38369  0.03329  1.0000
  C   C321      1.0  0.34336  0.58990  0.15640  1.0000
  C   C322      1.0  0.32770  0.59508  0.16829  1.0000
  C   C323      1.0  0.30369  0.59338  0.16968  1.0000
  C   C324      1.0  0.29495  0.58730  0.15897  1.0000
  C   C325      1.0  0.31038  0.58299  0.14687  1.0000
  C   C326      1.0  0.33454  0.58402  0.14567  1.0000
  H   H554      1.0  0.33414  0.60010  0.17647  1.0000
  H   H555      1.0  0.29181  0.59696  0.17901  1.0000
  H   H556      1.0  0.30386  0.57818  0.13858  1.0000
  H   H557      1.0  0.34647  0.58007  0.13640  1.0000
  H   H558      1.0  0.45891  0.65179  0.19379  1.0000
  S   S108      1.0  0.00464  0.44082  0.04885  1.0000
  Fe  Fe52      1.0  0.38740  0.64171  0.18573  1.0000
  H   H559      1.0  0.14211  0.60102  0.03740  1.0000
  H   H560      1.0  0.36282  0.61843  0.21748  1.0000
  C   C327      1.0  0.15027  0.60393  0.16237  1.0000
  C   C328      1.0  0.14917  0.62766  0.16268  1.0000
  C   C329      1.0  0.13647  0.63764  0.17409  1.0000
  H   H561      1.0  0.15952  0.59630  0.15340  1.0000
  C   C330      1.0  0.18254  0.54909  0.19905  1.0000
  H   H562      1.0  0.04411  0.44359  0.06163  1.0000
  C   C331      1.0  0.49854  0.60464  0.17975  1.0000
  H   H563      1.0  0.21845  0.57050  0.17051  1.0000
  H   H564      1.0  0.30179  0.55874  0.22352  1.0000
  C   C332      1.0  0.03691  0.46104  0.05683  1.0000
  C   C333      1.0  0.10675  0.56701  0.98969  1.0000
  H   H565      1.0  0.16517  0.54840  0.99278  1.0000
  C   C334      1.0  0.35598  0.60999  0.22752  1.0000
  H   H566      1.0  0.03929  0.51566  0.99692  1.0000
  Fe  Fe53      1.0  0.39635  0.59257  0.20092  1.0000
  H   H567      1.0  0.22783  0.52580  0.17827  1.0000
  C   C335      1.0  0.19072  0.58918  0.19232  1.0000
  H   H568      1.0  0.09831  0.45254  0.03171  1.0000
  H   H569      1.0  0.07141  0.44165  0.03551  1.0000
  C   C336      1.0  0.20453  0.56087  0.17653  1.0000
  S   S109      1.0  0.16432  0.64499  0.14923  1.0000
  H   H570      1.0  0.18734  0.61127  0.06179  1.0000
  S   S110      1.0  0.11748  0.58169  0.20032  1.0000
  H   H571      1.0  0.11726  0.63127  0.19458  1.0000
  H   H572      1.0  0.03921  0.53785  0.00669  1.0000
  H   H573      1.0  0.18950  0.54076  0.22051  1.0000
  C   C337      1.0  0.12765  0.59981  0.18540  1.0000
  H   H574      1.0  0.14186  0.48951  0.99531  1.0000
  H   H575      1.0  0.23877  0.55999  0.18873  1.0000
  H   H576      1.0  0.05235  0.47100  0.01948  1.0000
  H   H577      1.0  0.00657  0.36543  0.01144  1.0000
  Fe  Fe54      1.0  0.11690  0.64372  0.22880  1.0000
  H   H578      1.0  0.07960  0.52173  0.99636  1.0000
  N   N23       1.0  0.33636  0.53868  0.20367  1.0000
  C   C338      1.0  0.34907  0.53722  0.18918  1.0000
  C   C339      1.0  0.31425  0.52847  0.20549  1.0000
  C   C340      1.0  0.35162  0.52502  0.21419  1.0000
  C   C341      1.0  0.33056  0.56394  0.20577  1.0000
  C   C342      1.0  0.14613  0.55176  0.99578  1.0000
  H   H579      1.0  0.11807  0.51293  0.99176  1.0000
  C   C343      1.0  0.36148  0.49908  0.21279  1.0000
  C   C344      1.0  0.31607  0.56900  0.21982  1.0000
  H   H580      1.0  0.35155  0.51921  0.18672  1.0000
  C   C345      1.0  0.30262  0.65219  0.14655  1.0000
  H   H581      1.0  0.30661  0.52473  0.21656  1.0000
  H   H582      1.0  0.31852  0.51107  0.20199  1.0000
  H   H583      1.0  0.36691  0.53347  0.21412  1.0000
  H   H584      1.0  0.34156  0.52521  0.22481  1.0000
  H   H585      1.0  0.34713  0.57073  0.20505  1.0000
  H   H586      1.0  0.32166  0.57559  0.19740  1.0000
  H   H587      1.0  0.05040  0.35628  0.99483  1.0000
  H   H588      1.0  0.24241  0.64083  0.23055  1.0000
  C   C346      1.0  0.02074  0.62019  0.98925  1.0000
  H   H589      1.0  0.18649  0.65613  0.23603  1.0000
  H   H590      1.0  0.26593  0.65005  0.15481  1.0000
  C   C347      1.0  0.02327  0.37944  0.03183  1.0000
  Fe  Fe55      1.0  0.12778  0.37441  0.00153  1.0000
  C   C348      1.0  0.03631  0.36934  0.04432  1.0000
  H   H591      1.0  0.17572  0.60346  0.01736  1.0000
  N   N24       1.0  0.17275  0.57761  0.04497  1.0000
  H   H592      1.0  0.17454  0.57383  0.01553  1.0000
  C   C349      1.0  0.18815  0.35252  0.01164  1.0000
  S   S111      1.0  0.41879  0.57808  0.18248  1.0000
  C   C350      1.0  0.29428  0.54332  0.19764  1.0000
  H   H593      1.0  0.28700  0.56034  0.20132  1.0000
  H   H594      1.0  0.18815  0.56872  0.17188  1.0000
  H   H595      1.0  0.16020  0.35171  0.02933  1.0000
  H   H596      1.0  0.10624  0.44592  0.99594  1.0000
  C   C351      1.0  0.07010  0.47379  0.02058  1.0000
  H   H597      1.0  0.18909  0.53022  0.19830  1.0000
  H   H598      1.0  0.06668  0.48507  0.02875  1.0000
  H   H599      1.0  0.21025  0.57008  0.21669  1.0000
  N   N25       1.0  0.20958  0.33810  0.00419  1.0000
  C   C352      1.0  0.14010  0.59364  0.06391  1.0000
  H   H600      1.0  0.11693  0.46446  0.00954  1.0000
  C   C353      1.0  0.22684  0.56502  0.20969  1.0000
  H   H601      1.0  0.32929  0.62237  0.12117  1.0000
  H   H602      1.0  0.33098  0.64094  0.23234  1.0000
  C   C354      1.0  0.04464  0.51873  0.00638  1.0000
  H   H603      1.0  0.20161  0.54075  0.06140  1.0000
  C   C355      1.0  0.20571  0.60669  0.18341  1.0000
  H   H604      1.0  0.04241  0.35008  0.04513  1.0000
  S   S112      1.0  0.38646  0.57004  0.22110  1.0000
  H   H605      1.0  0.23631  0.58001  0.20647  1.0000
  C   C356      1.0  0.02737  0.59749  0.23678  1.0000
  H   H606      1.0  0.21710  0.52685  0.04724  1.0000
  C   C357      1.0  0.17498  0.54974  0.21457  1.0000
  H   H607      1.0  0.19754  0.52582  0.17618  1.0000
  H   H608      1.0  0.22473  0.60141  0.18449  1.0000
  H   H609      1.0  0.03457  0.50974  0.01561  1.0000
  H   H610      1.0  0.12371  0.59489  0.05951  1.0000
  H   H611      1.0  0.38630  0.53410  0.19237  1.0000
  C   C358      1.0  0.21239  0.53559  0.17332  1.0000
  C   C359      1.0  0.04383  0.34025  0.99568  1.0000
  C   C360      1.0  0.09694  0.56030  0.00341  1.0000
  H   H612      1.0  0.13493  0.65612  0.17418  1.0000
  H   H613      1.0  0.11132  0.49118  0.01579  1.0000
  C   C361      1.0  0.35311  0.65489  0.14906  1.0000
  H   H614      1.0  0.34715  0.48898  0.21391  1.0000
  C   C362      1.0  0.01810  0.50630  0.04475  1.0000
  H   H615      1.0  0.17513  0.61423  0.04096  1.0000
  H   H616      1.0  0.21786  0.53632  0.16201  1.0000
  H   H617      1.0  0.37213  0.49098  0.22119  1.0000
  C   C363      1.0  0.00887  0.48710  0.04324  1.0000
  S   S113      1.0  0.08701  0.63294  0.22201  1.0000
  H   H618      1.0  0.13511  0.59029  0.07529  1.0000
  H   H619      1.0  0.37182  0.56349  0.18600  1.0000
  H   H620      1.0  0.14945  0.59645  0.01382  1.0000
  H   H621      1.0  0.07790  0.56372  0.00642  1.0000
  H   H622      1.0  0.20380  0.60888  0.17237  1.0000
  H   H623      1.0  0.27942  0.53364  0.19942  1.0000
  H   H624      1.0  0.03581  0.37366  0.02273  1.0000
  H   H625      1.0  0.01251  0.40722  0.00833  1.0000
  H   H626      1.0  0.05256  0.37697  0.04281  1.0000
  H   H627      1.0  0.21530  0.60530  0.05147  1.0000
  N   N26       1.0  0.08201  0.48585  0.00717  1.0000
  H   H628      1.0  0.30701  0.58767  0.21878  1.0000
  H   H629      1.0  0.02172  0.39884  0.03041  1.0000
  C   C364      1.0  0.36505  0.58647  0.23209  1.0000
  H   H630      1.0  0.32776  0.56562  0.22781  1.0000
  S   S114      1.0  0.14326  0.61247  0.22313  1.0000
  H   H631      1.0  0.19909  0.62419  0.18660  1.0000
  H   H632      1.0  0.30587  0.65528  0.15659  1.0000
  S   S115      1.0  0.08893  0.38193  0.00010  1.0000
  C   C365      1.0  0.07685  0.47717  0.99504  1.0000
  H   H633      1.0  0.29747  0.62836  0.12664  1.0000
  C   C366      1.0  0.20831  0.54415  0.05025  1.0000
  C   C367      1.0  0.13912  0.59007  0.17365  1.0000
  C   C368      1.0  0.08352  0.44998  0.02700  1.0000
  H   H634      1.0  0.14009  0.57167  0.17345  1.0000
  S   S116      1.0  0.47326  0.61552  0.17141  1.0000
  H   H635      1.0  0.33824  0.54851  0.18153  1.0000
  H   H636      1.0  0.22779  0.53573  0.19940  1.0000
  H   H637      1.0  0.20384  0.58158  0.06225  1.0000
  H   H638      1.0  0.15929  0.43960  0.01453  1.0000
  H   H639      1.0  0.38118  0.54210  0.17491  1.0000
  N   N27       1.0  0.20068  0.56362  0.19154  1.0000
  Fe  Fe56      1.0  0.43529  0.61020  0.17947  1.0000
  C   C369      1.0  0.12620  0.62364  0.18558  1.0000
  C   C370      1.0  0.15471  0.58472  0.03517  1.0000
  C   C371      1.0  0.33807  0.62281  0.23600  1.0000
  C   C372      1.0  0.10827  0.48307  0.00730  1.0000
  H   H640      1.0  0.37904  0.65062  0.22868  1.0000
  H   H641      1.0  0.22219  0.55503  0.04818  1.0000
  H   H642      1.0  0.14621  0.61062  0.06117  1.0000
  H   H643      1.0  0.30011  0.54641  0.18634  1.0000
  C   C373      1.0  0.18689  0.59683  0.04313  1.0000
  H   H644      1.0  0.18893  0.34045  0.03387  1.0000
  H   H645      1.0  0.19756  0.55716  0.03072  1.0000
  C   C374      1.0  0.22403  0.55521  0.19692  1.0000
  H   H646      1.0  0.14364  0.57106  0.03650  1.0000
  H   H647      1.0  0.09035  0.43745  0.01968  1.0000
  H   H648      1.0  0.20099  0.59551  0.03397  1.0000
  C   C375      1.0  0.18842  0.55497  0.04153  1.0000
  H   H649      1.0  0.16610  0.55434  0.19419  1.0000
  Fe  Fe57      1.0  0.09151  0.34326  0.00705  1.0000
  H   H650      1.0  0.01088  0.52377  0.04000  1.0000
  H   H651      1.0  0.37226  0.64701  0.14820  1.0000
  C   C376      1.0  0.37346  0.54464  0.18566  1.0000
  H   H652      1.0  0.17750  0.54134  0.04237  1.0000
  H   H653      1.0  0.17340  0.35721  0.00546  1.0000
  C   C377      1.0  0.01782  0.46451  0.04958  1.0000
  H   H654      1.0  0.23840  0.55135  0.21598  1.0000
  H   H655      1.0  0.01384  0.33678  0.03051  1.0000
  C   C378      1.0  0.34404  0.65179  0.13613  1.0000
  C   C379      1.0  0.17768  0.34091  0.02600  1.0000
  C   C380      1.0  0.08822  0.45166  0.99316  1.0000
  C   C381      1.0  0.12287  0.49357  0.99396  1.0000
  H   H656      1.0  0.07676  0.43930  0.99912  1.0000
  C   C382      1.0  0.31256  0.63487  0.11963  1.0000
  H   H657      1.0  0.05744  0.47818  0.99575  1.0000
  H   H658      1.0  0.49390  0.65606  0.17810  1.0000
  H   H659      1.0  0.01556  0.57821  0.22398  1.0000
  H   H660      1.0  0.01177  0.54865  0.19117  1.0000
  H   H661      1.0  0.30643  0.63284  0.14717  1.0000
  S   S117      1.0  0.06216  0.32640  0.01972  1.0000
  H   H662      1.0  0.34659  0.63254  0.13638  1.0000
  H   H663      1.0  0.01286  0.60663  0.99689  1.0000
  H   H664      1.0  0.17881  0.65536  0.20255  1.0000
  H   H665      1.0  0.03658  0.65073  0.21589  1.0000
  H   H666      1.0  0.34432  0.64532  0.15860  1.0000
  C   C383      1.0  0.01007  0.59012  0.23143  1.0000
  C   C384      1.0  0.23552  0.65451  0.23729  1.0000
  H   H667      1.0  0.04601  0.59130  0.23341  1.0000
  H   H668      1.0  0.00623  0.34155  0.04759  1.0000
  Fe  Fe58      1.0  0.13757  0.32972  0.98849  1.0000
  H   H669      1.0  0.03561  0.62407  0.99337  1.0000
  H   H670      1.0  0.01130  0.65658  0.20739  1.0000
  C   C385      1.0  0.22792  0.33040  0.01373  1.0000
  C   C386      1.0  0.21884  0.35408  0.99162  1.0000
  H   H671      1.0  0.22484  0.36868  0.99475  1.0000
  C   C387      1.0  0.00027  0.34723  0.03741  1.0000
  H   H672      1.0  0.00186  0.50965  0.08142  1.0000
  H   H673      1.0  0.35646  0.65790  0.12694  1.0000
  H   H674      1.0  0.26090  0.32580  0.99855  1.0000
  H   H675      1.0  0.00774  0.63679  0.98840  1.0000
  N   N28       1.0  0.47175  0.49866  0.46166  1.0000
  Fe  Fe59      1.0  0.13354  0.59553  0.24491  1.0000
  H   H676      1.0  0.23487  0.62085  0.26969  1.0000
  H   H677      1.0  0.49187  0.52216  0.48606  1.0000
  S   S118      1.0  0.45290  0.63517  0.45213  1.0000
  S   S119      1.0  0.28010  0.65454  0.32127  1.0000
  H   H678      1.0  0.38724  0.60132  0.37859  1.0000
  C   C388      1.0  0.44296  0.47024  0.47298  1.0000
  H   H679      1.0  0.44127  0.56695  0.41392  1.0000
  H   H680      1.0  0.39738  0.38034  0.43125  1.0000
  S   S120      1.0  0.10873  0.62800  0.25101  1.0000
  H   H681      1.0  0.39219  0.42390  0.44967  1.0000
  S   S121      1.0  0.16714  0.57367  0.25248  1.0000
  C   C389      1.0  0.47917  0.51092  0.43505  1.0000
  S   S122      1.0  0.04169  0.62164  0.25389  1.0000
  H   H682      1.0  0.35650  0.61790  0.39541  1.0000
  H   H683      1.0  0.37298  0.63302  0.34303  1.0000
  S   S123      1.0  0.26822  0.59241  0.31874  1.0000
  Fe  Fe60      1.0  0.29580  0.61150  0.28096  1.0000
  S   S124      1.0  0.28432  0.57667  0.28783  1.0000
  S   S125      1.0  0.30721  0.62917  0.25949  1.0000
  Fe  Fe61      1.0  0.25208  0.59702  0.29934  1.0000
  S   S126      1.0  0.21299  0.59760  0.29972  1.0000
  Fe  Fe62      1.0  0.30150  0.57492  0.30664  1.0000
  S   S127      1.0  0.32668  0.54288  0.31552  1.0000
  C   C390      1.0  0.44982  0.40386  0.45395  1.0000
  S   S128      1.0  0.31580  0.60806  0.29848  1.0000
  Fe  Fe63      1.0  0.44038  0.48258  0.38179  1.0000
  S   S129      1.0  0.42051  0.51555  0.38957  1.0000
  S   S130      1.0  0.47875  0.48166  0.37252  1.0000
  Fe  Fe64      1.0  0.39878  0.45751  0.39110  1.0000
  S   S131      1.0  0.37609  0.48832  0.40010  1.0000
  S   S132      1.0  0.38047  0.42664  0.39376  1.0000
  Fe  Fe65      1.0  0.39009  0.51008  0.38056  1.0000
  S   S133      1.0  0.36402  0.54113  0.37154  1.0000
  Fe  Fe66      1.0  0.40835  0.49107  0.40830  1.0000
  C   C391      1.0  0.47504  0.51782  0.44948  1.0000
  S   S134      1.0  0.41103  0.47910  0.37094  1.0000
  S   S135      1.0  0.42983  0.45820  0.40105  1.0000
  H   H684      1.0  0.37745  0.53274  0.41285  1.0000
  H   H685      1.0  0.32014  0.64911  0.34040  1.0000
  Fe  Fe67      1.0  0.43913  0.60175  0.45466  1.0000
  C   C392      1.0  0.42420  0.56598  0.43499  1.0000
  C   C393      1.0  0.25908  0.60852  0.25261  1.0000
  S   S136      1.0  0.46433  0.61809  0.48385  1.0000
  S   S137      1.0  0.40646  0.49646  0.43033  1.0000
  Fe  Fe68      1.0  0.43365  0.63837  0.47348  1.0000
  H   H686      1.0  0.20369  0.61713  0.25921  1.0000
  H   H687      1.0  0.38935  0.65158  0.30219  1.0000
  H   H688      1.0  0.46579  0.39761  0.44673  1.0000
  C   C394      1.0  0.47136  0.50911  0.47437  1.0000
  C   C395      1.0  0.43163  0.55711  0.42257  1.0000
  H   H689      1.0  0.19074  0.64098  0.27460  1.0000
  H   H690      1.0  0.45875  0.52624  0.47421  1.0000
  Fe  Fe69      1.0  0.08026  0.61483  0.24380  1.0000
  H   H691      1.0  0.39990  0.42834  0.41795  1.0000
  H   H692      1.0  0.45504  0.39975  0.46441  1.0000
  C   C396      1.0  0.40333  0.37880  0.44136  1.0000
  H   H693      1.0  0.46987  0.47361  0.40224  1.0000
  C   C397      1.0  0.38113  0.37984  0.45249  1.0000
  H   H694      1.0  0.37729  0.57121  0.42463  1.0000
  H   H695      1.0  0.16604  0.61025  0.29291  1.0000
  H   H696      1.0  0.47877  0.52708  0.42725  1.0000
  C   C398      1.0  0.33704  0.54280  0.33104  1.0000
  C   C399      1.0  0.35825  0.52776  0.33398  1.0000
  C   C400      1.0  0.36691  0.52731  0.34627  1.0000
  C   C401      1.0  0.35409  0.54150  0.35586  1.0000
  C   C402      1.0  0.33293  0.55660  0.35290  1.0000
  C   C403      1.0  0.32445  0.55728  0.34053  1.0000
  H   H697      1.0  0.36820  0.51666  0.32662  1.0000
  H   H698      1.0  0.38353  0.51605  0.34829  1.0000
  H   H699      1.0  0.32295  0.56773  0.36022  1.0000
  H   H700      1.0  0.30804  0.56888  0.33839  1.0000
  C   C404      1.0  0.32944  0.61234  0.24920  1.0000
  C   C405      1.0  0.33858  0.58885  0.25390  1.0000
  H   H701      1.0  0.46540  0.50204  0.43336  1.0000
  C   C406      1.0  0.35636  0.57590  0.24531  1.0000
  S   S138      1.0  0.41698  0.60650  0.47528  1.0000
  H   H702      1.0  0.32974  0.56795  0.41447  1.0000
  H   H703      1.0  0.33198  0.58070  0.26412  1.0000
  C   C407      1.0  0.38517  0.57381  0.39689  1.0000
  H   H704      1.0  0.36337  0.55771  0.24891  1.0000
  C   C408      1.0  0.40656  0.53165  0.44472  1.0000
  C   C409      1.0  0.42934  0.39122  0.45398  1.0000
  H   H705      1.0  0.43347  0.52851  0.41181  1.0000
  H   H706      1.0  0.38574  0.37727  0.46296  1.0000
  S   S139      1.0  0.26258  0.63189  0.29123  1.0000
  H   H707      1.0  0.46466  0.49792  0.48389  1.0000
  C   C410      1.0  0.17946  0.57997  0.26588  1.0000
  C   C411      1.0  0.20333  0.57035  0.26714  1.0000
  C   C412      1.0  0.21399  0.57574  0.27736  1.0000
  C   C413      1.0  0.20059  0.59019  0.28669  1.0000
  C   C414      1.0  0.17656  0.59921  0.28566  1.0000
  C   C415      1.0  0.16614  0.59452  0.27514  1.0000
  H   H708      1.0  0.21368  0.55891  0.26007  1.0000
  H   H709      1.0  0.23241  0.56845  0.27817  1.0000
  C   C416      1.0  0.39716  0.59300  0.38722  1.0000
  H   H710      1.0  0.14773  0.60189  0.27434  1.0000
  C   C417      1.0  0.42340  0.35206  0.40185  1.0000
  C   C418      1.0  0.39951  0.35717  0.40761  1.0000
  C   C419      1.0  0.38651  0.38013  0.40508  1.0000
  C   C420      1.0  0.39752  0.39827  0.39724  1.0000
  C   C421      1.0  0.42165  0.39336  0.39194  1.0000
  C   C422      1.0  0.43443  0.37023  0.39404  1.0000
  H   H711      1.0  0.36783  0.38380  0.40917  1.0000
  H   H712      1.0  0.43026  0.40721  0.38582  1.0000
  H   H713      1.0  0.45288  0.36636  0.38951  1.0000
  H   H714      1.0  0.37959  0.44712  0.42844  1.0000
  C   C423      1.0  0.34687  0.60306  0.39866  1.0000
  C   C424      1.0  0.33779  0.59955  0.38580  1.0000
  H   H715      1.0  0.37524  0.41795  0.42918  1.0000
  H   H716      1.0  0.34521  0.55693  0.39925  1.0000
  C   C425      1.0  0.20805  0.62904  0.24955  1.0000
  C   C426      1.0  0.38897  0.42870  0.42819  1.0000
  H   H717      1.0  0.44880  0.46891  0.48304  1.0000
  H   H718      1.0  0.41602  0.43421  0.43824  1.0000
  C   C427      1.0  0.37755  0.60754  0.41891  1.0000
  N   N29       1.0  0.41858  0.39653  0.44089  1.0000
  H   H719      1.0  0.40588  0.55994  0.45576  1.0000
  H   H720      1.0  0.36835  0.62424  0.41359  1.0000
  H   H721      1.0  0.27202  0.59876  0.25948  1.0000
  H   H722      1.0  0.41375  0.36061  0.44317  1.0000
  C   C428      1.0  0.45457  0.37117  0.42796  1.0000
  H   H723      1.0  0.43346  0.50734  0.46597  1.0000
  H   H724      1.0  0.45143  0.45409  0.46859  1.0000
  S   S140      1.0  0.47082  0.57929  0.46320  1.0000
  C   C429      1.0  0.02053  0.61241  0.24669  1.0000
  H   H725      1.0  0.47188  0.37400  0.42179  1.0000
  H   H726      1.0  0.42916  0.39826  0.41888  1.0000
  H   H727      1.0  0.17251  0.64947  0.25375  1.0000
  C   C430      1.0  0.34784  0.56211  0.40890  1.0000
  H   H728      1.0  0.45944  0.53248  0.44995  1.0000
  Fe  Fe70      1.0  0.28146  0.62564  0.30933  1.0000
  N   N30       1.0  0.36311  0.62424  0.32499  1.0000
  H   H729      1.0  0.44456  0.42317  0.45153  1.0000
  C   C431      1.0  0.33899  0.61827  0.33070  1.0000
  C   C432      1.0  0.37471  0.61104  0.31319  1.0000
  C   C433      1.0  0.37897  0.61993  0.33584  1.0000
  N   N31       1.0  0.22465  0.64408  0.25139  1.0000
  C   C434      1.0  0.32534  0.62984  0.34316  1.0000
  C   C435      1.0  0.37258  0.58504  0.31496  1.0000
  C   C436      1.0  0.38275  0.59528  0.34456  1.0000
  C   C437      1.0  0.24325  0.62894  0.25946  1.0000
  H   H730      1.0  0.21094  0.65279  0.28155  1.0000
  H   H731      1.0  0.33985  0.59923  0.33396  1.0000
  H   H732      1.0  0.32745  0.62302  0.32253  1.0000
  H   H733      1.0  0.36705  0.61956  0.30363  1.0000
  H   H734      1.0  0.39397  0.61160  0.31070  1.0000
  H   H735      1.0  0.39705  0.62293  0.33104  1.0000
  C   C438      1.0  0.49675  0.48069  0.38500  1.0000
  C   C439      1.0  0.44761  0.49255  0.46278  1.0000
  H   H736      1.0  0.39349  0.36083  0.48618  1.0000
  C   C440      1.0  0.48788  0.47599  0.39900  1.0000
  H   H737      1.0  0.30852  0.62311  0.34670  1.0000
  H   H738      1.0  0.42357  0.47039  0.47512  1.0000
  C   C441      1.0  0.49140  0.46070  0.45108  1.0000
  H   H739      1.0  0.37820  0.57443  0.32453  1.0000
  H   H740      1.0  0.38403  0.57707  0.30624  1.0000
  H   H741      1.0  0.35426  0.58331  0.31447  1.0000
  H   H742      1.0  0.39824  0.58351  0.33968  1.0000
  H   H743      1.0  0.36710  0.58686  0.34667  1.0000
  H   H744      1.0  0.38614  0.59665  0.35489  1.0000
  N   N32       1.0  0.33460  0.46714  0.36041  1.0000
  C   C442      1.0  0.36054  0.46433  0.36145  1.0000
  C   C443      1.0  0.32220  0.49044  0.36460  1.0000
  C   C444      1.0  0.33269  0.46704  0.34555  1.0000
  C   C445      1.0  0.32543  0.44679  0.36978  1.0000
  C   C446      1.0  0.37707  0.44250  0.35635  1.0000
  C   C447      1.0  0.32407  0.49383  0.37922  1.0000
  C   C448      1.0  0.30914  0.47970  0.34047  1.0000
  C   C449      1.0  0.29866  0.44691  0.37144  1.0000
  H   H745      1.0  0.36768  0.47992  0.35558  1.0000
  H   H746      1.0  0.36313  0.46327  0.37229  1.0000
  H   H747      1.0  0.30306  0.49420  0.36383  1.0000
  H   H748      1.0  0.32919  0.50489  0.35728  1.0000
  H   H749      1.0  0.34652  0.47572  0.33844  1.0000
  H   H750      1.0  0.33615  0.44876  0.34333  1.0000
  H   H751      1.0  0.33419  0.43006  0.36600  1.0000
  H   H752      1.0  0.33060  0.44411  0.38022  1.0000
  H   H753      1.0  0.39564  0.44319  0.35706  1.0000
  H   H754      1.0  0.37331  0.42600  0.36297  1.0000
  H   H755      1.0  0.37654  0.44178  0.34543  1.0000
  H   H756      1.0  0.34226  0.49554  0.37998  1.0000
  H   H757      1.0  0.31238  0.51058  0.38149  1.0000
  H   H758      1.0  0.31831  0.47961  0.38724  1.0000
  H   H759      1.0  0.30712  0.49905  0.33952  1.0000
  H   H760      1.0  0.29343  0.47389  0.34708  1.0000
  H   H761      1.0  0.30938  0.47604  0.32996  1.0000
  H   H762      1.0  0.29450  0.43949  0.36298  1.0000
  H   H763      1.0  0.28737  0.46433  0.37214  1.0000
  H   H764      1.0  0.29327  0.43598  0.38140  1.0000
  S   S141      1.0  0.42862  0.59418  0.43563  1.0000
  H   H765      1.0  0.41567  0.39590  0.46288  1.0000
  H   H766      1.0  0.39083  0.34325  0.41357  1.0000
  H   H767      1.0  0.38320  0.56173  0.39009  1.0000
  H   H768      1.0  0.39659  0.60389  0.41457  1.0000
  H   H769      1.0  0.34862  0.58921  0.42642  1.0000
  C   C450      1.0  0.36578  0.58650  0.41932  1.0000
  C   C451      1.0  0.35901  0.53922  0.41748  1.0000
  H   H770      1.0  0.43590  0.37212  0.45681  1.0000
  Fe  Fe71      1.0  0.48249  0.61310  0.46257  1.0000
  H   H771      1.0  0.39835  0.56326  0.40341  1.0000
  H   H772      1.0  0.49537  0.46992  0.41970  1.0000
  C   C452      1.0  0.42685  0.53549  0.42127  1.0000
  C   C453      1.0  0.41386  0.52291  0.43220  1.0000
  H   H773      1.0  0.33100  0.60956  0.40599  1.0000
  H   H774      1.0  0.33130  0.61692  0.37986  1.0000
  H   H775      1.0  0.44371  0.49052  0.45270  1.0000
  H   H776      1.0  0.35851  0.54116  0.42835  1.0000
  C   C454      1.0  0.41226  0.35368  0.48438  1.0000
  H   H777      1.0  0.44725  0.35932  0.42322  1.0000
  H   H778      1.0  0.39964  0.60679  0.39253  1.0000
  C   C455      1.0  0.41191  0.55307  0.44617  1.0000
  C   C456      1.0  0.46082  0.33571  0.47948  1.0000
  H   H779      1.0  0.35180  0.58967  0.37887  1.0000
  H   H780      1.0  0.37705  0.61016  0.42968  1.0000
  H   H781      1.0  0.34864  0.52542  0.41778  1.0000
  H   H782      1.0  0.37202  0.36534  0.45218  1.0000
  Fe  Fe72      1.0  0.44995  0.58602  0.48370  1.0000
  H   H783      1.0  0.25491  0.63964  0.26191  1.0000
  C   C457      1.0  0.40424  0.42114  0.43986  1.0000
  H   H784      1.0  0.47566  0.46493  0.44580  1.0000
  H   H785      1.0  0.49706  0.50017  0.43285  1.0000
  H   H786      1.0  0.32259  0.59023  0.38877  1.0000
  N   N33       1.0  0.36185  0.58168  0.40572  1.0000
  H   H787      1.0  0.41506  0.58469  0.38257  1.0000
  H   H788      1.0  0.39648  0.52202  0.45325  1.0000
  C   C458      1.0  0.35921  0.65010  0.31927  1.0000
  H   H789      1.0  0.44788  0.40925  0.42660  1.0000
  C   C459      1.0  0.43741  0.39502  0.42838  1.0000
  C   C460      1.0  0.42048  0.33485  0.47703  1.0000
  H   H790      1.0  0.36818  0.39641  0.45079  1.0000
  H   H791      1.0  0.45863  0.36196  0.43819  1.0000
  C   C461      1.0  0.19881  0.65649  0.27375  1.0000
  H   H792      1.0  0.24868  0.59579  0.25121  1.0000
  C   C462      1.0  0.44475  0.32575  0.47471  1.0000
  H   H793      1.0  0.34613  0.65428  0.31201  1.0000
  H   H794      1.0  0.33535  0.62544  0.35197  1.0000
  H   H795      1.0  0.47961  0.32860  0.47762  1.0000
  H   H796      1.0  0.49927  0.64310  0.47682  1.0000
  H   H797      1.0  0.49217  0.44256  0.45682  1.0000
  C   C463      1.0  0.18436  0.64213  0.24501  1.0000
  C   C464      1.0  0.49171  0.47774  0.46100  1.0000
  H   H798      1.0  0.49229  0.46704  0.47145  1.0000
  C   C465      1.0  0.45261  0.35462  0.48677  1.0000
  C   C466      1.0  0.49529  0.51325  0.47689  1.0000
  S   S142      1.0  0.10423  0.58054  0.23999  1.0000
  H   H799      1.0  0.26956  0.61474  0.24267  1.0000
  H   H800      1.0  0.27148  0.65576  0.24088  1.0000
  H   H801      1.0  0.21662  0.61719  0.24190  1.0000
  H   H802      1.0  0.17529  0.62948  0.24214  1.0000
  H   H803      1.0  0.49044  0.52580  0.44967  1.0000
  C   C467      1.0  0.20666  0.33637  0.66599  1.0000
  S   S143      1.0  0.17904  0.33304  0.66287  1.0000
  H   H804      1.0  0.48116  0.59074  0.51427  1.0000
  C   C468      1.0  0.42433  0.53308  0.49710  1.0000
  H   H805      1.0  0.41964  0.40983  0.61229  1.0000
  H   H806      1.0  0.21211  0.44085  0.69522  1.0000
  H   H807      1.0  0.40941  0.35184  0.52905  1.0000
  H   H808      1.0  0.39386  0.39818  0.61108  1.0000
  H   H809      1.0  0.23909  0.33219  0.69164  1.0000
  H   H810      1.0  0.31289  0.35596  0.71080  1.0000
  H   H811      1.0  0.35455  0.33570  0.52086  1.0000
  H   H812      1.0  0.41613  0.33934  0.51392  1.0000
  S   S144      1.0  0.12162  0.36050  0.68714  1.0000
  H   H813      1.0  0.23246  0.40709  0.70854  1.0000
  Fe  Fe73      1.0  0.45806  0.38816  0.50981  1.0000
  C   C469      1.0  0.38614  0.34895  0.57960  1.0000
  H   H814      1.0  0.46205  0.38351  0.59675  1.0000
  H   H815      1.0  0.20550  0.39390  0.72917  1.0000
  H   H816      1.0  0.37093  0.41103  0.58970  1.0000
  C   C470      1.0  0.03348  0.34950  0.68567  1.0000
  H   H817      1.0  0.19392  0.42166  0.72017  1.0000
  C   C471      1.0  0.19419  0.39098  0.69146  1.0000
  H   H818      1.0  0.17219  0.45954  0.69285  1.0000
  H   H819      1.0  0.21338  0.33823  0.71341  1.0000
  S   S145      1.0  0.43447  0.35267  0.69635  1.0000
  H   H820      1.0  0.45964  0.35632  0.64215  1.0000
  H   H821      1.0  0.26408  0.40123  0.69256  1.0000
  C   C472      1.0  0.35371  0.34732  0.72240  1.0000
  C   C473      1.0  0.41440  0.51292  0.49883  1.0000
  C   C474      1.0  0.18824  0.39359  0.67677  1.0000
  C   C475      1.0  0.37192  0.35274  0.59225  1.0000
  C   C476      1.0  0.44849  0.37227  0.60060  1.0000
  H   H822      1.0  0.43164  0.38286  0.59765  1.0000
  H   H823      1.0  0.46730  0.51166  0.51736  1.0000
  S   S146      1.0  0.46935  0.42222  0.50927  1.0000
  H   H824      1.0  0.18465  0.41207  0.67170  1.0000
  H   H825      1.0  0.42184  0.37853  0.49450  1.0000
  C   C477      1.0  0.38947  0.38985  0.57426  1.0000
  C   C478      1.0  0.41022  0.34993  0.61758  1.0000
  H   H826      1.0  0.25037  0.42907  0.68342  1.0000
  C   C479      1.0  0.21850  0.39793  0.70727  1.0000
  C   C480      1.0  0.39504  0.36744  0.57060  1.0000
  H   H827      1.0  0.17229  0.38592  0.67726  1.0000
  C   C481      1.0  0.38070  0.34063  0.72193  1.0000
  S   S147      1.0  0.43921  0.42265  0.54102  1.0000
  H   H828      1.0  0.45006  0.47593  0.52016  1.0000
  S   S148      1.0  0.34280  0.35098  0.65037  1.0000
  H   H829      1.0  0.39483  0.36641  0.68114  1.0000
  C   C482      1.0  0.30294  0.34873  0.73281  1.0000
  H   H830      1.0  0.20098  0.37200  0.69466  1.0000
  Fe  Fe74      1.0  0.34118  0.34935  0.62825  1.0000
  H   H831      1.0  0.30744  0.36550  0.73391  1.0000
  N   N34       1.0  0.42514  0.35986  0.62491  1.0000
  H   H832      1.0  0.39617  0.40423  0.56736  1.0000
  S   S149      1.0  0.35031  0.38005  0.61227  1.0000
  H   H833      1.0  0.24015  0.37957  0.68433  1.0000
  H   H834      1.0  0.45601  0.37631  0.62030  1.0000
  S   S150      1.0  0.41297  0.36156  0.55493  1.0000
  H   H835      1.0  0.18277  0.39558  0.71927  1.0000
  H   H836      1.0  0.16898  0.43373  0.70500  1.0000
  H   H837      1.0  0.20667  0.43813  0.67886  1.0000
  C   C483      1.0  0.17578  0.44008  0.69418  1.0000
  H   H838      1.0  0.26878  0.40681  0.67428  1.0000
  H   H839      1.0  0.39261  0.34880  0.62400  1.0000
  C   C484      1.0  0.44290  0.49179  0.51369  1.0000
  C   C485      1.0  0.44338  0.53268  0.50381  1.0000
  H   H840      1.0  0.42086  0.38942  0.63569  1.0000
  H   H841      1.0  0.39206  0.41733  0.62300  1.0000
  S   S151      1.0  0.46758  0.37324  0.53069  1.0000
  C   C486      1.0  0.42992  0.34247  0.63773  1.0000
  H   H842      1.0  0.34912  0.36439  0.53698  1.0000
  Fe  Fe75      1.0  0.43188  0.43369  0.51908  1.0000
  C   C487      1.0  0.41123  0.33505  0.52523  1.0000
  C   C488      1.0  0.42362  0.49228  0.50716  1.0000
  S   S152      1.0  0.41999  0.40042  0.51809  1.0000
  H   H843      1.0  0.34928  0.37895  0.51961  1.0000
  C   C489      1.0  0.37513  0.39366  0.58690  1.0000
  C   C490      1.0  0.45261  0.51203  0.51212  1.0000
  C   C491      1.0  0.25527  0.40988  0.68350  1.0000
  H   H844      1.0  0.23033  0.40408  0.67207  1.0000
  C   C492      1.0  0.01529  0.35033  0.67813  1.0000
  Fe  Fe76      1.0  0.09480  0.33784  0.68791  1.0000
  C   C493      1.0  0.23391  0.39889  0.68289  1.0000
  H   H845      1.0  0.40597  0.36155  0.60799  1.0000
  S   S153      1.0  0.12762  0.35816  0.72646  1.0000
  Fe  Fe77      1.0  0.43037  0.38829  0.53922  1.0000
  H   H846      1.0  0.20282  0.38370  0.67013  1.0000
  H   H847      1.0  0.36527  0.33834  0.59912  1.0000
  H   H848      1.0  0.16514  0.43529  0.68745  1.0000
  C   C494      1.0  0.20267  0.43133  0.69006  1.0000
  C   C495      1.0  0.36645  0.37510  0.59597  1.0000
  H   H849      1.0  0.17715  0.39493  0.69840  1.0000
  C   C496      1.0  0.00445  0.35002  0.70652  1.0000
  C   C497      1.0  0.40298  0.34848  0.68003  1.0000
  Fe  Fe78      1.0  0.47596  0.40827  0.53093  1.0000
  C   C498      1.0  0.17559  0.34778  0.71901  1.0000
  C   C499      1.0  0.41094  0.38229  0.62953  1.0000
  C   C500      1.0  0.02803  0.34933  0.69991  1.0000
  C   C501      1.0  0.24592  0.34508  0.65674  1.0000
  C   C502      1.0  0.44336  0.34992  0.64756  1.0000
  C   C503      1.0  0.40394  0.40279  0.61814  1.0000
  N   N35       1.0  0.21177  0.40522  0.69300  1.0000
  H   H850      1.0  0.39426  0.37887  0.63642  1.0000
  H   H851      1.0  0.22636  0.37884  0.70898  1.0000
  S   S154      1.0  0.45650  0.55742  0.50176  1.0000
  C   C504      1.0  0.19869  0.40270  0.71945  1.0000
  C   C505      1.0  0.19902  0.34266  0.72156  1.0000
  H   H852      1.0  0.17198  0.34787  0.70882  1.0000
  C   C506      1.0  0.21229  0.33257  0.67933  1.0000
  S   S155      1.0  0.41106  0.46721  0.50906  1.0000
  H   H853      1.0  0.34998  0.36459  0.71562  1.0000
  H   H854      1.0  0.45422  0.35730  0.59477  1.0000
  C   C507      1.0  0.44851  0.36367  0.61625  1.0000
  H   H855      1.0  0.39035  0.33157  0.57683  1.0000
  C   C508      1.0  0.37007  0.34348  0.52124  1.0000
  C   C509      1.0  0.20396  0.34352  0.73456  1.0000
  C   C510      1.0  0.36050  0.36688  0.52680  1.0000
  H   H856      1.0  0.34946  0.34376  0.69685  1.0000
  C   C511      1.0  0.22357  0.34255  0.65473  1.0000
  H   H857      1.0  0.43179  0.36327  0.65349  1.0000
  S   S156      1.0  0.47304  0.36677  0.49268  1.0000
  H   H858      1.0  0.37489  0.37581  0.52761  1.0000
  H   H859      1.0  0.37779  0.34443  0.66785  1.0000
  Fe  Fe79      1.0  0.14900  0.33008  0.68053  1.0000
  H   H860      1.0  0.01936  0.35072  0.66709  1.0000
  H   H861      1.0  0.39019  0.33771  0.71160  1.0000
  H   H862      1.0  0.41299  0.33813  0.64384  1.0000
  H   H863      1.0  0.38723  0.35531  0.72452  1.0000
  H   H864      1.0  0.34669  0.35054  0.73313  1.0000
  H   H865      1.0  0.46169  0.34693  0.61702  1.0000
  H   H866      1.0  0.49578  0.56375  0.52281  1.0000
  S   S157      1.0  0.30538  0.33898  0.63326  1.0000
  H   H867      1.0  0.25854  0.35042  0.64798  1.0000
  H   H868      1.0  0.41710  0.54899  0.49071  1.0000
  Fe  Fe80      1.0  0.12521  0.34133  0.70855  1.0000
  H   H869      1.0  0.04190  0.34891  0.70579  1.0000
  C   C512      1.0  0.39327  0.33601  0.67254  1.0000
  S   S158      1.0  0.06277  0.34808  0.67689  1.0000
  C   C513      1.0  0.25160  0.34135  0.67003  1.0000
  H   H870      1.0  0.28345  0.35201  0.73295  1.0000
  H   H871      1.0  0.37760  0.34815  0.51023  1.0000
  H   H872      1.0  0.39948  0.51332  0.49376  1.0000
  H   H873      1.0  0.37973  0.34055  0.54806  1.0000
  H   H874      1.0  0.21928  0.34568  0.64439  1.0000
  S   S159      1.0  0.27921  0.34558  0.67271  1.0000
  C   C514      1.0  0.15696  0.35337  0.72950  1.0000
  C   C515      1.0  0.23473  0.33509  0.68134  1.0000
  C   C516      1.0  0.31569  0.34053  0.71910  1.0000
  Fe  Fe81      1.0  0.30893  0.33685  0.65541  1.0000
  H   H875      1.0  0.44893  0.33447  0.65530  1.0000
  H   H876      1.0  0.19940  0.32774  0.68809  1.0000
  C   C517      1.0  0.42303  0.33766  0.68626  1.0000
  H   H877      1.0  0.00022  0.35015  0.71751  1.0000
  S   S160      1.0  0.23358  0.33844  0.73701  1.0000
  H   H878      1.0  0.30557  0.32787  0.71715  1.0000
  H   H879      1.0  0.38559  0.32523  0.72977  1.0000
  S   S161      1.0  0.45466  0.32833  0.73442  1.0000
  N   N36       1.0  0.34175  0.32985  0.71853  1.0000
  Fe  Fe82      1.0  0.45178  0.32593  0.71250  1.0000
  C   C518      1.0  0.35128  0.32650  0.70378  1.0000
  H   H880      1.0  0.44070  0.32554  0.63504  1.0000
  C   C519      1.0  0.49887  0.58052  0.51626  1.0000
  H   H881      1.0  0.44863  0.32715  0.52695  1.0000
  C   C520      1.0  0.42099  0.32543  0.61368  1.0000
  N   N37       1.0  0.38816  0.32620  0.52886  1.0000
  C   C521      1.0  0.42830  0.36369  0.48912  1.0000
  Fe  Fe83      1.0  0.10454  0.59874  0.95741  1.0000
  S   S162      1.0  0.14310  0.59912  0.95017  1.0000
  S   S163      1.0  0.08779  0.57988  0.97745  1.0000
  Fe  Fe84      1.0  0.09079  0.62954  0.93103  1.0000
  S   S164      1.0  0.12828  0.63199  0.92152  1.0000
  H   H882      1.0  0.12839  0.38193  0.81574  1.0000
  Fe  Fe85      1.0  0.13573  0.59323  0.92990  1.0000
  S   S165      1.0  0.15865  0.56278  0.92005  1.0000
  Fe  Fe86      1.0  0.13160  0.63772  0.94266  1.0000
  S   S166      1.0  0.30877  0.35378  0.77197  1.0000
  S   S167      1.0  0.09776  0.59073  0.93769  1.0000
  S   S168      1.0  0.09349  0.63753  0.95153  1.0000
  Fe  Fe87      1.0  0.13643  0.42400  0.88665  1.0000
  S   S169      1.0  0.10341  0.45162  0.88796  1.0000
  S   S170      1.0  0.14663  0.39469  0.90367  1.0000
  Fe  Fe88      1.0  0.15416  0.44206  0.85701  1.0000
  S   S171      1.0  0.12289  0.47170  0.85601  1.0000
  S   S172      1.0  0.18106  0.43876  0.83749  1.0000
  Fe  Fe89      1.0  0.12732  0.47653  0.87703  1.0000
  S   S173      1.0  0.11525  0.51348  0.88206  1.0000
  Fe  Fe90      1.0  0.10125  0.44502  0.86703  1.0000
  S   S174      1.0  0.06649  0.44914  0.85951  1.0000
  S   S175      1.0  0.16094  0.44934  0.87713  1.0000
  S   S176      1.0  0.13199  0.41492  0.86661  1.0000
  Fe  Fe91      1.0  0.22457  0.34059  0.78902  1.0000
  C   C522      1.0  0.33593  0.33521  0.76724  1.0000
  S   S177      1.0  0.19429  0.35263  0.80555  1.0000
  S   S178      1.0  0.08142  0.39301  0.96170  1.0000
  H   H883      1.0  0.03271  0.48368  0.87370  1.0000
  H   H884      1.0  0.03401  0.36318  0.92307  1.0000
  H   H885      1.0  0.15398  0.36932  0.93023  1.0000
  Fe  Fe92      1.0  0.10057  0.37230  0.97898  1.0000
  H   H886      1.0  0.05271  0.57668  0.95897  1.0000
  H   H887      1.0  0.06535  0.36280  0.94040  1.0000
  C   C523      1.0  0.18488  0.41460  0.82877  1.0000
  C   C524      1.0  0.19450  0.41674  0.81473  1.0000
  C   C525      1.0  0.19792  0.39776  0.80751  1.0000
  C   C526      1.0  0.19197  0.37640  0.81435  1.0000
  C   C527      1.0  0.18225  0.37432  0.82837  1.0000
  C   C528      1.0  0.17881  0.39328  0.83558  1.0000
  H   H888      1.0  0.19911  0.43324  0.80938  1.0000
  H   H889      1.0  0.20476  0.39978  0.79661  1.0000
  H   H890      1.0  0.17748  0.35788  0.83371  1.0000
  H   H891      1.0  0.17170  0.39132  0.84643  1.0000
  C   C529      1.0  0.04897  0.42782  0.86651  1.0000
  C   C530      1.0  0.02463  0.43378  0.86599  1.0000
  C   C531      1.0  0.06675  0.51792  0.85317  1.0000
  C   C532      1.0  0.09963  0.39378  0.94562  1.0000
  C   C533      1.0  0.04449  0.38780  0.87620  1.0000
  C   C534      1.0  0.05891  0.40488  0.87184  1.0000
  C   C535      1.0  0.03051  0.61122  0.97542  1.0000
  H   H892      1.0  0.31507  0.36324  0.82657  1.0000
  H   H893      1.0  0.05225  0.36992  0.87998  1.0000
  H   H894      1.0  0.07772  0.40016  0.87229  1.0000
  C   C536      1.0  0.14687  0.54931  0.90924  1.0000
  C   C537      1.0  0.15759  0.52652  0.90673  1.0000
  C   C538      1.0  0.14823  0.51522  0.89838  1.0000
  C   C539      1.0  0.12830  0.52684  0.89232  1.0000
  C   C540      1.0  0.11780  0.54969  0.89471  1.0000
  C   C541      1.0  0.12688  0.56082  0.90321  1.0000
  H   H895      1.0  0.17311  0.51755  0.91131  1.0000
  H   H896      1.0  0.15652  0.49764  0.89658  1.0000
  H   H897      1.0  0.10254  0.55884  0.88993  1.0000
  H   H898      1.0  0.11862  0.57842  0.90497  1.0000
  H   H899      1.0  0.06170  0.50396  0.84902  1.0000
  C   C542      1.0  0.03261  0.51695  0.89035  1.0000
  C   C543      1.0  0.03888  0.58259  0.95219  1.0000
  C   C544      1.0  0.04793  0.63076  0.91373  1.0000
  C   C545      1.0  0.06328  0.61186  0.90839  1.0000
  C   C546      1.0  0.05434  0.59680  0.90232  1.0000
  C   C547      1.0  0.06691  0.34370  0.94426  1.0000
  S   S179      1.0  0.09993  0.33429  0.98578  1.0000
  H   H900      1.0  0.08203  0.60888  0.90892  1.0000
  H   H901      1.0  0.06609  0.58196  0.89840  1.0000
  C   C548      1.0  0.37804  0.33033  0.75780  1.0000
  H   H902      1.0  0.28062  0.40294  0.78354  1.0000
  H   H903      1.0  0.33271  0.38040  0.81402  1.0000
  C   C549      1.0  0.09124  0.40812  0.93404  1.0000
  C   C550      1.0  0.10557  0.40861  0.92109  1.0000
  C   C551      1.0  0.12828  0.39473  0.91971  1.0000
  C   C552      1.0  0.13648  0.38017  0.93128  1.0000
  H   H904      1.0  0.07367  0.41881  0.93506  1.0000
  H   H905      1.0  0.09889  0.41943  0.91219  1.0000
  S   S180      1.0  0.24212  0.36141  0.77013  1.0000
  N   N38       1.0  0.08899  0.50909  0.93500  1.0000
  C   C553      1.0  0.09806  0.52952  0.93777  1.0000
  C   C554      1.0  0.07553  0.51781  0.92296  1.0000
  C   C555      1.0  0.11017  0.49020  0.93139  1.0000
  C   C556      1.0  0.07333  0.50045  0.94792  1.0000
  C   C557      1.0  0.11472  0.52385  0.94876  1.0000
  C   C558      1.0  0.05464  0.53857  0.92460  1.0000
  C   C559      1.0  0.10781  0.47418  0.92139  1.0000
  C   C560      1.0  0.05996  0.48125  0.94698  1.0000
  H   H906      1.0  0.10772  0.53803  0.92812  1.0000
  H   H907      1.0  0.08316  0.54334  0.94128  1.0000
  H   H908      1.0  0.06825  0.50368  0.92039  1.0000
  H   H909      1.0  0.08778  0.52337  0.91354  1.0000
  H   H910      1.0  0.12589  0.49814  0.92628  1.0000
  H   H911      1.0  0.11570  0.47863  0.94086  1.0000
  H   H912      1.0  0.08386  0.49316  0.95646  1.0000
  H   H913      1.0  0.05983  0.51524  0.95161  1.0000
  H   H914      1.0  0.12123  0.54000  0.94914  1.0000
  H   H915      1.0  0.10537  0.51847  0.95922  1.0000
  H   H916      1.0  0.13070  0.51047  0.94628  1.0000
  H   H917      1.0  0.06096  0.55507  0.92422  1.0000
  H   H918      1.0  0.04482  0.54153  0.91575  1.0000
  H   H919      1.0  0.04176  0.53527  0.93406  1.0000
  H   H920      1.0  0.09178  0.46626  0.92432  1.0000
  H   H921      1.0  0.12338  0.45955  0.92109  1.0000
  H   H922      1.0  0.10804  0.48389  0.91071  1.0000
  H   H923      1.0  0.04777  0.48708  0.93922  1.0000
  H   H924      1.0  0.04869  0.47716  0.95705  1.0000
  H   H925      1.0  0.07226  0.46474  0.94503  1.0000
  C   C561      1.0  0.12223  0.37975  0.94422  1.0000
  H   H926      1.0  0.14742  0.35877  0.75068  1.0000
  C   C562      1.0  0.24683  0.34994  0.82677  1.0000
  H   H927      1.0  0.06945  0.52712  0.87249  1.0000
  H   H928      1.0  0.23901  0.34570  0.81850  1.0000
  H   H929      1.0  0.02567  0.54887  0.85860  1.0000
  H   H930      1.0  0.26601  0.41551  0.81474  1.0000
  Fe  Fe93      1.0  0.23924  0.33285  0.75905  1.0000
  H   H931      1.0  0.04741  0.61760  0.97114  1.0000
  C   C563      1.0  0.26148  0.39670  0.83554  1.0000
  C   C564      1.0  0.12667  0.40132  0.81449  1.0000
  H   H932      1.0  0.14187  0.40195  0.79295  1.0000
  H   H933      1.0  0.04618  0.40609  0.82970  1.0000
  H   H934      1.0  0.28095  0.35222  0.83062  1.0000
  H   H935      1.0  0.10705  0.37063  0.85422  1.0000
  H   H936      1.0  0.25485  0.41812  0.79382  1.0000
  C   C565      1.0  0.06193  0.40951  0.83314  1.0000
  C   C566      1.0  0.01473  0.61932  0.90724  1.0000
  C   C567      1.0  0.26259  0.40196  0.78929  1.0000
  C   C568      1.0  0.11094  0.40161  0.83881  1.0000
  C   C569      1.0  0.20105  0.36539  0.98153  1.0000
  H   H937      1.0  0.09774  0.41042  0.84665  1.0000
  H   H938      1.0  0.09385  0.34118  0.95671  1.0000
  H   H939      1.0  0.05754  0.42776  0.83530  1.0000
  H   H940      1.0  0.08909  0.44505  0.83069  1.0000
  H   H941      1.0  0.12802  0.40538  0.84026  1.0000
  C   C570      1.0  0.11321  0.37477  0.84298  1.0000
  C   C571      1.0  0.35608  0.34491  0.76128  1.0000
  H   H942      1.0  0.00145  0.58421  0.97424  1.0000
  H   H943      1.0  0.00507  0.50065  0.87914  1.0000
  N   N39       1.0  0.27339  0.37869  0.81275  1.0000
  C   C572      1.0  0.26254  0.37945  0.80008  1.0000
  C   C573      1.0  0.27206  0.35503  0.82146  1.0000
  H   H944      1.0  0.04383  0.61803  0.94815  1.0000
  C   C574      1.0  0.26012  0.39892  0.82002  1.0000
  H   H945      1.0  0.03422  0.65588  0.94836  1.0000
  H   H946      1.0  0.08644  0.38719  0.81999  1.0000
  H   H947      1.0  0.18733  0.37948  0.98574  1.0000
  H   H948      1.0  0.18917  0.35019  0.75515  1.0000
  H   H949      1.0  0.27165  0.36447  0.79464  1.0000
  H   H950      1.0  0.24378  0.37737  0.80289  1.0000
  S   S181      1.0  0.13934  0.36735  0.97974  1.0000
  H   H951      1.0  0.28195  0.34077  0.81557  1.0000
  C   C575      1.0  0.04591  0.49379  0.89767  1.0000
  C   C576      1.0  0.02374  0.63476  0.91294  1.0000
  Fe  Fe94      1.0  0.27613  0.33767  0.77513  1.0000
  H   H952      1.0  0.24089  0.40184  0.81930  1.0000
  H   H953      1.0  0.03947  0.53133  0.89313  1.0000
  H   H954      1.0  0.00500  0.38542  0.94258  1.0000
  C   C577      1.0  0.03003  0.60034  0.90196  1.0000
  H   H955      1.0  0.14369  0.40392  0.81679  1.0000
  S   S182      1.0  0.00182  0.37269  0.88092  1.0000
  S   S183      1.0  0.01818  0.57934  0.89677  1.0000
  N   N40       1.0  0.01411  0.61640  0.96482  1.0000
  S   S184      1.0  0.00382  0.52226  0.95884  1.0000
  H   H956      1.0  0.24452  0.39309  0.84190  1.0000
  H   H957      1.0  0.35476  0.36374  0.75945  1.0000
  C   C578      1.0  0.12570  0.41079  0.79911  1.0000
  H   H958      1.0  0.30056  0.39746  0.80094  1.0000
  C   C579      1.0  0.02006  0.39387  0.87564  1.0000
  H   H959      1.0  0.13149  0.44196  0.83317  1.0000
  H   H960      1.0  0.11021  0.40684  0.79570  1.0000
  H   H961      1.0  0.07809  0.41630  0.81207  1.0000
  H   H962      1.0  0.09056  0.45005  0.98208  1.0000
  H   H963      1.0  0.08634  0.51574  0.85052  1.0000
  H   H964      1.0  0.13999  0.44314  0.81473  1.0000
  H   H965      1.0  0.01949  0.52091  0.85021  1.0000
  H   H966      1.0  0.03234  0.34981  0.97582  1.0000
  H   H967      1.0  0.05963  0.53550  0.84783  1.0000
  H   H968      1.0  0.25150  0.40152  0.78150  1.0000
  H   H969      1.0  0.13911  0.56749  0.97535  1.0000
  S   S185      1.0  0.05854  0.64888  0.92200  1.0000
  H   H970      1.0  0.12865  0.36831  0.95304  1.0000
  C   C580      1.0  0.12523  0.44769  0.82306  1.0000
  H   H971      1.0  0.01071  0.49729  0.98599  1.0000
  H   H972      1.0  0.06911  0.49698  0.87274  1.0000
  H   H973      1.0  0.06529  0.49349  0.89594  1.0000
  H   H974      1.0  0.14130  0.32750  0.94168  1.0000
  C   C581      1.0  0.29904  0.38062  0.80791  1.0000
  C   C582      1.0  0.10304  0.43793  0.82256  1.0000
  H   H975      1.0  0.24772  0.33423  0.83491  1.0000
  H   H976      1.0  0.30698  0.33546  0.74190  1.0000
  H   H977      1.0  0.03640  0.59196  0.97818  1.0000
  H   H978      1.0  0.12061  0.46714  0.82170  1.0000
  H   H979      1.0  0.04758  0.57958  0.94167  1.0000
  H   H980      1.0  0.10214  0.36710  0.83792  1.0000
  H   H981      1.0  0.23475  0.34506  0.98549  1.0000
  C   C583      1.0  0.31420  0.37971  0.81909  1.0000
  C   C584      1.0  0.16184  0.35433  0.74254  1.0000
  H   H982      1.0  0.01182  0.64930  0.91713  1.0000
  N   N41       1.0  0.10606  0.41158  0.82440  1.0000
  H   H983      1.0  0.05346  0.34182  0.95362  1.0000
  H   H984      1.0  0.13194  0.36580  0.84065  1.0000
  C   C585      1.0  0.18539  0.34931  0.74510  1.0000
  H   H985      1.0  0.39357  0.33791  0.75338  1.0000
  H   H986      1.0  0.30811  0.36652  0.80169  1.0000
  C   C586      1.0  0.02843  0.60902  0.95162  1.0000
  N   N42       1.0  0.03432  0.51939  0.87489  1.0000
  C   C587      1.0  0.06031  0.51514  0.86896  1.0000
  H   H987      1.0  0.23462  0.36456  0.83130  1.0000
  H   H988      1.0  0.03991  0.49255  0.90895  1.0000
  H   H989      1.0  0.06450  0.39721  0.84284  1.0000
  C   C588      1.0  0.08362  0.40565  0.82178  1.0000
  H   H990      1.0  0.02522  0.57143  0.95535  1.0000
  H   H991      1.0  0.01759  0.61427  0.94308  1.0000
  H   H992      1.0  0.12571  0.42986  0.79662  1.0000
  H   H993      1.0  0.09659  0.44631  0.81267  1.0000
  H   H994      1.0  0.10438  0.34160  0.93911  1.0000
  C   C589      1.0  0.03365  0.33657  0.98488  1.0000
  H   H995      1.0  0.21056  0.37382  0.97181  1.0000
  H   H996      1.0  0.01676  0.45143  0.86192  1.0000
  C   C590      1.0  0.02314  0.54437  0.86993  1.0000
  H   H997      1.0  0.03216  0.55680  0.87312  1.0000
  H   H998      1.0  0.26330  0.41390  0.83771  1.0000
  C   C591      1.0  0.02188  0.50158  0.87180  1.0000
  H   H999      1.0  0.30817  0.39522  0.82443  1.0000
  C   C592      1.0  0.00383  0.64217  0.96155  1.0000
  H   H1000     1.0  0.19236  0.35237  0.97883  1.0000
  H   H1001     1.0  0.27636  0.38366  0.83935  1.0000
  H   H1002     1.0  0.02012  0.34598  0.91489  1.0000
  H   H1003     1.0  0.00991  0.35474  0.94385  1.0000
  H   H1004     1.0  0.02519  0.48984  0.85192  1.0000
  C   C593      1.0  0.09216  0.33367  0.94764  1.0000
  H   H1005     1.0  0.01383  0.51863  0.89543  1.0000
  H   H1006     1.0  0.04238  0.47806  0.89454  1.0000
  C   C594      1.0  0.02237  0.36389  0.91540  1.0000
  H   H1007     1.0  0.12162  0.48580  0.98495  1.0000
  C   C595      1.0  0.13138  0.56272  0.98591  1.0000
  H   H1008     1.0  0.06272  0.33536  0.93625  1.0000
  C   C596      1.0  0.01020  0.41700  0.87077  1.0000
  H   H1009     1.0  0.03175  0.37068  0.90521  1.0000
  H   H1010     1.0  0.08140  0.48888  0.98520  1.0000
  C   C597      1.0  0.01549  0.50491  0.85712  1.0000
  H   H1011     1.0  0.03197  0.65759  0.96642  1.0000
  H   H1012     1.0  0.00297  0.39794  0.91858  1.0000
  H   H1013     1.0  0.23383  0.74814  0.08718  1.0000
  C   C598      1.0  0.22434  0.73159  0.12678  1.0000
  S   S186      1.0  0.15890  0.78589  0.20366  1.0000
  H   H1014     1.0  0.17241  0.83025  0.20389  1.0000
  Fe  Fe95      1.0  0.43151  0.77464  0.17211  1.0000
  S   S187      1.0  0.42996  0.81125  0.16073  1.0000
  S   S188      1.0  0.44342  0.74318  0.16149  1.0000
  Fe  Fe96      1.0  0.41669  0.79003  0.20018  1.0000
  S   S189      1.0  0.41354  0.82812  0.19117  1.0000
  H   H1015     1.0  0.21392  0.79437  0.06649  1.0000
  Fe  Fe97      1.0  0.39586  0.81897  0.17524  1.0000
  S   S190      1.0  0.36225  0.84044  0.16780  1.0000
  Fe  Fe98      1.0  0.44789  0.81646  0.17766  1.0000
  S   S191      1.0  0.47845  0.83579  0.17440  1.0000
  S   S192      1.0  0.39636  0.78185  0.18552  1.0000
  S   S193      1.0  0.45206  0.77898  0.18784  1.0000
  Fe  Fe99      1.0  0.12545  0.96036  0.02370  1.0000
  S   S194      1.0  0.12282  0.94462  0.00565  1.0000
  H   H1016     1.0  0.43638  0.72341  0.20287  1.0000
  Fe  Fe100     1.0  0.13501  0.91237  0.04196  1.0000
  S   S195      1.0  0.13206  0.89258  0.02537  1.0000
  S   S196      1.0  0.13866  0.89729  0.06433  1.0000
  Fe  Fe101     1.0  0.15372  0.91737  0.01159  1.0000
  C   C599      1.0  0.01061  0.97764  0.00443  1.0000
  Fe  Fe102     1.0  0.10120  0.92136  0.02063  1.0000
  S   S197      1.0  0.06858  0.91942  0.01234  1.0000
  S   S198      1.0  0.15894  0.93534  0.02842  1.0000
  S   S199      1.0  0.10167  0.93876  0.03847  1.0000
  Fe  Fe103     1.0  0.23819  0.83056  0.10906  1.0000
  S   S200      1.0  0.20691  0.82317  0.12483  1.0000
  S   S201      1.0  0.23525  0.84687  0.08674  1.0000
  Fe  Fe104     1.0  0.27389  0.80676  0.12891  1.0000
  S   S202      1.0  0.24521  0.79741  0.14598  1.0000
  S   S203      1.0  0.31152  0.79257  0.13322  1.0000
  Fe  Fe105     1.0  0.22907  0.78745  0.12992  1.0000
  S   S204      1.0  0.21122  0.75597  0.13501  1.0000
  Fe  Fe106     1.0  0.22589  0.83373  0.13947  1.0000
  S   S205      1.0  0.20817  0.85453  0.15635  1.0000
  S   S206      1.0  0.25928  0.79382  0.11312  1.0000
  S   S207      1.0  0.25579  0.84414  0.12339  1.0000
  H   H1017     1.0  0.32635  0.72197  0.12616  1.0000
  H   H1018     1.0  0.24370  0.77414  0.07659  1.0000
  C   C600      1.0  0.23739  0.76583  0.08714  1.0000
  H   H1019     1.0  0.17981  0.68465  0.20366  1.0000
  C   C601      1.0  0.16581  0.88364  0.07030  1.0000
  C   C602      1.0  0.16584  0.87633  0.08452  1.0000
  C   C603      1.0  0.18705  0.86571  0.08975  1.0000
  C   C604      1.0  0.20843  0.86193  0.08076  1.0000
  C   C605      1.0  0.20843  0.86940  0.06654  1.0000
  C   C606      1.0  0.18724  0.88027  0.06132  1.0000
  H   H1020     1.0  0.14937  0.87904  0.09156  1.0000
  H   H1021     1.0  0.18680  0.86029  0.10072  1.0000
  H   H1022     1.0  0.22488  0.86657  0.05950  1.0000
  H   H1023     1.0  0.18750  0.88587  0.05035  1.0000
  C   C607      1.0  0.04500  0.91131  0.02464  1.0000
  C   C608      1.0  0.02325  0.91257  0.02038  1.0000
  C   C609      1.0  0.04759  0.90340  0.03847  1.0000
  H   H1024     1.0  0.02115  0.91865  0.00969  1.0000
  H   H1025     1.0  0.06439  0.90239  0.04181  1.0000
  C   C610      1.0  0.17958  0.81609  0.06587  1.0000
  H   H1026     1.0  0.15199  0.97771  0.03957  1.0000
  C   C611      1.0  0.21580  0.78122  0.09445  1.0000
  N   N43       1.0  0.19420  0.78892  0.08732  1.0000
  H   H1027     1.0  0.14462  0.97912  0.08271  1.0000
  H   H1028     1.0  0.37018  0.78764  0.12726  1.0000
  H   H1029     1.0  0.06123  0.78126  0.02118  1.0000
  H   H1030     1.0  0.39108  0.82270  0.21961  1.0000
  C   C612      1.0  0.16723  0.68027  0.18515  1.0000
  C   C613      1.0  0.02849  0.89622  0.04794  1.0000
  H   H1031     1.0  0.25237  0.76306  0.09300  1.0000
  C   C614      1.0  0.00906  0.82899  0.04246  1.0000
  C   C615      1.0  0.49368  0.66139  0.18823  1.0000
  H   H1032     1.0  0.06329  0.99074  0.01998  1.0000
  H   H1033     1.0  0.15210  0.80446  0.11574  1.0000
  C   C616      1.0  0.34619  0.82663  0.15957  1.0000
  C   C617      1.0  0.35192  0.80244  0.15951  1.0000
  C   C618      1.0  0.34038  0.79204  0.15188  1.0000
  C   C619      1.0  0.32290  0.80568  0.14430  1.0000
  C   C620      1.0  0.31639  0.82973  0.14482  1.0000
  C   C621      1.0  0.32811  0.84018  0.15239  1.0000
  H   H1034     1.0  0.36570  0.79184  0.16502  1.0000
  H   H1035     1.0  0.34542  0.77340  0.15158  1.0000
  H   H1036     1.0  0.30300  0.84042  0.13896  1.0000
  H   H1037     1.0  0.32361  0.85892  0.15237  1.0000
  C   C622      1.0  0.42220  0.72524  0.16685  1.0000
  H   H1038     1.0  0.02229  0.96041  0.00705  1.0000
  C   C623      1.0  0.38150  0.72073  0.17547  1.0000
  C   C624      1.0  0.39814  0.73508  0.16974  1.0000
  H   H1039     1.0  0.39913  0.71291  0.23777  1.0000
  S   S208      1.0  0.14831  0.82445  0.23454  1.0000
  H   H1040     1.0  0.39228  0.75374  0.16744  1.0000
  H   H1041     1.0  0.42841  0.72190  0.22105  1.0000
  H   H1042     1.0  0.02962  0.67832  0.20511  1.0000
  S   S209      1.0  0.18362  0.90604  0.99522  1.0000
  C   C625      1.0  0.33201  0.70305  0.12526  1.0000
  C   C626      1.0  0.12808  0.71272  0.17011  1.0000
  H   H1043     1.0  0.27008  0.67934  0.14799  1.0000
  H   H1044     1.0  0.37937  0.73886  0.23250  1.0000
  H   H1045     1.0  0.34394  0.71040  0.22358  1.0000
  C   C627      1.0  0.06980  0.79503  0.01419  1.0000
  H   H1046     1.0  0.22186  0.79684  0.09625  1.0000
  H   H1047     1.0  0.21370  0.75728  0.06896  1.0000
  H   H1048     1.0  0.21160  0.77081  0.10477  1.0000
  C   C628      1.0  0.17140  0.80594  0.19062  1.0000
  C   C629      1.0  0.17660  0.80108  0.17711  1.0000
  C   C630      1.0  0.18727  0.81637  0.16651  1.0000
  C   C631      1.0  0.19250  0.83677  0.16934  1.0000
  C   C632      1.0  0.18678  0.84197  0.18279  1.0000
  C   C633      1.0  0.17651  0.82639  0.19348  1.0000
  H   H1049     1.0  0.17258  0.78534  0.17485  1.0000
  H   H1050     1.0  0.19151  0.81228  0.15616  1.0000
  H   H1051     1.0  0.19077  0.85776  0.18500  1.0000
  C   C634      1.0  0.43971  0.78792  0.10887  1.0000
  N   N44       1.0  0.26734  0.81533  0.18630  1.0000
  C   C635      1.0  0.26515  0.79147  0.18393  1.0000
  C   C636      1.0  0.29344  0.81611  0.18390  1.0000
  C   C637      1.0  0.25490  0.83351  0.17589  1.0000
  C   C638      1.0  0.25562  0.81827  0.20080  1.0000
  C   C639      1.0  0.23966  0.78758  0.18451  1.0000
  C   C640      1.0  0.30849  0.79867  0.19388  1.0000
  C   C641      1.0  0.26239  0.85767  0.17222  1.0000
  C   C642      1.0  0.25826  0.84014  0.20618  1.0000
  H   H1052     1.0  0.27512  0.78779  0.17367  1.0000
  H   H1053     1.0  0.27310  0.77734  0.19169  1.0000
  H   H1054     1.0  0.29680  0.83369  0.18427  1.0000
  H   H1055     1.0  0.30131  0.81275  0.17329  1.0000
  H   H1056     1.0  0.25740  0.82705  0.16584  1.0000
  H   H1057     1.0  0.23547  0.83687  0.17939  1.0000
  H   H1058     1.0  0.23614  0.81924  0.20183  1.0000
  H   H1059     1.0  0.26125  0.80254  0.20838  1.0000
  H   H1060     1.0  0.24046  0.76980  0.18216  1.0000
  H   H1061     1.0  0.22890  0.78845  0.19484  1.0000
  H   H1062     1.0  0.23036  0.80010  0.17668  1.0000
  H   H1063     1.0  0.48813  0.80054  0.21114  1.0000
  N   N45       1.0  0.31875  0.66334  0.13478  1.0000
  H   H1064     1.0  0.03872  0.80932  0.00446  1.0000
  H   H1065     1.0  0.26198  0.86578  0.18133  1.0000
  H   H1066     1.0  0.24983  0.86977  0.16580  1.0000
  H   H1067     1.0  0.28020  0.85655  0.16587  1.0000
  H   H1068     1.0  0.24390  0.85518  0.20354  1.0000
  H   H1069     1.0  0.27567  0.84539  0.20255  1.0000
  H   H1070     1.0  0.25694  0.83621  0.21760  1.0000
  N   N46       1.0  0.39830  0.80764  0.11981  1.0000
  C   C643      1.0  0.38669  0.82323  0.13042  1.0000
  C   C644      1.0  0.38977  0.78462  0.12419  1.0000
  C   C645      1.0  0.39170  0.81850  0.10583  1.0000
  C   C646      1.0  0.42479  0.80427  0.11894  1.0000
  C   C647      1.0  0.39141  0.84851  0.12728  1.0000
  H   H1071     1.0  0.35832  0.71143  0.20636  1.0000
  C   C648      1.0  0.36483  0.82546  0.10521  1.0000
  C   C649      1.0  0.15353  0.98840  0.04724  1.0000
  H   H1072     1.0  0.36717  0.82453  0.13215  1.0000
  H   H1073     1.0  0.39236  0.81558  0.14059  1.0000
  H   H1074     1.0  0.39478  0.74155  0.20888  1.0000
  C   C650      1.0  0.49506  0.70125  0.17645  1.0000
  H   H1075     1.0  0.39975  0.83430  0.10159  1.0000
  H   H1076     1.0  0.39885  0.77698  0.14528  1.0000
  H   H1077     1.0  0.43080  0.82133  0.11546  1.0000
  H   H1078     1.0  0.43046  0.79824  0.12929  1.0000
  H   H1079     1.0  0.38094  0.85811  0.13565  1.0000
  H   H1080     1.0  0.41024  0.84904  0.12729  1.0000
  H   H1081     1.0  0.38558  0.85832  0.11753  1.0000
  C   C651      1.0  0.17583  0.95544  0.06110  1.0000
  H   H1082     1.0  0.43668  0.83567  0.23255  1.0000
  C   C652      1.0  0.02169  0.66467  0.21264  1.0000
  H   H1083     1.0  0.35604  0.83969  0.11126  1.0000
  H   H1084     1.0  0.35566  0.81031  0.10872  1.0000
  H   H1085     1.0  0.29696  0.67155  0.11855  1.0000
  H   H1086     1.0  0.14326  0.88529  0.99352  1.0000
  H   H1087     1.0  0.00541  0.65994  0.23390  1.0000
  C   C653      1.0  0.42537  0.71520  0.21205  1.0000
  H   H1088     1.0  0.44448  0.79815  0.09855  1.0000
  H   H1089     1.0  0.19824  0.73775  0.17952  1.0000
  C   C654      1.0  0.02460  0.85989  0.99760  1.0000
  H   H1090     1.0  0.20501  0.66155  0.16645  1.0000
  C   C655      1.0  0.13836  0.69045  0.23211  1.0000
  C   C656      1.0  0.15091  0.70873  0.22727  1.0000
  C   C657      1.0  0.45530  0.84260  0.21242  1.0000
  H   H1091     1.0  0.03821  0.80244  0.03650  1.0000
  H   H1092     1.0  0.05533  0.97310  0.00973  1.0000
  C   C658      1.0  0.15995  0.71825  0.23649  1.0000
  H   H1093     1.0  0.35794  0.67345  0.23588  1.0000
  H   H1094     1.0  0.39833  0.71797  0.19963  1.0000
  C   C659      1.0  0.05136  0.81621  0.00899  1.0000
  H   H1095     1.0  0.15352  0.71573  0.21642  1.0000
  C   C660      1.0  0.49508  0.76835  0.22518  1.0000
  H   H1096     1.0  0.29656  0.69792  0.13292  1.0000
  H   H1097     1.0  0.04385  0.85479  0.03222  1.0000
  N   N47       1.0  0.38165  0.71096  0.22083  1.0000
  H   H1098     1.0  0.47881  0.71132  0.18192  1.0000
  H   H1099     1.0  0.46620  0.66574  0.20631  1.0000
  C   C661      1.0  0.01933  0.85029  0.01311  1.0000
  H   H1100     1.0  0.35810  0.75368  0.20405  1.0000
  H   H1101     1.0  0.33209  0.70151  0.11439  1.0000
  H   H1102     1.0  0.07318  0.74770  0.21854  1.0000
  C   C662      1.0  0.34796  0.74487  0.21336  1.0000
  H   H1103     1.0  0.09501  0.96416  0.06526  1.0000
  S   S210      1.0  0.41161  0.77292  0.22230  1.0000
  C   C663      1.0  0.46753  0.66608  0.19507  1.0000
  H   H1104     1.0  0.17869  0.74253  0.19510  1.0000
  H   H1105     1.0  0.22316  0.67900  0.15429  1.0000
  C   C664      1.0  0.20047  0.80410  0.07371  1.0000
  C   C665      1.0  0.15487  0.70635  0.16468  1.0000
  H   H1106     1.0  0.45622  0.77860  0.11297  1.0000
  H   H1107     1.0  0.15092  0.72154  0.19133  1.0000
  C   C666      1.0  0.38667  0.81461  0.23014  1.0000
  H   H1108     1.0  0.19377  0.71527  0.13363  1.0000
  H   H1109     1.0  0.39287  0.77457  0.11549  1.0000
  H   H1110     1.0  0.05602  0.80166  0.22267  1.0000
  H   H1111     1.0  0.41900  0.66790  0.17759  1.0000
  H   H1112     1.0  0.08776  0.80837  0.23383  1.0000
  H   H1113     1.0  0.17724  0.94464  0.05289  1.0000
  C   C667      1.0  0.24714  0.72970  0.11916  1.0000
  H   H1114     1.0  0.36293  0.72841  0.17778  1.0000
  H   H1115     1.0  0.25713  0.74343  0.11824  1.0000
  H   H1116     1.0  0.20911  0.81821  0.07525  1.0000
  H   H1117     1.0  0.16887  0.83139  0.07051  1.0000
  C   C668      1.0  0.38964  0.68459  0.22210  1.0000
  H   H1118     1.0  0.39077  0.75325  0.13973  1.0000
  H   H1119     1.0  0.18234  0.82001  0.09707  1.0000
  H   H1120     1.0  0.19178  0.96371  0.05856  1.0000
  H   H1121     1.0  0.18393  0.76227  0.06488  1.0000
  H   H1122     1.0  0.32684  0.80229  0.19161  1.0000
  C   C669      1.0  0.19511  0.75593  0.07317  1.0000
  H   H1123     1.0  0.18136  0.78965  0.11760  1.0000
  H   H1124     1.0  0.16797  0.80384  0.06541  1.0000
  C   C670      1.0  0.38169  0.71941  0.23413  1.0000
  C   C671      1.0  0.00735  0.67490  0.22544  1.0000
  H   H1125     1.0  0.01958  0.68433  0.22856  1.0000
  C   C672      1.0  0.17577  0.80414  0.09618  1.0000
  C   C673      1.0  0.18425  0.76813  0.08590  1.0000
  H   H1126     1.0  0.19480  0.73688  0.07610  1.0000
  H   H1127     1.0  0.34739  0.75353  0.22233  1.0000
  H   H1128     1.0  0.35148  0.67349  0.15011  1.0000
  C   C674      1.0  0.18325  0.67199  0.19637  1.0000
  C   C675      1.0  0.41299  0.68658  0.17522  1.0000
  H   H1129     1.0  0.18575  0.75449  0.09525  1.0000
  H   H1130     1.0  0.18663  0.82313  0.05512  1.0000
  C   C676      1.0  0.13285  0.96090  0.06427  1.0000
  C   C677      1.0  0.16751  0.79246  0.11097  1.0000
  H   H1131     1.0  0.08291  0.71640  0.22331  1.0000
  C   C678      1.0  0.16568  0.72330  0.18257  1.0000
  H   H1132     1.0  0.15933  0.81067  0.09144  1.0000
  H   H1133     1.0  0.45733  0.68277  0.19038  1.0000
  H   H1134     1.0  0.32947  0.74766  0.21128  1.0000
  H   H1135     1.0  0.36212  0.83223  0.09436  1.0000
  H   H1136     1.0  0.08810  0.75652  0.23743  1.0000
  H   H1137     1.0  0.16175  0.77571  0.11127  1.0000
  H   H1138     1.0  0.19674  0.92672  0.07334  1.0000
  H   H1139     1.0  0.17032  0.98963  0.07380  1.0000
  H   H1140     1.0  0.30173  0.80069  0.20479  1.0000
  N   N48       1.0  0.15333  0.97379  0.06138  1.0000
  H   H1141     1.0  0.12153  0.69826  0.17759  1.0000
  H   H1142     1.0  0.39897  0.67951  0.21200  1.0000
  Fe  Fe107     1.0  0.15728  0.79127  0.22540  1.0000
  H   H1143     1.0  0.16493  0.77362  0.08531  1.0000
  H   H1144     1.0  0.43948  0.85343  0.20814  1.0000
  C   C679      1.0  0.27583  0.66084  0.14630  1.0000
  H   H1145     1.0  0.20229  0.66841  0.19200  1.0000
  H   H1146     1.0  0.43417  0.81648  0.22146  1.0000
  C   C680      1.0  0.20472  0.67864  0.15956  1.0000
  C   C681      1.0  0.39374  0.79045  0.23401  1.0000
  C   C682      1.0  0.42949  0.70093  0.16916  1.0000
  H   H1147     1.0  0.19050  0.98659  0.03714  1.0000
  H   H1148     1.0  0.13493  0.94910  0.05651  1.0000
  H   H1149     1.0  0.41935  0.76036  0.13325  1.0000
  C   C683      1.0  0.18617  0.72947  0.18809  1.0000
  C   C684      1.0  0.02537  0.81618  0.03109  1.0000
  H   H1150     1.0  0.16968  0.73236  0.23263  1.0000
  H   H1151     1.0  0.35029  0.69762  0.12776  1.0000
  H   H1152     1.0  0.27045  0.65893  0.13661  1.0000
  C   C685      1.0  0.05178  0.80606  0.23297  1.0000
  C   C686      1.0  0.31379  0.66008  0.12108  1.0000
  H   H1153     1.0  0.12342  0.72901  0.17475  1.0000
  H   H1154     1.0  0.11811  0.71586  0.16130  1.0000
  H   H1155     1.0  0.20959  0.69742  0.17454  1.0000
  H   H1156     1.0  0.48658  0.69610  0.20406  1.0000
  H   H1157     1.0  0.08224  0.86257  0.02078  1.0000
  H   H1158     1.0  0.06194  0.87107  0.00880  1.0000
  H   H1159     1.0  0.19662  0.71439  0.19402  1.0000
  H   H1160     1.0  0.36001  0.67074  0.21804  1.0000
  H   H1161     1.0  0.16912  0.66540  0.17947  1.0000
  H   H1162     1.0  0.06513  0.82849  0.03209  1.0000
  N   N49       1.0  0.00438  0.99083  0.01652  1.0000
  C   C687      1.0  0.21159  0.71366  0.12799  1.0000
  H   H1163     1.0  0.04243  0.86425  0.99424  1.0000
  H   H1164     1.0  0.21177  0.67975  0.12302  1.0000
  C   C688      1.0  0.47801  0.79083  0.22004  1.0000
  C   C689      1.0  0.25712  0.70983  0.11282  1.0000
  H   H1165     1.0  0.27469  0.70847  0.10687  1.0000
  S   S211      1.0  0.12733  0.67873  0.22035  1.0000
  H   H1166     1.0  0.39920  0.80623  0.09828  1.0000
  H   H1167     1.0  0.15693  0.69056  0.15974  1.0000
  N   N50       1.0  0.03799  0.83147  0.01945  1.0000
  C   C690      1.0  0.38902  0.69648  0.17844  1.0000
  C   C691      1.0  0.17904  0.93836  0.07468  1.0000
  H   H1168     1.0  0.01466  0.86551  0.01873  1.0000
  H   H1169     1.0  0.01924  0.83616  0.04842  1.0000
  C   C692      1.0  0.07148  0.85565  0.01501  1.0000
  H   H1170     1.0  0.46427  0.85494  0.21561  1.0000
  H   H1171     1.0  0.44796  0.69317  0.16666  1.0000
  H   H1172     1.0  0.08281  0.80018  0.01921  1.0000
  C   C693      1.0  0.39915  0.72214  0.20987  1.0000
  S   S212      1.0  0.00706  0.80124  0.23152  1.0000
  C   C694      1.0  0.48337  0.81694  0.23591  1.0000
  H   H1173     1.0  0.01147  0.87613  0.99513  1.0000
  H   H1174     1.0  0.19405  0.67962  0.15136  1.0000
  C   C695      1.0  0.35772  0.71825  0.21608  1.0000
  C   C696      1.0  0.24458  0.69155  0.11440  1.0000
  C   C697      1.0  0.22175  0.69357  0.12196  1.0000
  H   H1175     1.0  0.06117  0.82647  0.00022  1.0000
  H   H1176     1.0  0.10246  0.98431  0.07400  1.0000
  C   C698      1.0  0.10777  0.97591  0.06462  1.0000
  S   S213      1.0  0.25780  0.66595  0.10733  1.0000
  C   C699      1.0  0.40045  0.76808  0.13630  1.0000
  H   H1177     1.0  0.14877  0.68256  0.19074  1.0000
  H   H1178     1.0  0.15914  0.73957  0.17557  1.0000
  H   H1179     1.0  0.07991  0.78690  0.00518  1.0000
  C   C700      1.0  0.05426  0.84217  0.02539  1.0000
  H   H1180     1.0  0.15924  0.72069  0.15617  1.0000
  H   H1181     1.0  0.36904  0.84727  0.23707  1.0000
  C   C701      1.0  0.31457  0.68924  0.13531  1.0000
  N   N51       1.0  0.17138  0.70217  0.17523  1.0000
  C   C702      1.0  0.19640  0.69953  0.16754  1.0000
  H   H1182     1.0  0.19867  0.71580  0.16005  1.0000
  H   H1183     1.0  0.31478  0.69243  0.14589  1.0000
  H   H1184     1.0  0.43073  0.77404  0.10756  1.0000
  H   H1185     1.0  0.03065  0.88960  0.05857  1.0000
  H   H1186     1.0  0.30996  0.78029  0.19242  1.0000
  S   S214      1.0  0.36871  0.67866  0.18668  1.0000
  H   H1187     1.0  0.46446  0.78519  0.21557  1.0000
  H   H1188     1.0  0.17836  0.94760  0.08343  1.0000
  H   H1189     1.0  0.32760  0.66571  0.11258  1.0000
  N   N52       1.0  0.46612  0.80618  0.23075  1.0000
  H   H1190     1.0  0.46662  0.83416  0.20393  1.0000
  C   C703      1.0  0.25593  0.66753  0.23685  1.0000
  H   H1191     1.0  0.00256  0.84365  0.01412  1.0000
  C   C704      1.0  0.44707  0.82482  0.22477  1.0000
  H   H1192     1.0  0.10396  0.73529  0.21762  1.0000
  H   H1193     1.0  0.43190  0.69604  0.21315  1.0000
  H   H1194     1.0  0.08417  0.84434  0.00823  1.0000
  H   H1195     1.0  0.01433  0.80667  0.02699  1.0000
  H   H1196     1.0  0.04236  0.73353  0.23395  1.0000
  C   C705      1.0  0.08622  0.73390  0.22374  1.0000
  H   H1197     1.0  0.48505  0.75458  0.23083  1.0000
  H   H1198     1.0  0.13245  0.94928  0.07442  1.0000
  H   H1199     1.0  0.16596  0.92660  0.07742  1.0000
  C   C706      1.0  0.00680  0.89720  0.04359  1.0000
  H   H1200     1.0  0.26215  0.67447  0.22595  1.0000
  C   C707      1.0  0.15219  0.98814  0.07253  1.0000
  H   H1201     1.0  0.10558  0.98901  0.05521  1.0000
  H   H1202     1.0  0.40282  0.67818  0.22935  1.0000
  H   H1203     1.0  0.04708  0.96831  0.02828  1.0000
  C   C708      1.0  0.04900  0.98176  0.01897  1.0000
  H   H1204     1.0  0.01160  0.95811  0.03043  1.0000
  H   H1205     1.0  0.02234  0.84713  0.99137  1.0000
  C   C709      1.0  0.00410  0.90601  0.02989  1.0000
  H   H1206     1.0  0.48875  0.69438  0.16845  1.0000
  H   H1207     1.0  0.22181  0.66729  0.23197  1.0000
  S   S215      1.0  0.18815  0.77530  0.23656  1.0000
  H   H1208     1.0  0.02108  0.98742  0.99559  1.0000
  C   C710      1.0  0.37034  0.66932  0.22652  1.0000
  H   H1209     1.0  0.49801  0.73413  0.16281  1.0000
  H   H1210     1.0  0.12136  0.87621  0.23699  1.0000
  H   H1211     1.0  0.49876  0.78628  0.17966  1.0000
  H   H1212     1.0  0.00012  0.98220  0.03891  1.0000
  N   N53       1.0  0.06493  0.73315  0.24913  1.0000
  C   C711      1.0  0.37609  0.95187  0.45080  1.0000
  S   S216      1.0  0.20628  0.82536  0.24895  1.0000
  C   C712      1.0  0.40384  0.97518  0.48078  1.0000
  Fe  Fe108     1.0  0.16147  0.76035  0.25292  1.0000
  S   S217      1.0  0.16673  0.72246  0.26207  1.0000
  S   S218      1.0  0.15290  0.79039  0.26473  1.0000
  H   H1213     1.0  0.45351  0.72255  0.45728  1.0000
  Fe  Fe109     1.0  0.29149  0.80184  0.30177  1.0000
  S   S219      1.0  0.31320  0.78981  0.28266  1.0000
  S   S220      1.0  0.25151  0.80713  0.30389  1.0000
  Fe  Fe110     1.0  0.33500  0.79843  0.31556  1.0000
  S   S221      1.0  0.35989  0.78554  0.29740  1.0000
  S   S222      1.0  0.35372  0.79958  0.33340  1.0000
  Fe  Fe111     1.0  0.33702  0.81340  0.28472  1.0000
  S   S223      1.0  0.35312  0.83569  0.26608  1.0000
  Fe  Fe112     1.0  0.33398  0.76290  0.29698  1.0000
  S   S224      1.0  0.34522  0.72695  0.29071  1.0000
  S   S225      1.0  0.31368  0.82816  0.30277  1.0000
  S   S226      1.0  0.31072  0.77311  0.31622  1.0000
  C   C713      1.0  0.41758  0.71698  0.48385  1.0000
  H   H1214     1.0  0.44084  0.77656  0.45043  1.0000
  Fe  Fe113     1.0  0.40120  0.91832  0.38958  1.0000
  S   S227      1.0  0.43771  0.89745  0.39101  1.0000
  Fe  Fe114     1.0  0.39338  0.89185  0.36766  1.0000
  S   S228      1.0  0.42965  0.86927  0.36724  1.0000
  S   S229      1.0  0.36721  0.89115  0.35352  1.0000
  Fe  Fe115     1.0  0.42202  0.86652  0.39025  1.0000
  S   S230      1.0  0.43448  0.83325  0.40411  1.0000
  Fe  Fe116     1.0  0.44222  0.90218  0.36801  1.0000
  S   S231      1.0  0.47628  0.90986  0.35493  1.0000
  S   S232      1.0  0.38474  0.88673  0.39086  1.0000
  S   S233      1.0  0.40670  0.92545  0.36643  1.0000
  C   C714      1.0  0.42399  0.83619  0.42133  1.0000
  C   C715      1.0  0.44010  0.83168  0.43065  1.0000
  C   C716      1.0  0.43193  0.83303  0.44459  1.0000
  C   C717      1.0  0.40760  0.83766  0.44940  1.0000
  C   C718      1.0  0.39145  0.84258  0.44003  1.0000
  C   C719      1.0  0.39968  0.84223  0.42594  1.0000
  H   H1215     1.0  0.45893  0.82740  0.42705  1.0000
  H   H1216     1.0  0.44453  0.83065  0.45155  1.0000
  H   H1217     1.0  0.37259  0.84634  0.44367  1.0000
  H   H1218     1.0  0.38719  0.84576  0.41872  1.0000
  H   H1219     1.0  0.40907  0.97793  0.36413  1.0000
  H   H1220     1.0  0.12276  0.84727  0.25768  1.0000
  H   H1221     1.0  0.43718  0.98145  0.45378  1.0000
  H   H1222     1.0  0.38737  0.77783  0.43533  1.0000
  H   H1223     1.0  0.46579  0.93278  0.37900  1.0000
  Fe  Fe117     1.0  0.17722  0.80685  0.24725  1.0000
  C   C720      1.0  0.35604  0.82496  0.33965  1.0000
  C   C721      1.0  0.34129  0.84663  0.33644  1.0000
  C   C722      1.0  0.34451  0.86661  0.34109  1.0000
  C   C723      1.0  0.36247  0.86515  0.34899  1.0000
  C   C724      1.0  0.37689  0.84337  0.35244  1.0000
  C   C725      1.0  0.37361  0.82339  0.34783  1.0000
  H   H1224     1.0  0.32743  0.84798  0.33037  1.0000
  H   H1225     1.0  0.33314  0.88334  0.33847  1.0000
  H   H1226     1.0  0.39074  0.84197  0.35853  1.0000
  H   H1227     1.0  0.38498  0.80667  0.35047  1.0000
  C   C726      1.0  0.32694  0.70706  0.29924  1.0000
  C   C727      1.0  0.32367  0.68969  0.29241  1.0000
  C   C728      1.0  0.30871  0.67392  0.29898  1.0000
  C   C729      1.0  0.29752  0.67508  0.31254  1.0000
  C   C730      1.0  0.30087  0.69237  0.31938  1.0000
  C   C731      1.0  0.31556  0.70834  0.31275  1.0000
  H   H1228     1.0  0.33247  0.68864  0.28196  1.0000
  H   H1229     1.0  0.18977  0.89099  0.24395  1.0000
  H   H1230     1.0  0.29221  0.69333  0.32986  1.0000
  H   H1231     1.0  0.31821  0.72153  0.31812  1.0000
  C   C732      1.0  0.36807  0.81817  0.25368  1.0000
  C   C733      1.0  0.11947  0.91657  0.26466  1.0000
  H   H1232     1.0  0.38333  0.89974  0.47446  1.0000
  C   C734      1.0  0.37446  0.79390  0.25742  1.0000
  C   C735      1.0  0.45334  0.96825  0.45551  1.0000
  H   H1233     1.0  0.37916  0.76195  0.46159  1.0000
  H   H1234     1.0  0.36964  0.78572  0.26789  1.0000
  C   C736      1.0  0.21870  0.81959  0.26430  1.0000
  C   C737      1.0  0.24157  0.82381  0.26378  1.0000
  C   C738      1.0  0.25186  0.81983  0.27584  1.0000
  C   C739      1.0  0.23906  0.81226  0.28858  1.0000
  C   C740      1.0  0.21597  0.80850  0.28916  1.0000
  C   C741      1.0  0.20599  0.81167  0.27703  1.0000
  H   H1235     1.0  0.25143  0.83013  0.25401  1.0000
  H   H1236     1.0  0.26949  0.82320  0.27530  1.0000
  H   H1237     1.0  0.20598  0.80268  0.29900  1.0000
  H   H1238     1.0  0.18848  0.80810  0.27758  1.0000
  C   C742      1.0  0.15628  0.70968  0.25060  1.0000
  C   C743      1.0  0.14346  0.69165  0.25550  1.0000
  H   H1239     1.0  0.41504  0.88238  0.43370  1.0000
  H   H1240     1.0  0.41382  0.94282  0.44388  1.0000
  C   C744      1.0  0.01908  0.73999  0.25261  1.0000
  H   H1241     1.0  0.48996  0.95314  0.38896  1.0000
  H   H1242     1.0  0.14030  0.68520  0.26644  1.0000
  H   H1243     1.0  0.10211  0.74452  0.26049  1.0000
  S   S234      1.0  0.45120  0.84738  0.48041  1.0000
  C   C745      1.0  0.45502  0.95948  0.47093  1.0000
  H   H1244     1.0  0.48549  0.97498  0.35701  1.0000
  H   H1245     1.0  0.42079  0.86719  0.28974  1.0000
  C   C746      1.0  0.02304  0.81369  0.25313  1.0000
  Fe  Fe118     1.0  0.42764  0.82301  0.47911  1.0000
  H   H1246     1.0  0.43094  0.97847  0.34281  1.0000
  H   H1247     1.0  0.41507  0.85053  0.27207  1.0000
  C   C747      1.0  0.13029  0.89240  0.27213  1.0000
  H   H1248     1.0  0.12786  0.92072  0.25387  1.0000
  H   H1249     1.0  0.11633  0.88780  0.28083  1.0000
  H   H1250     1.0  0.44121  0.92438  0.42776  1.0000
  C   C748      1.0  0.36218  0.91008  0.43552  1.0000
  H   H1251     1.0  0.36453  0.72055  0.25525  1.0000
  H   H1252     1.0  0.39887  0.92420  0.47240  1.0000
  H   H1253     1.0  0.01513  0.75246  0.26008  1.0000
  H   H1254     1.0  0.40661  0.72995  0.45561  1.0000
  H   H1255     1.0  0.18377  0.67079  0.27640  1.0000
  C   C749      1.0  0.41311  0.90046  0.45711  1.0000
  C   C750      1.0  0.21182  0.66377  0.25915  1.0000
  H   H1256     1.0  0.10259  0.86622  0.26803  1.0000
  C   C751      1.0  0.41437  0.90156  0.43257  1.0000
  C   C752      1.0  0.39964  0.77816  0.44253  1.0000
  C   C753      1.0  0.42842  0.71413  0.43864  1.0000
  H   H1257     1.0  0.14635  0.82519  0.29069  1.0000
  N   N54       1.0  0.13867  0.87279  0.26371  1.0000
  H   H1258     1.0  0.43032  0.90641  0.45564  1.0000
  C   C754      1.0  0.11797  0.86577  0.25954  1.0000
  C   C755      1.0  0.41167  0.73540  0.44435  1.0000
  C   C756      1.0  0.40116  0.96709  0.40458  1.0000
  H   H1259     1.0  0.01888  0.72186  0.25806  1.0000
  C   C757      1.0  0.42246  0.99068  0.47943  1.0000
  H   H1260     1.0  0.08527  0.70126  0.25881  1.0000
  H   H1261     1.0  0.37009  0.89929  0.42727  1.0000
  H   H1262     1.0  0.00429  0.74505  0.24645  1.0000
  C   C758      1.0  0.04116  0.81763  0.25945  1.0000
  H   H1263     1.0  0.12438  0.66842  0.25013  1.0000
  C   C759      1.0  0.38754  0.78010  0.24764  1.0000
  C   C760      1.0  0.43841  0.80389  0.25430  1.0000
  H   H1264     1.0  0.39538  0.94418  0.43145  1.0000
  C   C761      1.0  0.42814  0.69328  0.48372  1.0000
  C   C762      1.0  0.49343  0.92335  0.36249  1.0000
  C   C763      1.0  0.45798  0.74018  0.45335  1.0000
  H   H1265     1.0  0.39298  0.78538  0.46391  1.0000
  H   H1266     1.0  0.40603  0.90934  0.42320  1.0000
  C   C764      1.0  0.43727  0.98310  0.39937  1.0000
  H   H1267     1.0  0.41186  0.89532  0.47923  1.0000
  H   H1268     1.0  0.44543  0.94456  0.47459  1.0000
  H   H1269     1.0  0.05994  0.76618  0.25663  1.0000
  C   C765      1.0  0.06465  0.81549  0.25259  1.0000
  C   C766      1.0  0.06985  0.80973  0.23931  1.0000
  H   H1270     1.0  0.42139  0.81387  0.25112  1.0000
  N   N55       1.0  0.44755  0.97783  0.48025  1.0000
  H   H1271     1.0  0.39290  0.76141  0.25071  1.0000
  H   H1272     1.0  0.12670  0.85236  0.29252  1.0000
  C   C767      1.0  0.13444  0.68210  0.24625  1.0000
  H   H1273     1.0  0.14458  0.89477  0.27740  1.0000
  H   H1274     1.0  0.36750  0.79203  0.45561  1.0000
  C   C768      1.0  0.38129  0.65986  0.31144  1.0000
  S   S235      1.0  0.08738  0.81967  0.26075  1.0000
  H   H1275     1.0  0.22443  0.67433  0.26064  1.0000
  H   H1276     1.0  0.49071  0.80514  0.24482  1.0000
  H   H1277     1.0  0.36065  0.92891  0.43109  1.0000
  H   H1278     1.0  0.43419  0.76444  0.40559  1.0000
  H   H1279     1.0  0.04865  0.74381  0.26892  1.0000
  H   H1280     1.0  0.36128  0.95838  0.44468  1.0000
  C   C769      1.0  0.40063  0.90554  0.47148  1.0000
  H   H1281     1.0  0.30606  0.66073  0.29359  1.0000
  N   N56       1.0  0.25129  0.73324  0.28706  1.0000
  C   C770      1.0  0.26272  0.74271  0.29663  1.0000
  C   C771      1.0  0.27052  0.72546  0.27565  1.0000
  C   C772      1.0  0.24094  0.71252  0.29518  1.0000
  C   C773      1.0  0.23230  0.75268  0.28176  1.0000
  C   C774      1.0  0.24766  0.74696  0.31067  1.0000
  C   C775      1.0  0.28442  0.74433  0.26735  1.0000
  C   C776      1.0  0.23634  0.69477  0.28700  1.0000
  C   C777      1.0  0.21889  0.74804  0.27097  1.0000
  H   H1282     1.0  0.27939  0.73064  0.29894  1.0000
  H   H1283     1.0  0.26799  0.75977  0.29172  1.0000
  H   H1284     1.0  0.26364  0.71833  0.26808  1.0000
  H   H1285     1.0  0.28371  0.71060  0.27996  1.0000
  H   H1286     1.0  0.25305  0.70188  0.30243  1.0000
  H   H1287     1.0  0.22388  0.71854  0.30174  1.0000
  H   H1288     1.0  0.21834  0.75781  0.29040  1.0000
  H   H1289     1.0  0.23936  0.76901  0.27751  1.0000
  H   H1290     1.0  0.24390  0.73044  0.31726  1.0000
  H   H1291     1.0  0.25791  0.75465  0.31635  1.0000
  H   H1292     1.0  0.23093  0.75969  0.30952  1.0000
  H   H1293     1.0  0.29675  0.73699  0.25870  1.0000
  H   H1294     1.0  0.27263  0.76013  0.26282  1.0000
  H   H1295     1.0  0.29561  0.74935  0.27370  1.0000
  H   H1296     1.0  0.22780  0.68131  0.29437  1.0000
  H   H1297     1.0  0.25314  0.68523  0.28184  1.0000
  H   H1298     1.0  0.22415  0.70272  0.27946  1.0000
  H   H1299     1.0  0.20291  0.74066  0.27605  1.0000
  H   H1300     1.0  0.22976  0.73667  0.26370  1.0000
  H   H1301     1.0  0.21296  0.76493  0.26437  1.0000
  S   S236      1.0  0.38499  0.94578  0.40339  1.0000
  H   H1302     1.0  0.40916  0.78236  0.41388  1.0000
  C   C778      1.0  0.42132  0.76510  0.41528  1.0000
  H   H1303     1.0  0.17376  0.90218  0.25909  1.0000
  H   H1304     1.0  0.46911  0.97577  0.45014  1.0000
  H   H1305     1.0  0.47049  0.74016  0.44357  1.0000
  C   C779      1.0  0.46493  0.97197  0.33060  1.0000
  H   H1306     1.0  0.40909  0.81603  0.31195  1.0000
  C   C780      1.0  0.15649  0.87874  0.25119  1.0000
  H   H1307     1.0  0.44751  0.71463  0.43689  1.0000
  C   C781      1.0  0.45402  0.79106  0.24275  1.0000
  H   H1308     1.0  0.42618  0.69797  0.44616  1.0000
  H   H1309     1.0  0.39508  0.73785  0.43985  1.0000
  H   H1310     1.0  0.45300  0.95941  0.35176  1.0000
  H   H1311     1.0  0.42315  0.71139  0.42906  1.0000
  H   H1312     1.0  0.16529  0.85635  0.27695  1.0000
  C   C782      1.0  0.06359  0.74701  0.26055  1.0000
  H   H1313     1.0  0.00505  0.81509  0.25852  1.0000
  H   H1314     1.0  0.46175  0.95557  0.32801  1.0000
  C   C783      1.0  0.42516  0.96513  0.39909  1.0000
  Fe  Fe119     1.0  0.12467  0.80519  0.25120  1.0000
  H   H1315     1.0  0.15985  0.83786  0.26635  1.0000
  H   H1316     1.0  0.44784  0.89999  0.41873  1.0000
  H   H1317     1.0  0.08853  0.72403  0.27377  1.0000
  S   S237      1.0  0.13133  0.77362  0.24096  1.0000
  S   S238      1.0  0.39740  0.83721  0.46707  1.0000
  H   H1318     1.0  0.45560  0.98198  0.39464  1.0000
  H   H1319     1.0  0.44767  0.81565  0.25779  1.0000
  H   H1320     1.0  0.47523  0.85542  0.40407  1.0000
  C   C784      1.0  0.39740  0.93757  0.44242  1.0000
  H   H1321     1.0  0.46749  0.74377  0.46112  1.0000
  C   C785      1.0  0.13510  0.84025  0.28506  1.0000
  H   H1322     1.0  0.41757  0.88100  0.45777  1.0000
  C   C786      1.0  0.06766  0.70755  0.25532  1.0000
  H   H1323     1.0  0.49114  0.88230  0.41047  1.0000
  H   H1324     1.0  0.44180  0.77938  0.42616  1.0000
  S   S239      1.0  0.45715  0.79464  0.47192  1.0000
  H   H1325     1.0  0.42091  0.82594  0.29418  1.0000
  H   H1326     1.0  0.19916  0.67672  0.25315  1.0000
  C   C787      1.0  0.38416  0.77906  0.45681  1.0000
  H   H1327     1.0  0.42506  0.75734  0.46274  1.0000
  H   H1328     1.0  0.38610  0.98670  0.48058  1.0000
  H   H1329     1.0  0.38133  0.96793  0.45250  1.0000
  C   C788      1.0  0.37638  0.90329  0.44769  1.0000
  C   C789      1.0  0.17854  0.88641  0.25397  1.0000
  C   C790      1.0  0.40530  0.82053  0.30118  1.0000
  H   H1330     1.0  0.16291  0.86342  0.24560  1.0000
  Fe  Fe120     1.0  0.48064  0.81778  0.47509  1.0000
  C   C791      1.0  0.43547  0.75912  0.45225  1.0000
  H   H1331     1.0  0.12134  0.83301  0.28186  1.0000
  H   H1332     1.0  0.03700  0.82212  0.26973  1.0000
  H   H1333     1.0  0.05495  0.70469  0.26500  1.0000
  C   C792      1.0  0.38976  0.98636  0.41116  1.0000
  C   C793      1.0  0.44017  0.90561  0.42885  1.0000
  C   C794      1.0  0.08577  0.74194  0.26775  1.0000
  C   C795      1.0  0.49239  0.85695  0.39731  1.0000
  C   C796      1.0  0.10854  0.87980  0.24638  1.0000
  N   N57       1.0  0.39991  0.91120  0.44513  1.0000
  H   H1334     1.0  0.10373  0.89886  0.24650  1.0000
  H   H1335     1.0  0.41124  0.75082  0.41646  1.0000
  C   C797      1.0  0.44964  0.97619  0.34450  1.0000
  S   S240      1.0  0.41453  0.67527  0.47666  1.0000
  H   H1336     1.0  0.10007  0.91814  0.26504  1.0000
  H   H1337     1.0  0.43414  0.95013  0.39426  1.0000
  H   H1338     1.0  0.34395  0.86478  0.28827  1.0000
  H   H1339     1.0  0.43358  0.79069  0.26334  1.0000
  H   H1340     1.0  0.36289  0.89822  0.30168  1.0000
  H   H1341     1.0  0.45148  0.89476  0.43635  1.0000
  H   H1342     1.0  0.36946  0.94278  0.46103  1.0000
  C   C798      1.0  0.34691  0.88193  0.28972  1.0000
  H   H1343     1.0  0.35022  0.87415  0.31118  1.0000
  H   H1344     1.0  0.40736  0.88490  0.32515  1.0000
  H   H1345     1.0  0.45206  0.95341  0.45055  1.0000
  C   C799      1.0  0.36143  0.87991  0.30136  1.0000
  H   H1346     1.0  0.32903  0.89251  0.29249  1.0000
  H   H1347     1.0  0.40258  0.80417  0.29834  1.0000
  H   H1348     1.0  0.34393  0.90660  0.43916  1.0000
  C   C800      1.0  0.36299  0.71244  0.24638  1.0000
  C   C801      1.0  0.39674  0.88773  0.31664  1.0000
  H   H1349     1.0  0.37884  0.89704  0.32060  1.0000
  H   H1350     1.0  0.40521  0.89898  0.30777  1.0000
  H   H1351     1.0  0.35494  0.89140  0.27991  1.0000
  H   H1352     1.0  0.37895  0.88392  0.45060  1.0000
  C   C802      1.0  0.43487  0.76280  0.42745  1.0000
  H   H1353     1.0  0.08319  0.75443  0.27514  1.0000
  H   H1354     1.0  0.36441  0.90995  0.45661  1.0000
  H   H1355     1.0  0.38571  0.85437  0.32227  1.0000
  H   H1356     1.0  0.39904  0.89288  0.28648  1.0000
  C   C803      1.0  0.04253  0.74210  0.24282  1.0000
  N   N58       1.0  0.38551  0.86411  0.30027  1.0000
  C   C804      1.0  0.39575  0.86371  0.31314  1.0000
  H   H1357     1.0  0.36895  0.83405  0.30888  1.0000
  H   H1358     1.0  0.40558  0.79525  0.43926  1.0000
  H   H1359     1.0  0.45094  0.74917  0.42585  1.0000
  H   H1360     1.0  0.12238  0.93048  0.26985  1.0000
  H   H1361     1.0  0.05973  0.67452  0.25269  1.0000
  C   C805      1.0  0.38263  0.83941  0.30015  1.0000
  C   C806      1.0  0.40206  0.87338  0.28792  1.0000
  H   H1362     1.0  0.41423  0.85358  0.31255  1.0000
  H   H1363     1.0  0.37572  0.83782  0.29088  1.0000
  H   H1364     1.0  0.38388  0.86310  0.27268  1.0000
  C   C807      1.0  0.15096  0.85181  0.27263  1.0000
  C   C808      1.0  0.40122  0.86617  0.27398  1.0000
  H   H1365     1.0  0.40569  0.88044  0.26553  1.0000
  N   N59       1.0  0.42067  0.75820  0.44161  1.0000
  H   H1366     1.0  0.37574  0.67889  0.30769  1.0000
  H   H1367     1.0  0.18981  0.87207  0.26001  1.0000
  H   H1368     1.0  0.36603  0.69327  0.24987  1.0000
  H   H1369     1.0  0.34463  0.71901  0.24417  1.0000
  C   C809      1.0  0.06599  0.69005  0.24609  1.0000
  H   H1370     1.0  0.40706  0.96530  0.47206  1.0000
  H   H1371     1.0  0.40088  0.72375  0.48007  1.0000
  C   C810      1.0  0.48385  0.93345  0.37434  1.0000
  H   H1372     1.0  0.48420  0.96906  0.33095  1.0000
  H   H1373     1.0  0.47391  0.95105  0.47123  1.0000
  H   H1374     1.0  0.14857  0.89289  0.24350  1.0000
  H   H1375     1.0  0.09220  0.87383  0.24546  1.0000
  H   H1376     1.0  0.48822  0.86125  0.38661  1.0000
  H   H1377     1.0  0.46729  0.77740  0.24790  1.0000
  H   H1378     1.0  0.48281  0.98641  0.47535  1.0000
  H   H1379     1.0  0.25019  0.68279  0.24240  1.0000
  H   H1380     1.0  0.44654  0.97809  0.37161  1.0000
  H   H1381     1.0  0.10283  0.72723  0.24190  1.0000
  H   H1382     1.0  0.37121  0.98789  0.41555  1.0000
  C   C811      1.0  0.02835  0.80791  0.23984  1.0000
  H   H1383     1.0  0.45965  0.98615  0.32216  1.0000
  H   H1384     1.0  0.49473  0.85267  0.48244  1.0000
  H   H1385     1.0  0.35152  0.66095  0.32754  1.0000
  H   H1386     1.0  0.05301  0.69676  0.23891  1.0000
  C   C812      1.0  0.37418  0.82852  0.24002  1.0000
  H   H1387     1.0  0.44269  0.78131  0.23913  1.0000
  H   H1388     1.0  0.08360  0.68389  0.24023  1.0000
  H   H1389     1.0  0.04160  0.76086  0.23828  1.0000
  H   H1390     1.0  0.47407  0.83332  0.23998  1.0000
  C   C813      1.0  0.08616  0.73787  0.23853  1.0000
  C   C814      1.0  0.49746  0.94514  0.37987  1.0000
  H   H1391     1.0  0.49813  0.89235  0.39261  1.0000
  H   H1392     1.0  0.39476  0.65837  0.31817  1.0000
  N   N60       1.0  0.35082  0.96215  0.56743  1.0000
  H   H1393     1.0  0.34719  0.98306  0.59210  1.0000
  H   H1394     1.0  0.39969  0.92063  0.57805  1.0000
  H   H1395     1.0  0.48441  0.96891  0.49788  1.0000
  H   H1396     1.0  0.48351  0.94179  0.49218  1.0000
  S   S241      1.0  0.45692  0.84661  0.51949  1.0000
  S   S242      1.0  0.43373  0.96330  0.55824  1.0000
  C   C815      1.0  0.35921  0.96165  0.55223  1.0000
  H   H1397     1.0  0.40293  0.96299  0.49070  1.0000
  H   H1398     1.0  0.38505  0.96268  0.57262  1.0000
  H   H1399     1.0  0.43976  0.97787  0.50237  1.0000
  S   S243      1.0  0.48262  0.80087  0.49687  1.0000
  C   C816      1.0  0.47376  0.95523  0.49856  1.0000
  H   H1400     1.0  0.32841  0.94447  0.58430  1.0000
  H   H1401     1.0  0.30725  0.95066  0.55809  1.0000
  H   H1402     1.0  0.33755  0.92996  0.57003  1.0000
  H   H1403     1.0  0.43877  0.95116  0.49741  1.0000
  H   H1404     1.0  0.40287  0.92121  0.50744  1.0000
  S   S244      1.0  0.45277  0.98953  0.52757  1.0000
  C   C817      1.0  0.44368  0.87615  0.52061  1.0000
  C   C818      1.0  0.42702  0.88863  0.51221  1.0000
  C   C819      1.0  0.41615  0.91185  0.51374  1.0000
  C   C820      1.0  0.42219  0.92289  0.52347  1.0000
  C   C821      1.0  0.43921  0.91062  0.53165  1.0000
  C   C822      1.0  0.44970  0.88724  0.53033  1.0000
  H   H1405     1.0  0.42210  0.88016  0.50480  1.0000
  H   H1406     1.0  0.44390  0.91893  0.53922  1.0000
  H   H1407     1.0  0.46226  0.87763  0.53701  1.0000
  Fe  Fe121     1.0  0.46304  0.98307  0.54864  1.0000
  H   H1408     1.0  0.47190  0.94626  0.50944  1.0000
  H   H1409     1.0  0.37359  0.91336  0.57458  1.0000
  C   C823      1.0  0.45944  0.69917  0.49488  1.0000
  H   H1410     1.0  0.32602  0.97895  0.54377  1.0000
  S   S245      1.0  0.42475  0.80728  0.50162  1.0000
  H   H1411     1.0  0.39352  0.92718  0.56085  1.0000
  C   C824      1.0  0.33359  0.99022  0.58525  1.0000
  C   C825      1.0  0.38507  0.92670  0.57178  1.0000
  C   C826      1.0  0.37166  0.95111  0.57495  1.0000
  C   C827      1.0  0.44938  0.72306  0.49454  1.0000
  Fe  Fe122     1.0  0.45162  0.82921  0.50224  1.0000
  H   H1412     1.0  0.37766  0.96493  0.54941  1.0000
  H   H1413     1.0  0.29333  0.95112  0.57572  1.0000
  C   C828      1.0  0.44875  0.96581  0.49490  1.0000
  C   C829      1.0  0.33166  0.94786  0.57282  1.0000
  Fe  Fe123     1.0  0.42149  0.97314  0.53755  1.0000
  S   S246      1.0  0.46336  0.74123  0.50123  1.0000
  H   H1414     1.0  0.47516  0.69185  0.49958  1.0000
  S   S247      1.0  0.40774  0.95183  0.52531  1.0000
  H   H1415     1.0  0.36008  0.94393  0.54967  1.0000
  Fe  Fe124     1.0  0.45595  0.78046  0.49433  1.0000
  C   C830      1.0  0.30755  0.95726  0.56771  1.0000
  H   H1416     1.0  0.36617  0.94905  0.58631  1.0000
  H   H1417     1.0  0.31755  0.98243  0.58927  1.0000
  H   H1418     1.0  0.30247  0.97657  0.56610  1.0000
  C   C831      1.0  0.34317  0.98713  0.57013  1.0000
  H   H1419     1.0  0.35221  0.97549  0.53137  1.0000
  C   C832      1.0  0.34511  0.97954  0.54194  1.0000
  C   C833      1.0  0.44918  0.68447  0.48923  1.0000
  H   H1420     1.0  0.45725  0.66620  0.48945  1.0000
  C   C834      1.0  0.42836  0.73192  0.48902  1.0000
  H   H1421     1.0  0.42006  0.75012  0.48907  1.0000
  H   H1422     1.0  0.49845  0.78103  0.52730  1.0000
  Fe  Fe125     1.0  0.09287  0.82413  0.95979  1.0000
  S   S248      1.0  0.09162  0.82807  0.93728  1.0000
  S   S249      1.0  0.05850  0.82149  0.97361  1.0000
  Fe  Fe126     1.0  0.14453  0.82624  0.95516  1.0000
  S   S250      1.0  0.14757  0.83017  0.93210  1.0000
  H   H1423     1.0  0.21554  0.84490  0.96666  1.0000
  Fe  Fe127     1.0  0.11325  0.85574  0.93506  1.0000
  S   S251      1.0  0.09985  0.88954  0.92181  1.0000
  Fe  Fe128     1.0  0.12554  0.80193  0.93660  1.0000
  S   S252      1.0  0.13096  0.77365  0.92324  1.0000
  S   S253      1.0  0.11178  0.85391  0.95775  1.0000
  S   S254      1.0  0.12537  0.79592  0.95944  1.0000
  C   C835      1.0  0.18081  0.88332  0.98688  1.0000
  H   H1424     1.0  0.08723  0.97976  0.93214  1.0000
  C   C836      1.0  0.11591  0.91225  0.91962  1.0000
  C   C837      1.0  0.13630  0.90933  0.92567  1.0000
  C   C838      1.0  0.14823  0.92816  0.92408  1.0000
  C   C839      1.0  0.13964  0.95000  0.91661  1.0000
  C   C840      1.0  0.11966  0.95260  0.91025  1.0000
  C   C841      1.0  0.10777  0.93384  0.91182  1.0000
  H   H1425     1.0  0.14286  0.89260  0.93157  1.0000
  H   H1426     1.0  0.16405  0.92582  0.92872  1.0000
  H   H1427     1.0  0.11332  0.96901  0.90408  1.0000
  H   H1428     1.0  0.09225  0.93608  0.90692  1.0000
  C   C842      1.0  0.13163  0.74389  0.93052  1.0000
  C   C843      1.0  0.13853  0.72683  0.92181  1.0000
  C   C844      1.0  0.01167  0.79519  0.95910  1.0000
  C   C845      1.0  0.13083  0.71271  0.95027  1.0000
  C   C846      1.0  0.12711  0.73676  0.94477  1.0000
  H   H1429     1.0  0.14216  0.73219  0.91078  1.0000
  C   C847      1.0  0.05340  0.71150  0.92930  1.0000
  H   H1430     1.0  0.12145  0.74974  0.95156  1.0000
  C   C848      1.0  0.04596  0.80392  0.96599  1.0000
  C   C849      1.0  0.06079  0.78929  0.95724  1.0000
  C   C850      1.0  0.05119  0.77837  0.94903  1.0000
  C   C851      1.0  0.02667  0.78180  0.94967  1.0000
  C   C852      1.0  0.09459  0.98072  0.94142  1.0000
  C   C853      1.0  0.02135  0.80629  0.96731  1.0000
  H   H1431     1.0  0.07980  0.78679  0.95649  1.0000
  H   H1432     1.0  0.06292  0.76780  0.94194  1.0000
  C   C854      1.0  0.03540  0.73428  0.90948  1.0000
  H   H1433     1.0  0.14423  0.94140  0.94925  1.0000
  C   C855      1.0  0.02633  0.84488  0.92932  1.0000
  H   H1434     1.0  0.21254  0.77634  0.96009  1.0000
  H   H1435     1.0  0.09015  0.69806  0.93400  1.0000
  H   H1436     1.0  0.11078  0.90789  0.95574  1.0000
  C   C856      1.0  0.15897  0.87661  0.98757  1.0000
  H   H1437     1.0  0.09062  0.74577  0.89291  1.0000
  C   C857      1.0  0.13832  0.69564  0.94157  1.0000
  C   C858      1.0  0.07278  0.70724  0.93855  1.0000
  H   H1438     1.0  0.04860  0.69424  0.92950  1.0000
  C   C859      1.0  0.22708  0.76432  0.95482  1.0000
  H   H1439     1.0  0.08075  0.95083  0.95339  1.0000
  C   C860      1.0  0.14178  0.70281  0.92731  1.0000
  H   H1440     1.0  0.08824  0.77068  0.90102  1.0000
  H   H1441     1.0  0.19188  0.76635  0.91981  1.0000
  H   H1442     1.0  0.08819  0.73716  0.91873  1.0000
  C   C861      1.0  0.13712  0.95381  0.95671  1.0000
  H   H1443     1.0  0.00344  0.84513  0.91391  1.0000
  H   H1444     1.0  0.17246  0.94832  0.96210  1.0000
  N   N61       1.0  0.19480  0.74475  0.94923  1.0000
  H   H1445     1.0  0.06407  0.97121  0.97017  1.0000
  C   C862      1.0  0.07849  0.75716  0.89986  1.0000
  N   N62       1.0  0.05874  0.72360  0.91462  1.0000
  H   H1446     1.0  0.11125  0.97060  0.97937  1.0000
  H   H1447     1.0  0.19400  0.75277  0.97764  1.0000
  C   C863      1.0  0.19722  0.77545  0.92713  1.0000
  H   H1448     1.0  0.14073  0.85333  0.98111  1.0000
  H   H1449     1.0  0.18461  0.78290  0.94766  1.0000
  H   H1450     1.0  0.00986  0.81733  0.97425  1.0000
  C   C864      1.0  0.19968  0.85375  0.97241  1.0000
  H   H1451     1.0  0.03760  0.72192  0.93493  1.0000
  H   H1452     1.0  0.12826  0.70729  0.96132  1.0000
  H   H1453     1.0  0.07486  0.72390  0.94132  1.0000
  C   C865      1.0  0.18475  0.76862  0.94192  1.0000
  C   C866      1.0  0.07515  0.97538  0.97684  1.0000
  H   H1454     1.0  0.13852  0.90596  0.96188  1.0000
  C   C867      1.0  0.19987  0.70096  0.94668  1.0000
  H   H1455     1.0  0.03522  0.87157  0.90456  1.0000
  H   H1456     1.0  0.16071  0.73986  0.96097  1.0000
  C   C868      1.0  0.17903  0.73945  0.96277  1.0000
  C   C869      1.0  0.09836  0.95608  0.95012  1.0000
  H   H1457     1.0  0.21794  0.87704  0.97860  1.0000
  H   H1458     1.0  0.11586  0.92858  0.98103  1.0000
  H   H1459     1.0  0.15009  0.96106  0.97464  1.0000
  C   C870      1.0  0.09755  0.69452  0.90769  1.0000
  H   H1460     1.0  0.06261  0.69190  0.90605  1.0000
  C   C871      1.0  0.02198  0.87299  0.95266  1.0000
  H   H1461     1.0  0.04255  0.98328  0.87047  1.0000
  H   H1462     1.0  0.02087  0.85428  0.95595  1.0000
  H   H1463     1.0  0.24066  0.75838  0.96180  1.0000
  S   S255      1.0  0.17731  0.82383  0.96441  1.0000
  H   H1464     1.0  0.16573  0.76973  0.94127  1.0000
  H   H1465     1.0  0.18507  0.69565  0.95455  1.0000
  H   H1466     1.0  0.06273  0.76656  0.89508  1.0000
  H   H1467     1.0  0.02901  0.98647  0.91176  1.0000
  C   C872      1.0  0.04259  0.90305  0.90852  1.0000
  H   H1468     1.0  0.21658  0.69664  0.95111  1.0000
  H   H1469     1.0  0.07291  0.71430  0.89420  1.0000
  H   H1470     1.0  0.06059  0.75612  0.92078  1.0000
  C   C873      1.0  0.11899  0.90826  0.96480  1.0000
  C   C874      1.0  0.17794  0.84715  0.97291  1.0000
  H   H1471     1.0  0.07298  0.96378  0.98696  1.0000
  C   C875      1.0  0.07222  0.70642  0.90527  1.0000
  H   H1472     1.0  0.05952  0.86691  0.91379  1.0000
  C   C876      1.0  0.10832  0.93048  0.97138  1.0000
  H   H1473     1.0  0.20203  0.69002  0.93849  1.0000
  C   C877      1.0  0.04107  0.87689  0.91326  1.0000
  H   H1474     1.0  0.16354  0.75075  0.98240  1.0000
  H   H1475     1.0  0.10758  0.70643  0.91027  1.0000
  H   H1476     1.0  0.00421  0.88432  0.95412  1.0000
  H   H1477     1.0  0.02410  0.70199  0.90692  1.0000
  H   H1478     1.0  0.14801  0.68980  0.92053  1.0000
  C   C878      1.0  0.07158  0.74331  0.91422  1.0000
  H   H1479     1.0  0.03441  0.83260  0.90926  1.0000
  H   H1480     1.0  0.04457  0.83563  0.93089  1.0000
  H   H1481     1.0  0.18523  0.72148  0.96812  1.0000
  H   H1482     1.0  0.09731  0.67885  0.91579  1.0000
  C   C879      1.0  0.03476  0.87819  0.93782  1.0000
  H   H1483     1.0  0.20634  0.72921  0.93049  1.0000
  S   S256      1.0  0.15292  0.97431  0.91606  1.0000
  H   H1484     1.0  0.03239  0.87718  0.95978  1.0000
  N   N63       1.0  0.02496  0.87111  0.92664  1.0000
  H   H1485     1.0  0.22485  0.72746  0.95954  1.0000
  H   H1486     1.0  0.05375  0.86967  0.93778  1.0000
  H   H1487     1.0  0.02636  0.74985  0.91439  1.0000
  H   H1488     1.0  0.23243  0.73838  0.94179  1.0000
  C   C880      1.0  0.10162  0.97296  0.97050  1.0000
  C   C881      1.0  0.15750  0.85865  0.98047  1.0000
  H   H1489     1.0  0.01588  0.81671  0.92211  1.0000
  H   H1490     1.0  0.05358  0.90498  0.89817  1.0000
  H   H1491     1.0  0.21677  0.77180  0.92635  1.0000
  H   H1492     1.0  0.17124  0.77422  0.96959  1.0000
  C   C882      1.0  0.19390  0.72706  0.94034  1.0000
  N   N64       1.0  0.11133  0.95334  0.96220  1.0000
  H   H1493     1.0  0.10802  0.94387  0.94289  1.0000
  C   C883      1.0  0.22016  0.74252  0.95133  1.0000
  H   H1494     1.0  0.06729  0.69602  0.94838  1.0000
  H   H1495     1.0  0.08918  0.92992  0.97493  1.0000
  H   H1496     1.0  0.05162  0.90974  0.91532  1.0000
  H   H1497     1.0  0.17609  0.72996  0.93725  1.0000
  C   C884      1.0  0.15408  0.94804  0.96752  1.0000
  H   H1498     1.0  0.10781  0.68883  0.89799  1.0000
  H   H1499     1.0  0.19154  0.79453  0.92373  1.0000
  H   H1500     1.0  0.23578  0.77438  0.94543  1.0000
  H   H1501     1.0  0.03823  0.74093  0.89823  1.0000
  H   H1502     1.0  0.15434  0.93019  0.97348  1.0000
  H   H1503     1.0  0.03453  0.89735  0.93594  1.0000
  H   H1504     1.0  0.13938  0.97127  0.95072  1.0000
  C   C885      1.0  0.20105  0.87195  0.97919  1.0000
  H   H1505     1.0  0.02497  0.91430  0.90749  1.0000
  S   S257      1.0  0.14683  0.66591  0.94869  1.0000
  C   C886      1.0  0.17712  0.75546  0.97352  1.0000
  H   H1506     1.0  0.01509  0.83902  0.93901  1.0000
  C   C887      1.0  0.02182  0.65884  0.95791  1.0000
  H   H1507     1.0  0.11535  0.89277  0.97252  1.0000
  H   H1508     1.0  0.01205  0.67720  0.95600  1.0000
  H   H1509     1.0  0.01061  0.71283  0.92286  1.0000
  S   S258      1.0  0.01551  0.77039  0.93793  1.0000
  C   C888      1.0  0.01952  0.83455  0.91791  1.0000
  H   H1510     1.0  0.05719  0.97784  0.91715  1.0000
  C   C889      1.0  0.01713  0.71795  0.91177  1.0000
  H   H1511     1.0  0.11144  0.98716  0.93766  1.0000
  H   H1512     1.0  0.48920  0.98002  0.75660  1.0000
  H   H1513     1.0  0.10495  0.99018  0.96459  1.0000
  H   H1514     1.0  0.00135  0.72755  0.90700  1.0000
  C   C890      1.0  0.00016  0.88462  0.92539  1.0000
  C   C891      1.0  0.86699  0.15376  0.99993  1.0000
  S   S259      1.0  0.95477  0.07829  0.99783  1.0000
  Fe  Fe129     1.0  0.93615  0.05381  0.99132  1.0000
  C   C892      1.0  0.90200  0.11905  0.01531  1.0000
  C   C893      1.0  0.88403  0.08700  0.01195  1.0000
  C   C894      1.0  0.85943  0.09884  0.03889  1.0000
  H   H1515     1.0  0.96882  0.00672  0.01185  1.0000
  S   S260      1.0  0.91815  0.03161  0.00933  1.0000
  H   H1516     1.0  0.93162  0.11124  0.02662  1.0000
  H   H1517     1.0  0.97722  0.16383  0.00689  1.0000
  H   H1518     1.0  0.84597  0.08806  0.03905  1.0000
  H   H1519     1.0  0.97911  0.31987  0.04354  1.0000
  C   C895      1.0  0.87129  0.12686  0.00075  1.0000
  H   H1520     1.0  0.84229  0.12062  0.02260  1.0000
  H   H1521     1.0  0.87654  0.08720  0.04047  1.0000
  H   H1522     1.0  0.84628  0.08350  0.01540  1.0000
  H   H1523     1.0  0.85335  0.10768  0.04811  1.0000
  H   H1524     1.0  0.97230  0.01670  0.03553  1.0000
  S   S261      1.0  0.96925  0.21416  0.00248  1.0000
  H   H1525     1.0  0.85438  0.15991  0.00881  1.0000
  H   H1526     1.0  0.99055  0.02332  0.00412  1.0000
  Fe  Fe130     1.0  0.93673  0.30165  0.00130  1.0000
  H   H1527     1.0  0.89003  0.07493  0.02105  1.0000
  H   H1528     1.0  0.87240  0.32216  0.00518  1.0000
  H   H1529     1.0  0.86116  0.13449  0.02901  1.0000
  S   S262      1.0  0.97249  0.27904  0.00273  1.0000
  H   H1530     1.0  0.88436  0.12225  0.99156  1.0000
  C   C896      1.0  0.86008  0.11775  0.02583  1.0000
  H   H1531     1.0  0.89908  0.08370  0.00351  1.0000
  H   H1532     1.0  0.91515  0.11700  0.00582  1.0000
  C   C897      1.0  0.92599  0.99533  0.99441  1.0000
  C   C898      1.0  0.91998  0.00230  0.00740  1.0000
  C   C899      1.0  0.86310  0.07815  0.00861  1.0000
  H   H1533     1.0  0.89920  0.13782  0.01643  1.0000
  C   C900      1.0  0.96393  0.17019  0.00017  1.0000
  C   C901      1.0  0.97678  0.02711  0.02528  1.0000
  H   H1534     1.0  0.91878  0.08631  0.02752  1.0000
  H   H1535     1.0  0.96089  0.13548  0.99770  1.0000
  H   H1536     1.0  0.96044  0.03982  0.02301  1.0000
  S   S263      1.0  0.92204  0.27382  0.99483  1.0000
  C   C902      1.0  0.91443  0.10549  0.02752  1.0000
  N   N65       1.0  0.87920  0.11238  0.01384  1.0000
  H   H1537     1.0  0.99024  0.03756  0.02560  1.0000
  H   H1538     1.0  0.90403  0.10974  0.03747  1.0000
  C   C903      1.0  0.95468  0.15412  0.99500  1.0000
  H   H1539     1.0  0.99505  0.09947  0.99092  1.0000
  C   C904      1.0  0.98492  0.01175  0.01381  1.0000
  C   C905      1.0  0.95629  0.19445  0.99655  1.0000
  S   S264      1.0  0.91860  0.32238  0.01846  1.0000
  Fe  Fe131     1.0  0.95901  0.25271  0.99425  1.0000
  H   H1540     1.0  0.85430  0.12300  0.99914  1.0000
  H   H1541     1.0  0.88374  0.16028  0.99891  1.0000
  H   H1542     1.0  0.85918  0.16215  0.99047  1.0000
  H   H1543     1.0  0.99770  0.19646  0.02527  1.0000
  H   H1544     1.0  0.86710  0.05867  0.01003  1.0000
  H   H1545     1.0  0.86075  0.08421  0.99765  1.0000
  Fe  Fe132     1.0  0.63064  0.09469  0.45047  1.0000
  S   S265      1.0  0.62810  0.11294  0.42871  1.0000
  C   C906      1.0  0.52669  0.15767  0.45286  1.0000
  Fe  Fe133     1.0  0.57840  0.09720  0.45787  1.0000
  S   S266      1.0  0.57133  0.11528  0.43692  1.0000
  S   S267      1.0  0.54650  0.09173  0.47346  1.0000
  Fe  Fe134     1.0  0.60253  0.08923  0.42907  1.0000
  S   S268      1.0  0.59862  0.07415  0.41055  1.0000
  Fe  Fe135     1.0  0.59710  0.13733  0.43846  1.0000
  S   S269      1.0  0.58718  0.17663  0.43159  1.0000
  S   S270      1.0  0.60762  0.06918  0.45010  1.0000
  S   S271      1.0  0.60183  0.12099  0.46017  1.0000
  S   S272      1.0  0.59231  0.29853  0.46835  1.0000
  S   S273      1.0  0.63181  0.24063  0.45964  1.0000
  H   H1546     1.0  0.55727  0.05217  0.39811  1.0000
  H   H1547     1.0  0.54165  0.01458  0.42772  1.0000
  H   H1548     1.0  0.54663  0.02830  0.44877  1.0000
  H   H1549     1.0  0.65712  0.16532  0.47885  1.0000
  H   H1550     1.0  0.54772  0.05539  0.42292  1.0000
  C   C907      1.0  0.57637  0.24228  0.48732  1.0000
  H   H1551     1.0  0.60375  0.21001  0.48650  1.0000
  C   C908      1.0  0.64744  0.06625  0.48440  1.0000
  H   H1552     1.0  0.54302  0.14754  0.45688  1.0000
  S   S274      1.0  0.50197  0.25541  0.44667  1.0000
  S   S275      1.0  0.66618  0.08339  0.45757  1.0000
  H   H1553     1.0  0.55317  0.22835  0.40796  1.0000
  H   H1554     1.0  0.54531  0.28666  0.48805  1.0000
  C   C909      1.0  0.62258  0.99587  0.40756  1.0000
  Fe  Fe136     1.0  0.61704  0.31936  0.47253  1.0000
  C   C910      1.0  0.60851  0.04404  0.40952  1.0000
  C   C911      1.0  0.61723  0.02819  0.42049  1.0000
  H   H1555     1.0  0.50524  0.02768  0.41982  1.0000
  H   H1556     1.0  0.55183  0.26689  0.46819  1.0000
  C   C912      1.0  0.61387  0.01170  0.39657  1.0000
  C   C913      1.0  0.60702  0.03573  0.39752  1.0000
  H   H1557     1.0  0.61857  0.03440  0.42974  1.0000
  H   H1558     1.0  0.56809  0.01677  0.38985  1.0000
  C   C914      1.0  0.50802  0.14185  0.45570  1.0000
  H   H1559     1.0  0.60066  0.04796  0.38890  1.0000
  C   C915      1.0  0.59852  0.19495  0.43962  1.0000
  C   C916      1.0  0.59666  0.21897  0.43437  1.0000
  C   C917      1.0  0.60659  0.23346  0.44043  1.0000
  C   C918      1.0  0.61844  0.22386  0.45173  1.0000
  C   C919      1.0  0.61964  0.20008  0.45716  1.0000
  C   C920      1.0  0.60955  0.18574  0.45122  1.0000
  H   H1560     1.0  0.58794  0.22628  0.42546  1.0000
  H   H1561     1.0  0.60541  0.25188  0.43624  1.0000
  H   H1562     1.0  0.62840  0.19276  0.46603  1.0000
  H   H1563     1.0  0.61064  0.16745  0.45549  1.0000
  H   H1564     1.0  0.53558  0.21312  0.42177  1.0000
  C   C921      1.0  0.53277  0.07353  0.46706  1.0000
  C   C922      1.0  0.54659  0.05605  0.45983  1.0000
  C   C923      1.0  0.54115  0.25026  0.38026  1.0000
  H   H1565     1.0  0.56563  0.05329  0.45855  1.0000
  H   H1566     1.0  0.51628  0.05986  0.42229  1.0000
  C   C924      1.0  0.68974  0.06537  0.47926  1.0000
  S   S276      1.0  0.61833  0.30542  0.43598  1.0000
  H   H1567     1.0  0.65687  0.13294  0.45177  1.0000
  C   C925      1.0  0.53381  0.06161  0.41618  1.0000
  H   H1568     1.0  0.51206  0.22904  0.40363  1.0000
  H   H1569     1.0  0.53409  0.28528  0.38430  1.0000
  C   C926      1.0  0.54051  0.25904  0.47737  1.0000
  C   C927      1.0  0.54308  0.20989  0.46930  1.0000
  H   H1570     1.0  0.53578  0.04273  0.37722  1.0000
  H   H1571     1.0  0.51081  0.15893  0.42788  1.0000
  H   H1572     1.0  0.50072  0.14163  0.46679  1.0000
  C   C928      1.0  0.53880  0.31648  0.44489  1.0000
  H   H1573     1.0  0.57187  0.22862  0.46400  1.0000
  H   H1574     1.0  0.56825  0.01969  0.41676  1.0000
  H   H1575     1.0  0.55134  0.99443  0.39423  1.0000
  H   H1576     1.0  0.70532  0.06866  0.47200  1.0000
  H   H1577     1.0  0.52020  0.17331  0.45807  1.0000
  H   H1578     1.0  0.55170  0.26595  0.39548  1.0000
  H   H1579     1.0  0.54258  0.01258  0.48303  1.0000
  C   C929      1.0  0.53937  0.04917  0.40337  1.0000
  S   S277      1.0  0.64925  0.29932  0.46119  1.0000
  H   H1580     1.0  0.64095  0.14784  0.47230  1.0000
  C   C930      1.0  0.65614  0.14738  0.47758  1.0000
  H   H1581     1.0  0.53695  0.23279  0.38475  1.0000
  C   C931      1.0  0.51442  0.31876  0.44923  1.0000
  H   H1582     1.0  0.53511  0.19781  0.47791  1.0000
  C   C932      1.0  0.51315  0.28268  0.41128  1.0000
  C   C933      1.0  0.51273  0.02101  0.41001  1.0000
  N   N66       1.0  0.68745  0.14491  0.45550  1.0000
  C   C934      1.0  0.67981  0.13475  0.47031  1.0000
  C   C935      1.0  0.70874  0.12798  0.44991  1.0000
  C   C936      1.0  0.66723  0.14714  0.44757  1.0000
  C   C937      1.0  0.69301  0.16869  0.45537  1.0000
  H   H1583     1.0  0.50811  0.23039  0.48705  1.0000
  C   C938      1.0  0.73063  0.12355  0.45724  1.0000
  C   C939      1.0  0.67347  0.14638  0.43197  1.0000
  C   C940      1.0  0.70265  0.18184  0.44132  1.0000
  H   H1584     1.0  0.67817  0.11615  0.47113  1.0000
  H   H1585     1.0  0.69333  0.13452  0.47684  1.0000
  H   H1586     1.0  0.71496  0.13355  0.43885  1.0000
  H   H1587     1.0  0.70383  0.11063  0.45035  1.0000
  H   H1588     1.0  0.61289  0.00549  0.38725  1.0000
  H   H1589     1.0  0.65451  0.16373  0.44875  1.0000
  H   H1590     1.0  0.67674  0.18081  0.45921  1.0000
  H   H1591     1.0  0.70514  0.16809  0.46282  1.0000
  H   H1592     1.0  0.52230  0.11327  0.43481  1.0000
  H   H1593     1.0  0.51740  0.12351  0.45533  1.0000
  C   C941      1.0  0.62439  0.00423  0.41947  1.0000
  H   H1594     1.0  0.74542  0.11208  0.45161  1.0000
  H   H1595     1.0  0.73682  0.13997  0.45724  1.0000
  H   H1596     1.0  0.72738  0.11402  0.46790  1.0000
  H   H1597     1.0  0.65684  0.15136  0.42737  1.0000
  H   H1598     1.0  0.68168  0.12831  0.43001  1.0000
  H   H1599     1.0  0.68510  0.15873  0.42647  1.0000
  H   H1600     1.0  0.68790  0.19147  0.43564  1.0000
  H   H1601     1.0  0.71560  0.17044  0.43478  1.0000
  H   H1602     1.0  0.71263  0.19475  0.44304  1.0000
  H   H1603     1.0  0.52595  0.31301  0.39765  1.0000
  H   H1604     1.0  0.50132  0.19499  0.44014  1.0000
  H   H1605     1.0  0.53362  0.08064  0.41270  1.0000
  C   C942      1.0  0.53559  0.26756  0.39066  1.0000
  Fe  Fe137     1.0  0.62401  0.28028  0.45552  1.0000
  C   C943      1.0  0.53653  0.02362  0.38038  1.0000
  C   C944      1.0  0.53580  0.04171  0.45441  1.0000
  H   H1606     1.0  0.53268  0.16312  0.44178  1.0000
  H   H1607     1.0  0.50149  0.03259  0.40261  1.0000
  C   C945      1.0  0.51644  0.27849  0.44650  1.0000
  H   H1608     1.0  0.54643  0.01506  0.37149  1.0000
  N   N67       1.0  0.55435  0.23642  0.48401  1.0000
  H   H1609     1.0  0.55147  0.19941  0.46095  1.0000
  C   C946      1.0  0.54958  0.01370  0.39290  1.0000
  C   C947      1.0  0.50807  0.07639  0.46911  1.0000
  H   H1610     1.0  0.50909  0.31903  0.41377  1.0000
  N   N68       1.0  0.53840  0.02331  0.40601  1.0000
  H   H1611     1.0  0.50423  0.00859  0.35929  1.0000
  C   C948      1.0  0.51446  0.24191  0.40971  1.0000
  H   H1612     1.0  0.54041  0.24090  0.42347  1.0000
  C   C949      1.0  0.53094  0.27831  0.48651  1.0000
  C   C950      1.0  0.50343  0.29961  0.45030  1.0000
  C   C951      1.0  0.51114  0.04523  0.45593  1.0000
  C   C952      1.0  0.54097  0.27601  0.44241  1.0000
  C   C953      1.0  0.55240  0.01164  0.41757  1.0000
  H   H1613     1.0  0.57113  0.29305  0.43852  1.0000
  H   H1614     1.0  0.52921  0.22371  0.46502  1.0000
  H   H1615     1.0  0.58658  0.25068  0.47783  1.0000
  C   C954      1.0  0.55218  0.29500  0.44169  1.0000
  H   H1616     1.0  0.51846  0.01950  0.38228  1.0000
  C   C955      1.0  0.66757  0.07065  0.47490  1.0000
  H   H1617     1.0  0.55134  0.25949  0.43984  1.0000
  H   H1618     1.0  0.52677  0.05919  0.39630  1.0000
  C   C956      1.0  0.51037  0.30902  0.40524  1.0000
  H   H1619     1.0  0.56056  0.24685  0.37659  1.0000
  H   H1620     1.0  0.51837  0.29246  0.48115  1.0000
  H   H1621     1.0  0.53179  0.25762  0.37124  1.0000
  H   H1622     1.0  0.52527  0.25626  0.47322  1.0000
  H   H1623     1.0  0.57502  0.20414  0.47741  1.0000
  N   N69       1.0  0.51385  0.26616  0.40136  1.0000
  C   C957      1.0  0.50702  0.99622  0.41217  1.0000
  H   H1624     1.0  0.51770  0.12488  0.41748  1.0000
  H   H1625     1.0  0.52952  0.27828  0.41609  1.0000
  H   H1626     1.0  0.51448  0.03006  0.48736  1.0000
  C   C958      1.0  0.53733  0.23082  0.41597  1.0000
  C   C959      1.0  0.50879  0.12296  0.42836  1.0000
  H   H1627     1.0  0.63023  0.07037  0.48108  1.0000
  C   C960      1.0  0.56233  0.21984  0.47360  1.0000
  H   H1628     1.0  0.63131  0.99219  0.42797  1.0000
  H   H1629     1.0  0.65225  0.13746  0.48811  1.0000
  Fe  Fe138     1.0  0.94345  0.28304  0.68920  1.0000
  S   S278      1.0  0.96789  0.25573  0.67792  1.0000
  Fe  Fe139     1.0  0.86599  0.15006  0.68511  1.0000
  S   S279      1.0  0.83412  0.14964  0.70175  1.0000
  Fe  Fe140     1.0  0.88379  0.13825  0.65631  1.0000
  S   S280      1.0  0.87214  0.12831  0.63828  1.0000
  S   S281      1.0  0.85903  0.16883  0.66423  1.0000
  Fe  Fe141     1.0  0.71549  0.10863  0.61273  1.0000
  S   S282      1.0  0.68420  0.13440  0.62081  1.0000
  S   S283      1.0  0.71283  0.09692  0.59278  1.0000
  Fe  Fe142     1.0  0.74351  0.11041  0.63535  1.0000
  S   S284      1.0  0.71427  0.13629  0.64487  1.0000
  S   S285      1.0  0.77158  0.09836  0.64936  1.0000
  Fe  Fe143     1.0  0.68982  0.11439  0.64161  1.0000
  S   S286      1.0  0.65955  0.10513  0.65790  1.0000
  Fe  Fe144     1.0  0.71102  0.15438  0.62341  1.0000
  S   S287      1.0  0.70050  0.19367  0.62031  1.0000
  S   S288      1.0  0.71908  0.08671  0.63354  1.0000
  S   S289      1.0  0.74245  0.13038  0.61379  1.0000
  Fe  Fe145     1.0  0.77425  0.28516  0.61428  1.0000
  H   H1630     1.0  0.51350  0.22511  0.71355  1.0000
  S   S290      1.0  0.78316  0.25097  0.60611  1.0000
  C   C961      1.0  0.59681  0.31093  0.72565  1.0000
  S   S291      1.0  0.78167  0.28686  0.63515  1.0000
  S   S292      1.0  0.74008  0.31121  0.61578  1.0000
  H   H1631     1.0  0.77151  0.17987  0.73203  1.0000
  S   S293      1.0  0.62945  0.04801  0.55249  1.0000
  C   C962      1.0  0.50537  0.15708  0.71231  1.0000
  C   C963      1.0  0.85346  0.32368  0.66922  1.0000
  H   H1632     1.0  0.51438  0.07751  0.49639  1.0000
  S   S294      1.0  0.89653  0.16727  0.68495  1.0000
  H   H1633     1.0  0.62326  0.03994  0.62781  1.0000
  H   H1634     1.0  0.99002  0.13542  0.69543  1.0000
  Fe  Fe146     1.0  0.59986  0.02910  0.55261  1.0000
  S   S295      1.0  0.66783  0.14361  0.71077  1.0000
  H   H1635     1.0  0.73292  0.18596  0.72920  1.0000
  C   C964      1.0  0.98906  0.12109  0.66429  1.0000
  H   H1636     1.0  0.81002  0.17681  0.62995  1.0000
  H   H1637     1.0  0.53598  0.01511  0.52469  1.0000
  H   H1638     1.0  0.78702  0.16165  0.63886  1.0000
  H   H1639     1.0  0.84601  0.19626  0.70146  1.0000
  C   C965      1.0  0.68880  0.31502  0.59445  1.0000
  C   C966      1.0  0.91427  0.22997  0.66008  1.0000
  H   H1640     1.0  0.53322  0.09551  0.72192  1.0000
  H   H1641     1.0  0.84381  0.19778  0.63183  1.0000
  H   H1642     1.0  0.61467  0.06153  0.60201  1.0000
  C   C967      1.0  0.86745  0.31197  0.64669  1.0000
  H   H1643     1.0  0.76037  0.24923  0.68326  1.0000
  C   C968      1.0  0.83159  0.27279  0.70072  1.0000
  H   H1644     1.0  0.71894  0.04578  0.57119  1.0000
  S   S296      1.0  0.60236  0.14929  0.72822  1.0000
  H   H1645     1.0  0.71063  0.05023  0.60813  1.0000
  H   H1646     1.0  0.75987  0.06573  0.55179  1.0000
  H   H1647     1.0  0.73933  0.13043  0.67132  1.0000
  H   H1648     1.0  0.78585  0.20207  0.67989  1.0000
  H   H1649     1.0  0.63340  0.26300  0.71271  1.0000
  S   S297      1.0  0.89116  0.22064  0.65520  1.0000
  H   H1650     1.0  0.77947  0.03549  0.52773  1.0000
  H   H1651     1.0  0.77500  0.20609  0.63328  1.0000
  C   C969      1.0  0.70190  0.29306  0.67769  1.0000
  H   H1652     1.0  0.72944  0.05388  0.67455  1.0000
  C   C970      1.0  0.93238  0.21373  0.66590  1.0000
  H   H1653     1.0  0.85329  0.23099  0.71716  1.0000
  C   C971      1.0  0.62815  0.05635  0.62147  1.0000
  C   C972      1.0  0.66884  0.06309  0.58049  1.0000
  C   C973      1.0  0.68101  0.08030  0.58204  1.0000
  C   C974      1.0  0.69592  0.07588  0.59211  1.0000
  C   C975      1.0  0.74653  0.12658  0.68118  1.0000
  H   H1654     1.0  0.69992  0.99691  0.56909  1.0000
  H   H1655     1.0  0.65719  0.06677  0.57280  1.0000
  H   H1656     1.0  0.67891  0.09711  0.57539  1.0000
  S   S298      1.0  0.91664  0.15384  0.65374  1.0000
  S   S299      1.0  0.88859  0.11794  0.67742  1.0000
  C   C976      1.0  0.72337  0.20969  0.61519  1.0000
  C   C977      1.0  0.74653  0.19888  0.61066  1.0000
  C   C978      1.0  0.76472  0.21197  0.60729  1.0000
  C   C979      1.0  0.75984  0.23563  0.60888  1.0000
  C   C980      1.0  0.73663  0.24650  0.61317  1.0000
  C   C981      1.0  0.71836  0.23359  0.61618  1.0000
  H   H1657     1.0  0.75043  0.18046  0.60980  1.0000
  H   H1658     1.0  0.78268  0.20354  0.60390  1.0000
  H   H1659     1.0  0.73276  0.26469  0.61447  1.0000
  H   H1660     1.0  0.70042  0.24193  0.61972  1.0000
  C   C982      1.0  0.66165  0.13514  0.69617  1.0000
  C   C983      1.0  0.65097  0.11568  0.69742  1.0000
  C   C984      1.0  0.64913  0.10717  0.68556  1.0000
  C   C985      1.0  0.65754  0.11838  0.67247  1.0000
  C   C986      1.0  0.66640  0.13894  0.67127  1.0000
  C   C987      1.0  0.66893  0.14703  0.68309  1.0000
  H   H1661     1.0  0.64509  0.10657  0.70752  1.0000
  H   H1662     1.0  0.64200  0.09141  0.68656  1.0000
  H   H1663     1.0  0.67158  0.14846  0.66122  1.0000
  H   H1664     1.0  0.67673  0.16238  0.68208  1.0000
  C   C988      1.0  0.84095  0.14425  0.71858  1.0000
  C   C989      1.0  0.85952  0.25492  0.68280  1.0000
  N   N70       1.0  0.84593  0.24969  0.69708  1.0000
  C   C990      1.0  0.86303  0.14654  0.72109  1.0000
  H   H1665     1.0  0.83121  0.27856  0.67205  1.0000
  H   H1666     1.0  0.87637  0.15135  0.71262  1.0000
  C   C991      1.0  0.84358  0.12132  0.64137  1.0000
  C   C992      1.0  0.83267  0.11462  0.65480  1.0000
  C   C993      1.0  0.81053  0.10777  0.65706  1.0000
  C   C994      1.0  0.79872  0.10836  0.64598  1.0000
  C   C995      1.0  0.80923  0.11585  0.63256  1.0000
  C   C996      1.0  0.83177  0.12201  0.63026  1.0000
  H   H1667     1.0  0.84171  0.11389  0.66341  1.0000
  H   H1668     1.0  0.80280  0.10159  0.66744  1.0000
  H   H1669     1.0  0.80038  0.11614  0.62394  1.0000
  H   H1670     1.0  0.84017  0.12713  0.61984  1.0000
  C   C997      1.0  0.69359  0.06473  0.54507  1.0000
  H   H1671     1.0  0.88200  0.30591  0.63902  1.0000
  H   H1672     1.0  0.57169  0.25523  0.49457  1.0000
  C   C998      1.0  0.94862  0.24564  0.67008  1.0000
  C   C999      1.0  0.93073  0.26181  0.66407  1.0000
  C   C1000     1.0  0.91375  0.25398  0.65889  1.0000
  H   H1673     1.0  0.92980  0.28042  0.66356  1.0000
  H   H1674     1.0  0.89981  0.26653  0.65437  1.0000
  Fe  Fe147     1.0  0.89183  0.18279  0.66330  1.0000
  C   C1001     1.0  0.55580  0.99999  0.55297  1.0000
  N   N71       1.0  0.72155  0.30071  0.57485  1.0000
  C   C1002     1.0  0.70150  0.29515  0.58616  1.0000
  C   C1003     1.0  0.72872  0.28032  0.56696  1.0000
  C   C1004     1.0  0.68216  0.19261  0.73643  1.0000
  H   H1675     1.0  0.76689  0.05768  0.70930  1.0000
  H   H1676     1.0  0.99278  0.05183  0.70483  1.0000
  C   C1005     1.0  0.73824  0.25645  0.57533  1.0000
  H   H1677     1.0  0.51370  0.23842  0.72788  1.0000
  S   S300      1.0  0.79603  0.31171  0.60342  1.0000
  H   H1678     1.0  0.68754  0.28973  0.58192  1.0000
  H   H1679     1.0  0.70786  0.28001  0.59390  1.0000
  H   H1680     1.0  0.74241  0.28330  0.55791  1.0000
  H   H1681     1.0  0.71339  0.27808  0.56250  1.0000
  H   H1682     1.0  0.74273  0.07501  0.56714  1.0000
  C   C1006     1.0  0.67202  0.04107  0.58876  1.0000
  H   H1683     1.0  0.76736  0.30186  0.56168  1.0000
  H   H1684     1.0  0.66987  0.03173  0.62963  1.0000
  H   H1685     1.0  0.84012  0.25277  0.58215  1.0000
  C   C1007     1.0  0.50131  0.10266  0.73650  1.0000
  H   H1686     1.0  0.87215  0.17931  0.62915  1.0000
  H   H1687     1.0  0.75309  0.25727  0.58055  1.0000
  H   H1688     1.0  0.72409  0.24950  0.58301  1.0000
  H   H1689     1.0  0.74514  0.24337  0.56824  1.0000
  H   H1690     1.0  0.88981  0.21104  0.61388  1.0000
  C   C1008     1.0  0.73426  0.04340  0.56281  1.0000
  H   H1691     1.0  0.84335  0.28583  0.69947  1.0000
  C   C1009     1.0  0.85449  0.23536  0.60084  1.0000
  H   H1692     1.0  0.67509  0.02909  0.64694  1.0000
  S   S301      1.0  0.72131  0.31828  0.65427  1.0000
  C   C1010     1.0  0.88603  0.25975  0.62402  1.0000
  C   C1011     1.0  0.54997  0.30289  0.73506  1.0000
  H   H1693     1.0  0.54816  0.07510  0.50539  1.0000
  H   H1694     1.0  0.98996  0.29820  0.67985  1.0000
  C   C1012     1.0  0.76616  0.30845  0.69671  1.0000
  H   H1695     1.0  0.69327  0.07619  0.55265  1.0000
  H   H1696     1.0  0.70925  0.05191  0.49618  1.0000
  H   H1697     1.0  0.58112  0.04210  0.50820  1.0000
  H   H1698     1.0  0.74120  0.05583  0.53437  1.0000
  C   C1013     1.0  0.64973  0.05637  0.49823  1.0000
  C   C1014     1.0  0.70252  0.03879  0.55061  1.0000
  S   S302      1.0  0.61834  0.01007  0.53504  1.0000
  H   H1699     1.0  0.64461  0.05046  0.61449  1.0000
  H   H1700     1.0  0.82362  0.30780  0.73516  1.0000
  C   C1015     1.0  0.60838  0.06659  0.61242  1.0000
  C   C1016     1.0  0.54083  0.22534  0.49709  1.0000
  H   H1701     1.0  0.74350  0.29138  0.59092  1.0000
  H   H1702     1.0  0.78890  0.06820  0.69575  1.0000
  C   C1017     1.0  0.69878  0.05400  0.60054  1.0000
  H   H1703     1.0  0.60773  0.22896  0.49719  1.0000
  H   H1704     1.0  0.60109  0.09908  0.62956  1.0000
  H   H1705     1.0  0.77265  0.29202  0.69222  1.0000
  H   H1706     1.0  0.73411  0.25556  0.65047  1.0000
  C   C1018     1.0  0.84446  0.25779  0.59140  1.0000
  C   C1019     1.0  0.82908  0.23339  0.69769  1.0000
  C   C1020     1.0  0.56860  0.04673  0.51750  1.0000
  S   S303      1.0  0.93265  0.32125  0.68088  1.0000
  H   H1707     1.0  0.74706  0.14365  0.68400  1.0000
  H   H1708     1.0  0.70000  0.06053  0.68448  1.0000
  N   N72       1.0  0.61012  0.24431  0.70665  1.0000
  C   C1021     1.0  0.61724  0.22297  0.71708  1.0000
  C   C1022     1.0  0.58847  0.25909  0.71362  1.0000
  C   C1023     1.0  0.63014  0.25782  0.70321  1.0000
  C   C1024     1.0  0.60577  0.23632  0.69405  1.0000
  C   C1025     1.0  0.63971  0.20545  0.71241  1.0000
  C   C1026     1.0  0.56653  0.24748  0.71856  1.0000
  C   C1027     1.0  0.62712  0.28029  0.69250  1.0000
  C   C1028     1.0  0.58965  0.25409  0.68464  1.0000
  H   H1709     1.0  0.62002  0.22826  0.72667  1.0000
  H   H1710     1.0  0.60291  0.21248  0.72029  1.0000
  H   H1711     1.0  0.58267  0.27586  0.70704  1.0000
  H   H1712     1.0  0.59273  0.26437  0.72283  1.0000
  H   H1713     1.0  0.50958  0.15821  0.70093  1.0000
  H   H1714     1.0  0.64698  0.24689  0.69906  1.0000
  H   H1715     1.0  0.62296  0.23060  0.68751  1.0000
  H   H1716     1.0  0.59736  0.22051  0.69719  1.0000
  H   H1717     1.0  0.71258  0.12448  0.69366  1.0000
  Fe  Fe148     1.0  0.74964  0.31553  0.63575  1.0000
  H   H1718     1.0  0.68951  0.01965  0.60525  1.0000
  H   H1719     1.0  0.56858  0.23468  0.72812  1.0000
  H   H1720     1.0  0.82912  0.26566  0.72348  1.0000
  H   H1721     1.0  0.56259  0.23882  0.71062  1.0000
  H   H1722     1.0  0.62727  0.27631  0.68210  1.0000
  C   C1029     1.0  0.50325  0.18162  0.71604  1.0000
  H   H1723     1.0  0.61119  0.29332  0.69551  1.0000
  H   H1724     1.0  0.59706  0.25261  0.67370  1.0000
  H   H1725     1.0  0.58779  0.27270  0.68559  1.0000
  H   H1726     1.0  0.57176  0.24956  0.68624  1.0000
  H   H1727     1.0  0.76433  0.07850  0.67933  1.0000
  C   C1030     1.0  0.54039  0.16693  0.73588  1.0000
  H   H1728     1.0  0.52030  0.18712  0.71137  1.0000
  H   H1729     1.0  0.70342  0.07084  0.53491  1.0000
  C   C1031     1.0  0.98069  0.12629  0.67759  1.0000
  C   C1032     1.0  0.84412  0.31655  0.64386  1.0000
  H   H1730     1.0  0.70530  0.07124  0.66654  1.0000
  Fe  Fe149     1.0  0.80113  0.31554  0.62443  1.0000
  C   C1033     1.0  0.52093  0.02952  0.52225  1.0000
  C   C1034     1.0  0.71377  0.07835  0.70367  1.0000
  S   S304      1.0  0.65760  0.01867  0.58703  1.0000
  Fe  Fe150     1.0  0.65718  0.29611  0.73022  1.0000
  S   S305      1.0  0.72521  0.24080  0.70709  1.0000
  H   H1731     1.0  0.51006  0.20819  0.50171  1.0000
  C   C1035     1.0  0.81748  0.27207  0.71544  1.0000
  H   H1732     1.0  0.55810  0.02087  0.50213  1.0000
  C   C1036     1.0  0.71900  0.09042  0.67871  1.0000
  Fe  Fe151     1.0  0.64279  0.01713  0.56774  1.0000
  H   H1733     1.0  0.64115  0.18954  0.72039  1.0000
  S   S306      1.0  0.95214  0.12229  0.68594  1.0000
  H   H1734     1.0  0.69107  0.03496  0.56062  1.0000
  C   C1037     1.0  0.55582  0.31490  0.72179  1.0000
  H   H1735     1.0  0.60296  0.08584  0.61081  1.0000
  H   H1736     1.0  0.54236  0.32125  0.71517  1.0000
  C   C1038     1.0  0.84455  0.26238  0.67096  1.0000
  H   H1737     1.0  0.88508  0.14422  0.73653  1.0000
  H   H1738     1.0  0.65430  0.11618  0.60568  1.0000
  C   C1039     1.0  0.54285  0.03372  0.49840  1.0000
  Fe  Fe152     1.0  0.70208  0.26017  0.72344  1.0000
  H   H1739     1.0  0.99523  0.22938  0.65528  1.0000
  H   H1740     1.0  0.57492  0.99541  0.55142  1.0000
  C   C1040     1.0  0.53011  0.01946  0.49179  1.0000
  C   C1041     1.0  0.74190  0.06743  0.55794  1.0000
  H   H1741     1.0  0.90123  0.24498  0.62528  1.0000
  H   H1742     1.0  0.77715  0.02882  0.54617  1.0000
  H   H1743     1.0  0.85923  0.19896  0.73793  1.0000
  H   H1744     1.0  0.99759  0.27399  0.69284  1.0000
  H   H1745     1.0  0.70134  0.32284  0.59832  1.0000
  C   C1042     1.0  0.51416  0.22581  0.49720  1.0000
  S   S307      1.0  0.67665  0.03955  0.51958  1.0000
  H   H1746     1.0  0.80845  0.29021  0.71686  1.0000
  H   H1747     1.0  0.70720  0.10202  0.71905  1.0000
  H   H1748     1.0  0.99054  0.06569  0.68734  1.0000
  H   H1749     1.0  0.74887  0.03206  0.56808  1.0000
  H   H1750     1.0  0.87123  0.22702  0.59486  1.0000
  H   H1751     1.0  0.87872  0.21723  0.63050  1.0000
  H   H1752     1.0  0.68563  0.30551  0.67631  1.0000
  C   C1043     1.0  0.67210  0.05122  0.50250  1.0000
  H   H1753     1.0  0.76207  0.30378  0.70809  1.0000
  H   H1754     1.0  0.75917  0.27991  0.66252  1.0000
  H   H1755     1.0  0.73689  0.11446  0.70256  1.0000
  H   H1756     1.0  0.77339  0.00758  0.53635  1.0000
  H   H1757     1.0  0.52121  0.27185  0.49663  1.0000
  H   H1758     1.0  0.73340  0.07933  0.72049  1.0000
  C   C1044     1.0  0.54434  0.06045  0.51383  1.0000
  H   H1759     1.0  0.63430  0.05291  0.50558  1.0000
  C   C1045     1.0  0.72221  0.29454  0.66787  1.0000
  H   H1760     1.0  0.68696  0.27527  0.69714  1.0000
  S   S308      1.0  0.90631  0.27763  0.69719  1.0000
  H   H1761     1.0  0.80336  0.26153  0.71713  1.0000
  C   C1046     1.0  0.70266  0.27600  0.68950  1.0000
  H   H1762     1.0  0.88189  0.20718  0.69984  1.0000
  H   H1763     1.0  0.71258  0.15427  0.73107  1.0000
  H   H1764     1.0  0.71686  0.05894  0.70436  1.0000
  S   S309      1.0  0.95035  0.28802  0.70956  1.0000
  H   H1765     1.0  0.88686  0.25635  0.60316  1.0000
  H   H1766     1.0  0.85476  0.30975  0.73212  1.0000
  C   C1047     1.0  0.50788  0.06401  0.50469  1.0000
  H   H1767     1.0  0.83495  0.26330  0.64056  1.0000
  C   C1048     1.0  0.74324  0.27845  0.66979  1.0000
  H   H1768     1.0  0.89353  0.27604  0.62128  1.0000
  H   H1769     1.0  0.80432  0.17391  0.67756  1.0000
  H   H1770     1.0  0.82619  0.20340  0.68887  1.0000
  C   C1049     1.0  0.94973  0.22159  0.67081  1.0000
  H   H1771     1.0  0.62400  0.11752  0.61309  1.0000
  H   H1772     1.0  0.81745  0.24075  0.64461  1.0000
  H   H1773     1.0  0.73072  0.09668  0.66928  1.0000
  C   C1050     1.0  0.54446  0.02255  0.55539  1.0000
  H   H1774     1.0  0.85455  0.21045  0.68410  1.0000
  H   H1775     1.0  0.66650  0.07803  0.61851  1.0000
  H   H1776     1.0  0.71135  0.20658  0.66169  1.0000
  H   H1777     1.0  0.69480  0.08473  0.70232  1.0000
  H   H1778     1.0  0.67896  0.17877  0.73134  1.0000
  H   H1779     1.0  0.72943  0.08035  0.55198  1.0000
  H   H1780     1.0  0.51597  0.03848  0.53143  1.0000
  H   H1781     1.0  0.65341  0.09856  0.62979  1.0000
  Fe  Fe153     1.0  0.89562  0.31625  0.69082  1.0000
  H   H1782     1.0  0.71870  0.00586  0.57878  1.0000
  C   C1051     1.0  0.73074  0.11362  0.69289  1.0000
  H   H1783     1.0  0.93282  0.19513  0.66683  1.0000
  H   H1784     1.0  0.57557  0.08459  0.64891  1.0000
  Fe  Fe154     1.0  0.91924  0.13665  0.67567  1.0000
  H   H1785     1.0  0.84831  0.23264  0.64343  1.0000
  H   H1786     1.0  0.75255  0.05521  0.68960  1.0000
  H   H1787     1.0  0.70226  0.10351  0.67889  1.0000
  C   C1052     1.0  0.79797  0.17414  0.63989  1.0000
  H   H1788     1.0  0.80936  0.16620  0.64793  1.0000
  H   H1789     1.0  0.87292  0.23964  0.67998  1.0000
  C   C1053     1.0  0.83426  0.24555  0.63875  1.0000
  C   C1054     1.0  0.64925  0.08806  0.62274  1.0000
  C   C1055     1.0  0.66973  0.04188  0.63787  1.0000
  C   C1056     1.0  0.64068  0.10525  0.61026  1.0000
  C   C1057     1.0  0.74141  0.30443  0.58140  1.0000
  H   H1790     1.0  0.79483  0.20956  0.64350  1.0000
  H   H1791     1.0  0.87433  0.26098  0.63397  1.0000
  H   H1792     1.0  0.77391  0.31812  0.57319  1.0000
  H   H1793     1.0  0.64703  0.06709  0.64975  1.0000
  H   H1794     1.0  0.63899  0.19951  0.70267  1.0000
  H   H1795     1.0  0.96324  0.20904  0.67574  1.0000
  C   C1058     1.0  0.74395  0.26118  0.68157  1.0000
  C   C1059     1.0  0.78270  0.19790  0.64279  1.0000
  Fe  Fe155     1.0  0.64920  0.02598  0.53645  1.0000
  H   H1796     1.0  0.82789  0.26763  0.59647  1.0000
  S   S310      1.0  0.69413  0.29928  0.71962  1.0000
  C   C1060     1.0  0.87291  0.21587  0.62087  1.0000
  C   C1061     1.0  0.71517  0.08348  0.71801  1.0000
  S   S311      1.0  0.89943  0.32484  0.71108  1.0000
  C   C1062     1.0  0.64501  0.05649  0.64213  1.0000
  H   H1797     1.0  0.73995  0.19388  0.64125  1.0000
  H   H1798     1.0  0.75079  0.16714  0.65125  1.0000
  H   H1799     1.0  0.75615  0.24294  0.63775  1.0000
  H   H1800     1.0  0.81402  0.24205  0.69200  1.0000
  H   H1801     1.0  0.59861  0.06404  0.65640  1.0000
  H   H1802     1.0  0.83589  0.24812  0.66979  1.0000
  C   C1063     1.0  0.75408  0.07359  0.68968  1.0000
  H   H1803     1.0  0.56704  0.03083  0.52525  1.0000
  H   H1804     1.0  0.85652  0.26619  0.66113  1.0000
  C   C1064     1.0  0.69196  0.05587  0.49297  1.0000
  Fe  Fe156     1.0  0.91216  0.28632  0.71683  1.0000
  C   C1065     1.0  0.72373  0.26021  0.69154  1.0000
  H   H1805     1.0  0.51088  0.04529  0.55981  1.0000
  H   H1806     1.0  0.63913  0.09588  0.60199  1.0000
  N   N73       1.0  0.76340  0.19685  0.65510  1.0000
  C   C1066     1.0  0.74436  0.18616  0.65172  1.0000
  C   C1067     1.0  0.79302  0.18959  0.67245  1.0000
  H   H1807     1.0  0.74056  0.22120  0.66786  1.0000
  H   H1808     1.0  0.77828  0.16307  0.66632  1.0000
  H   H1809     1.0  0.80514  0.19770  0.66394  1.0000
  H   H1810     1.0  0.82023  0.22889  0.70844  1.0000
  H   H1811     1.0  0.69815  0.02822  0.54369  1.0000
  C   C1068     1.0  0.83489  0.24530  0.62329  1.0000
  H   H1812     1.0  0.82603  0.26315  0.61907  1.0000
  N   N74       1.0  0.63289  0.07189  0.63059  1.0000
  S   S312      1.0  0.56091  0.04456  0.55439  1.0000
  C   C1069     1.0  0.75379  0.22132  0.65827  1.0000
  C   C1070     1.0  0.77271  0.18188  0.66761  1.0000
  C   C1071     1.0  0.74252  0.23881  0.64669  1.0000
  H   H1813     1.0  0.72838  0.23252  0.64330  1.0000
  C   C1072     1.0  0.74300  0.03672  0.53809  1.0000
  H   H1814     1.0  0.82244  0.23396  0.62250  1.0000
  H   H1815     1.0  0.68346  0.05300  0.63470  1.0000
  H   H1816     1.0  0.63404  0.04360  0.64802  1.0000
  H   H1817     1.0  0.61529  0.09760  0.64373  1.0000
  N   N75       1.0  0.72982  0.08891  0.69149  1.0000
  C   C1073     1.0  0.51968  0.02794  0.55785  1.0000
  C   C1074     1.0  0.71327  0.06747  0.67616  1.0000
  C   C1075     1.0  0.72073  0.18815  0.66177  1.0000
  H   H1818     1.0  0.76813  0.22912  0.66046  1.0000
  H   H1819     1.0  0.75834  0.18171  0.67662  1.0000
  H   H1820     1.0  0.70871  0.17893  0.65839  1.0000
  H   H1821     1.0  0.72305  0.17986  0.67245  1.0000
  H   H1822     1.0  0.76504  0.11689  0.67969  1.0000
  H   H1823     1.0  0.85627  0.18972  0.61496  1.0000
  C   C1076     1.0  0.83986  0.20963  0.69281  1.0000
  H   H1824     1.0  0.81845  0.28059  0.69362  1.0000
  C   C1077     1.0  0.99639  0.13153  0.68510  1.0000
  H   H1825     1.0  0.67490  0.06683  0.54348  1.0000
  H   H1826     1.0  0.86131  0.27553  0.61002  1.0000
  C   C1078     1.0  0.82392  0.13770  0.72967  1.0000
  H   H1827     1.0  0.76827  0.08852  0.70461  1.0000
  H   H1828     1.0  0.72915  0.31342  0.69674  1.0000
  C   C1079     1.0  0.87288  0.25807  0.61236  1.0000
  C   C1080     1.0  0.68692  0.03667  0.59884  1.0000
  H   H1829     1.0  0.89496  0.21577  0.71228  1.0000
  C   C1081     1.0  0.61067  0.08638  0.63722  1.0000
  H   H1830     1.0  0.58875  0.05887  0.64131  1.0000
  C   C1082     1.0  0.77003  0.07201  0.70060  1.0000
  C   C1083     1.0  0.76643  0.30261  0.57269  1.0000
  C   C1084     1.0  0.82542  0.32444  0.65381  1.0000
  H   H1831     1.0  0.73689  0.32185  0.58485  1.0000
  H   H1832     1.0  0.86994  0.26884  0.68229  1.0000
  S   S313      1.0  0.83888  0.31240  0.62780  1.0000
  N   N76       1.0  0.85875  0.23870  0.61473  1.0000
  C   C1085     1.0  0.86021  0.19472  0.62429  1.0000
  H   H1833     1.0  0.84184  0.22323  0.60204  1.0000
  C   C1086     1.0  0.50631  0.01129  0.55711  1.0000
  H   H1834     1.0  0.74500  0.31754  0.68027  1.0000
  C   C1087     1.0  0.86265  0.23993  0.70755  1.0000
  C   C1088     1.0  0.59255  0.07237  0.64643  1.0000
  H   H1835     1.0  0.54943  0.20669  0.49984  1.0000
  H   H1836     1.0  0.89801  0.23105  0.69516  1.0000
  H   H1837     1.0  0.85755  0.26953  0.58768  1.0000
  N   N77       1.0  0.52855  0.04650  0.50981  1.0000
  S   S314      1.0  0.61135  0.00015  0.56925  1.0000
  C   C1089     1.0  0.88547  0.22251  0.70327  1.0000
  H   H1838     1.0  0.86878  0.25432  0.71080  1.0000
  C   C1090     1.0  0.87212  0.31532  0.65938  1.0000
  H   H1839     1.0  0.55080  0.26114  0.72118  1.0000
  H   H1840     1.0  0.73632  0.02981  0.53022  1.0000
  H   H1841     1.0  0.53539  0.06886  0.52296  1.0000
  H   H1842     1.0  0.69356  0.20370  0.72915  1.0000
  H   H1843     1.0  0.59250  0.05854  0.61659  1.0000
  S   S315      1.0  0.62610  0.31572  0.71937  1.0000
  H   H1844     1.0  0.64250  0.28896  0.69171  1.0000
  H   H1845     1.0  0.97718  0.11672  0.65850  1.0000
  H   H1846     1.0  0.77867  0.28708  0.57720  1.0000
  H   H1847     1.0  0.69575  0.32037  0.56194  1.0000
  H   H1848     1.0  0.57682  0.05810  0.52209  1.0000
  H   H1849     1.0  0.55078  0.04625  0.48998  1.0000
  C   C1091     1.0  0.76978  0.02652  0.53719  1.0000
  N   N78       1.0  0.72842  0.03163  0.55206  1.0000
  H   H1850     1.0  0.54173  0.23410  0.50584  1.0000
  H   H1851     1.0  0.70447  0.07256  0.72599  1.0000
  H   H1852     1.0  0.65612  0.21248  0.71154  1.0000
  H   H1853     1.0  0.52532  0.00395  0.49903  1.0000
  Fe  Fe157     1.0  0.64081  0.13554  0.72924  1.0000
  H   H1854     1.0  0.67704  0.30776  0.60359  1.0000
  H   H1855     1.0  0.80696  0.13558  0.72777  1.0000
  S   S316      1.0  0.57216  0.09633  0.73526  1.0000
  C   C1092     1.0  0.51567  0.22116  0.72459  1.0000
  H   H1856     1.0  0.54637  0.17123  0.72471  1.0000
  S   S317      1.0  0.89809  0.26583  0.73690  1.0000
  H   H1857     1.0  0.89017  0.31184  0.66145  1.0000
  H   H1858     1.0  0.52010  0.14441  0.71665  1.0000
  H   H1859     1.0  0.75207  0.99896  0.55814  1.0000
  C   C1093     1.0  0.74379  0.32194  0.69067  1.0000
  C   C1094     1.0  0.71194  0.32261  0.56555  1.0000
  H   H1860     1.0  0.58547  0.21144  0.50328  1.0000
  H   H1861     1.0  0.53386  0.21170  0.72562  1.0000
  S   S318      1.0  0.66481  0.25692  0.73241  1.0000
  H   H1862     1.0  0.73544  0.31795  0.54568  1.0000
  H   H1863     1.0  0.73031  0.99611  0.54858  1.0000
  C   C1095     1.0  0.73323  0.00540  0.55665  1.0000
  H   H1864     1.0  0.50547  0.99867  0.52296  1.0000
  H   H1865     1.0  0.50296  0.23799  0.50405  1.0000
  H   H1866     1.0  0.91431  0.30858  0.73710  1.0000
  C   C1096     1.0  0.86797  0.14245  0.73465  1.0000
  C   C1097     1.0  0.57910  0.31910  0.71717  1.0000
  H   H1867     1.0  0.75451  0.13908  0.73170  1.0000
  H   H1868     1.0  0.73818  0.11601  0.73485  1.0000
  H   H1869     1.0  0.78119  0.31785  0.69395  1.0000
  C   C1098     1.0  0.71849  0.99626  0.57034  1.0000
  C   C1099     1.0  0.52598  0.09919  0.73222  1.0000
  C   C1100     1.0  0.59399  0.22169  0.49395  1.0000
  S   S319      1.0  0.66426  0.99582  0.55175  1.0000
  Fe  Fe158     1.0  0.95284  0.06848  0.96100  1.0000
  S   S320      1.0  0.95462  0.06785  0.93850  1.0000
  S   S321      1.0  0.97374  0.09342  0.96502  1.0000
  S   S322      1.0  0.85502  0.29845  0.81680  1.0000
  H   H1870     1.0  0.52215  0.19833  0.81066  1.0000
  C   C1101     1.0  0.92370  0.10601  0.83539  1.0000
  C   C1102     1.0  0.82907  0.13309  0.74317  1.0000
  C   C1103     1.0  0.69910  0.21854  0.80130  1.0000
  S   S323      1.0  0.64877  0.10796  0.77958  1.0000
  Fe  Fe159     1.0  0.78482  0.15178  0.79585  1.0000
  S   S324      1.0  0.77177  0.11941  0.80743  1.0000
  S   S325      1.0  0.76820  0.18955  0.79684  1.0000
  Fe  Fe160     1.0  0.82635  0.12458  0.77898  1.0000
  S   S326      1.0  0.81802  0.08958  0.78943  1.0000
  S   S327      1.0  0.85731  0.13123  0.76266  1.0000
  Fe  Fe161     1.0  0.78028  0.10667  0.78699  1.0000
  S   S328      1.0  0.76014  0.08750  0.77712  1.0000
  Fe  Fe162     1.0  0.81039  0.10482  0.80905  1.0000
  S   S329      1.0  0.81943  0.08929  0.83039  1.0000
  S   S330      1.0  0.78932  0.14056  0.77531  1.0000
  S   S331      1.0  0.82262  0.13822  0.79877  1.0000
  C   C1104     1.0  0.61886  0.19409  0.76744  1.0000
  H   H1871     1.0  0.89361  0.31941  0.98235  1.0000
  C   C1105     1.0  0.64004  0.22491  0.76773  1.0000
  C   C1106     1.0  0.51978  0.22937  0.79494  1.0000
  Fe  Fe163     1.0  0.95109  0.01655  0.87400  1.0000
  H   H1872     1.0  0.86697  0.09599  0.84416  1.0000
  H   H1873     1.0  0.95575  0.29379  0.83367  1.0000
  C   C1107     1.0  0.76331  0.31068  0.76071  1.0000
  H   H1874     1.0  0.95859  0.25885  0.84873  1.0000
  S   S332      1.0  0.71372  0.25769  0.74374  1.0000
  S   S333      1.0  0.91146  0.02692  0.87811  1.0000
  H   H1875     1.0  0.96279  0.16337  0.95509  1.0000
  C   C1108     1.0  0.83994  0.06371  0.83530  1.0000
  C   C1109     1.0  0.85131  0.04810  0.82619  1.0000
  C   C1110     1.0  0.86691  0.02753  0.83083  1.0000
  C   C1111     1.0  0.87168  0.02281  0.84445  1.0000
  C   C1112     1.0  0.86050  0.03858  0.85347  1.0000
  C   C1113     1.0  0.84441  0.05871  0.84897  1.0000
  H   H1876     1.0  0.84801  0.05177  0.81564  1.0000
  H   H1877     1.0  0.87554  0.01537  0.82380  1.0000
  H   H1878     1.0  0.86381  0.03497  0.86403  1.0000
  H   H1879     1.0  0.83542  0.07053  0.85613  1.0000
  C   C1114     1.0  0.78610  0.20347  0.80363  1.0000
  C   C1115     1.0  0.80160  0.19055  0.81261  1.0000
  C   C1116     1.0  0.81678  0.20159  0.81734  1.0000
  C   C1117     1.0  0.81615  0.22569  0.81335  1.0000
  C   C1118     1.0  0.80020  0.23876  0.80467  1.0000
  C   C1119     1.0  0.78544  0.22759  0.79968  1.0000
  H   H1880     1.0  0.80168  0.17210  0.81610  1.0000
  H   H1881     1.0  0.82895  0.19147  0.82416  1.0000
  H   H1882     1.0  0.79959  0.25737  0.80157  1.0000
  H   H1883     1.0  0.77393  0.23763  0.79255  1.0000
  C   C1120     1.0  0.67978  0.10479  0.77801  1.0000
  C   C1121     1.0  0.68973  0.11071  0.78829  1.0000
  C   C1122     1.0  0.71449  0.10665  0.78776  1.0000
  C   C1123     1.0  0.72931  0.09576  0.77723  1.0000
  C   C1124     1.0  0.71937  0.09004  0.76689  1.0000
  C   C1125     1.0  0.69470  0.09497  0.76711  1.0000
  H   H1884     1.0  0.67821  0.11827  0.79675  1.0000
  H   H1885     1.0  0.72201  0.11113  0.79577  1.0000
  C   C1126     1.0  0.56556  0.24767  0.78960  1.0000
  Fe  Fe164     1.0  0.67548  0.25877  0.75251  1.0000
  H   H1886     1.0  0.67956  0.17181  0.75669  1.0000
  H   H1887     1.0  0.78065  0.06428  0.85139  1.0000
  H   H1888     1.0  0.87858  0.17771  0.78407  1.0000
  C   C1127     1.0  0.99576  0.02246  0.90462  1.0000
  H   H1889     1.0  0.66803  0.29263  0.78191  1.0000
  H   H1890     1.0  0.56542  0.21859  0.77946  1.0000
  H   H1891     1.0  0.95368  0.19430  0.95212  1.0000
  C   C1128     1.0  0.79919  0.03421  0.80177  1.0000
  H   H1892     1.0  0.73899  0.23138  0.78621  1.0000
  C   C1129     1.0  0.93712  0.05123  0.93346  1.0000
  C   C1130     1.0  0.92380  0.03676  0.94310  1.0000
  C   C1131     1.0  0.91096  0.02288  0.93855  1.0000
  C   C1132     1.0  0.91183  0.02319  0.92441  1.0000
  C   C1133     1.0  0.92503  0.03781  0.91486  1.0000
  C   C1134     1.0  0.93733  0.05200  0.91937  1.0000
  H   H1893     1.0  0.92349  0.03615  0.95400  1.0000
  H   H1894     1.0  0.99846  0.13871  0.97120  1.0000
  H   H1895     1.0  0.92559  0.03837  0.90394  1.0000
  H   H1896     1.0  0.94715  0.06353  0.91187  1.0000
  C   C1135     1.0  0.66418  0.29337  0.79310  1.0000
  C   C1136     1.0  0.72245  0.15911  0.76315  1.0000
  H   H1897     1.0  0.87161  0.17609  0.76142  1.0000
  H   H1898     1.0  0.59621  0.24479  0.74790  1.0000
  H   H1899     1.0  0.82445  0.25525  0.77389  1.0000
  C   C1137     1.0  0.63651  0.20186  0.77213  1.0000
  H   H1900     1.0  0.74499  0.01112  0.81504  1.0000
  C   C1138     1.0  0.98735  0.18319  0.95988  1.0000
  N   N79       1.0  0.52985  0.23956  0.78060  1.0000
  H   H1901     1.0  0.71607  0.06859  0.80928  1.0000
  H   H1902     1.0  0.84392  0.28849  0.74543  1.0000
  H   H1903     1.0  0.71829  0.04780  0.82455  1.0000
  H   H1904     1.0  0.70966  0.14773  0.76870  1.0000
  H   H1905     1.0  0.96060  0.10852  0.83390  1.0000
  C   C1139     1.0  0.90955  0.07066  0.83255  1.0000
  H   H1906     1.0  0.97902  0.18018  0.97083  1.0000
  C   C1140     1.0  0.88126  0.28918  0.77344  1.0000
  H   H1907     1.0  0.72952  0.16936  0.78153  1.0000
  C   C1141     1.0  0.96945  0.17999  0.95117  1.0000
  C   C1142     1.0  0.53120  0.20385  0.80011  1.0000
  H   H1908     1.0  0.76619  0.15809  0.74650  1.0000
  Fe  Fe165     1.0  0.91454  0.99988  0.89709  1.0000
  H   H1909     1.0  0.62734  0.25849  0.75625  1.0000
  H   H1910     1.0  0.69684  0.30040  0.79621  1.0000
  C   C1143     1.0  0.87047  0.19538  0.75841  1.0000
  H   H1911     1.0  0.64802  0.18974  0.77868  1.0000
  C   C1144     1.0  0.91239  0.32258  0.94553  1.0000
  H   H1912     1.0  0.53608  0.22274  0.74890  1.0000
  H   H1913     1.0  0.50982  0.05753  0.75778  1.0000
  C   C1145     1.0  0.60473  0.20939  0.75840  1.0000
  H   H1914     1.0  0.88125  0.10988  0.86590  1.0000
  H   H1915     1.0  0.73999  0.14747  0.76337  1.0000
  H   H1916     1.0  0.56333  0.28594  0.75388  1.0000
  Fe  Fe166     1.0  0.82408  0.32298  0.82623  1.0000
  C   C1146     1.0  0.55636  0.23726  0.77910  1.0000
  H   H1917     1.0  0.73077  0.08144  0.75878  1.0000
  H   H1918     1.0  0.85845  0.12455  0.82393  1.0000
  H   H1919     1.0  0.55961  0.26695  0.78857  1.0000
  H   H1920     1.0  0.78680  0.30929  0.77526  1.0000
  C   C1147     1.0  0.88584  0.27452  0.76343  1.0000
  S   S334      1.0  0.92547  0.14297  0.97949  1.0000
  H   H1921     1.0  0.92899  0.25501  0.84824  1.0000
  H   H1922     1.0  0.50349  0.00415  0.75091  1.0000
  H   H1923     1.0  0.91858  0.12243  0.83998  1.0000
  H   H1924     1.0  0.50053  0.22946  0.79564  1.0000
  Fe  Fe167     1.0  0.63228  0.11847  0.76009  1.0000
  H   H1925     1.0  0.81625  0.12697  0.75153  1.0000
  H   H1926     1.0  0.81798  0.31918  0.75794  1.0000
  H   H1927     1.0  0.73115  0.19188  0.76684  1.0000
  H   H1928     1.0  0.99793  0.13949  0.95344  1.0000
  H   H1929     1.0  0.79307  0.05018  0.79455  1.0000
  H   H1930     1.0  0.72200  0.07773  0.82399  1.0000
  H   H1931     1.0  0.74339  0.02495  0.83793  1.0000
  C   C1148     1.0  0.87677  0.11417  0.82379  1.0000
  S   S335      1.0  0.95421  0.99173  0.89380  1.0000
  H   H1932     1.0  0.56341  0.24613  0.76884  1.0000
  H   H1933     1.0  0.83792  0.22058  0.78587  1.0000
  H   H1934     1.0  0.68714  0.09013  0.75924  1.0000
  C   C1149     1.0  0.76893  0.31474  0.77302  1.0000
  H   H1935     1.0  0.97681  0.18088  0.94008  1.0000
  C   C1150     1.0  0.85377  0.21151  0.77965  1.0000
  C   C1151     1.0  0.88228  0.29084  0.85255  1.0000
  H   H1936     1.0  0.81442  0.26485  0.75765  1.0000
  N   N80       1.0  0.70215  0.26257  0.79760  1.0000
  C   C1152     1.0  0.68673  0.28593  0.80003  1.0000
  C   C1153     1.0  0.72132  0.25789  0.80654  1.0000
  C   C1154     1.0  0.68690  0.24412  0.80230  1.0000
  C   C1155     1.0  0.73798  0.27581  0.80334  1.0000
  H   H1937     1.0  0.71398  0.21222  0.80730  1.0000
  C   C1156     1.0  0.73359  0.24568  0.77800  1.0000
  H   H1938     1.0  0.55023  0.20195  0.80083  1.0000
  Fe  Fe168     1.0  0.98474  0.06500  0.98210  1.0000
  H   H1939     1.0  0.73277  0.24043  0.80622  1.0000
  H   H1940     1.0  0.71330  0.25732  0.81760  1.0000
  H   H1941     1.0  0.90074  0.01160  0.94597  1.0000
  H   H1942     1.0  0.75258  0.26946  0.80961  1.0000
  H   H1943     1.0  0.74619  0.27810  0.79238  1.0000
  H   H1944     1.0  0.72885  0.29304  0.80627  1.0000
  H   H1945     1.0  0.86740  0.19318  0.79835  1.0000
  H   H1946     1.0  0.79124  0.01986  0.80015  1.0000
  C   C1157     1.0  0.54133  0.10090  0.74107  1.0000
  S   S336      1.0  0.52102  0.29727  0.74163  1.0000
  H   H1947     1.0  0.74895  0.25434  0.77337  1.0000
  H   H1948     1.0  0.69751  0.26299  0.77659  1.0000
  S   S337      1.0  0.89125  0.99692  0.85005  1.0000
  H   H1949     1.0  0.70384  0.13764  0.74732  1.0000
  S   S338      1.0  0.83631  0.23888  0.81865  1.0000
  S   S339      1.0  0.97141  0.26654  0.97220  1.0000
  S   S340      1.0  0.94676  0.31914  0.97974  1.0000
  C   C1158     1.0  0.50466  0.04424  0.76665  1.0000
  S   S341      1.0  0.66477  0.23365  0.77122  1.0000
  H   H1950     1.0  0.88046  0.25773  0.76595  1.0000
  H   H1951     1.0  0.87880  0.21834  0.73878  1.0000
  C   C1159     1.0  0.89959  0.09965  0.86560  1.0000
  H   H1952     1.0  0.99679  0.03140  0.94581  1.0000
  C   C1160     1.0  0.71743  0.14802  0.74155  1.0000
  H   H1953     1.0  0.93785  0.27927  0.82755  1.0000
  Fe  Fe169     1.0  0.91143  0.99688  0.86738  1.0000
  H   H1954     1.0  0.89245  0.06568  0.83208  1.0000
  H   H1955     1.0  0.67219  0.24753  0.79616  1.0000
  C   C1161     1.0  0.76031  0.17666  0.74224  1.0000
  H   H1956     1.0  0.72994  0.23708  0.76991  1.0000
  C   C1162     1.0  0.71162  0.26406  0.78240  1.0000
  H   H1957     1.0  0.95072  0.08954  0.84891  1.0000
  H   H1958     1.0  0.79950  0.04277  0.84202  1.0000
  H   H1959     1.0  0.61646  0.17611  0.77065  1.0000
  C   C1163     1.0  0.88135  0.10560  0.83882  1.0000
  C   C1164     1.0  0.84126  0.23286  0.75808  1.0000
  N   N81       1.0  0.71718  0.16837  0.74869  1.0000
  S   S342      1.0  0.73388  0.31456  0.74170  1.0000
  Fe  Fe170     1.0  0.94189  0.10454  0.98021  1.0000
  H   H1960     1.0  0.94233  0.04914  0.84029  1.0000
  H   H1961     1.0  0.83711  0.23207  0.74783  1.0000
  H   H1962     1.0  0.89366  0.27598  0.85806  1.0000
  H   H1963     1.0  0.88891  0.12588  0.81795  1.0000
  H   H1964     1.0  0.92884  0.03534  0.83022  1.0000
  H   H1965     1.0  0.75386  0.04559  0.80456  1.0000
  C   C1165     1.0  0.62499  0.24052  0.75936  1.0000
  H   H1966     1.0  0.60426  0.29289  0.74557  1.0000
  H   H1967     1.0  0.67838  0.24468  0.81321  1.0000
  C   C1166     1.0  0.89461  0.30075  0.83826  1.0000
  C   C1167     1.0  0.76062  0.02106  0.83107  1.0000
  S   S343      1.0  0.96713  0.03878  0.97669  1.0000
  H   H1968     1.0  0.88667  0.19905  0.76132  1.0000
  H   H1969     1.0  0.99068  0.02150  0.92660  1.0000
  C   C1168     1.0  0.94927  0.09511  0.83783  1.0000
  H   H1970     1.0  0.65049  0.28279  0.79813  1.0000
  H   H1971     1.0  0.91259  0.11154  0.86303  1.0000
  S   S344      1.0  0.91999  0.08133  0.97511  1.0000
  Fe  Fe171     1.0  0.98156  0.29469  0.98064  1.0000
  H   H1972     1.0  0.89119  0.06995  0.85936  1.0000
  H   H1973     1.0  0.92188  0.06979  0.85800  1.0000
  H   H1974     1.0  0.52131  0.27448  0.78605  1.0000
  C   C1169     1.0  0.86261  0.18861  0.78910  1.0000
  S   S345      1.0  0.79785  0.30065  0.82516  1.0000
  H   H1975     1.0  0.85650  0.24218  0.75579  1.0000
  H   H1976     1.0  0.87765  0.09950  0.81816  1.0000
  C   C1170     1.0  0.72137  0.17783  0.77219  1.0000
  C   C1171     1.0  0.73382  0.18399  0.74040  1.0000
  C   C1172     1.0  0.85100  0.13570  0.74573  1.0000
  H   H1977     1.0  0.87824  0.12169  0.84362  1.0000
  C   C1173     1.0  0.91725  0.32003  0.84979  1.0000
  Fe  Fe172     1.0  0.70375  0.29685  0.74058  1.0000
  Fe  Fe173     1.0  0.79422  0.32161  0.80410  1.0000
  S   S346      1.0  0.97243  0.04527  0.86680  1.0000
  Fe  Fe174     1.0  0.93545  0.28966  0.97324  1.0000
  C   C1174     1.0  0.60733  0.23280  0.75470  1.0000
  C   C1175     1.0  0.91845  0.31934  0.81110  1.0000
  S   S347      1.0  0.66581  0.29794  0.75103  1.0000
  H   H1978     1.0  0.83453  0.17650  0.77356  1.0000
  S   S348      1.0  0.64067  0.15194  0.74752  1.0000
  N   N82       1.0  0.76815  0.04351  0.82348  1.0000
  C   C1176     1.0  0.76591  0.05956  0.83390  1.0000
  C   C1177     1.0  0.75253  0.05606  0.81286  1.0000
  C   C1178     1.0  0.79391  0.03895  0.81681  1.0000
  H   H1979     1.0  0.81868  0.02937  0.79874  1.0000
  C   C1179     1.0  0.78072  0.04983  0.84573  1.0000
  C   C1180     1.0  0.72581  0.06274  0.81823  1.0000
  H   H1980     1.0  0.53499  0.20807  0.77151  1.0000
  N   N83       1.0  0.84821  0.20864  0.76600  1.0000
  H   H1981     1.0  0.77097  0.07659  0.82872  1.0000
  H   H1982     1.0  0.74729  0.06400  0.83901  1.0000
  H   H1983     1.0  0.91014  0.31097  0.92677  1.0000
  H   H1984     1.0  0.75863  0.07252  0.80752  1.0000
  H   H1985     1.0  0.80236  0.05426  0.81653  1.0000
  H   H1986     1.0  0.80447  0.02403  0.82301  1.0000
  H   H1987     1.0  0.98913  0.00574  0.90804  1.0000
  H   H1988     1.0  0.76480  0.18793  0.74867  1.0000
  H   H1989     1.0  0.86736  0.22276  0.77806  1.0000
  H   H1990     1.0  0.77295  0.03611  0.85328  1.0000
  C   C1181     1.0  0.81688  0.19368  0.75650  1.0000
  C   C1182     1.0  0.52956  0.23709  0.75512  1.0000
  C   C1183     1.0  0.90482  0.08127  0.85586  1.0000
  C   C1184     1.0  0.92513  0.04727  0.83801  1.0000
  H   H1991     1.0  0.58526  0.24436  0.78744  1.0000
  H   H1992     1.0  0.89661  0.28741  0.83143  1.0000
  H   H1993     1.0  0.93284  0.22122  0.98517  1.0000
  S   S349      1.0  0.58467  0.19908  0.75116  1.0000
  H   H1994     1.0  0.95686  0.08032  0.83208  1.0000
  H   H1995     1.0  0.98228  0.03480  0.89893  1.0000
  C   C1185     1.0  0.53189  0.10547  0.75441  1.0000
  S   S350      1.0  0.91641  0.29420  0.95508  1.0000
  C   C1186     1.0  0.82835  0.19496  0.76890  1.0000
  H   H1996     1.0  0.56059  0.23938  0.80036  1.0000
  H   H1997     1.0  0.77346  0.01129  0.83806  1.0000
  H   H1998     1.0  0.54525  0.17928  0.74146  1.0000
  C   C1187     1.0  0.90010  0.31797  0.75714  1.0000
  H   H1999     1.0  0.91555  0.03823  0.84744  1.0000
  C   C1188     1.0  0.87410  0.32097  0.98393  1.0000
  H   H2000     1.0  0.86649  0.28440  0.85116  1.0000
  H   H2001     1.0  0.72797  0.20207  0.74300  1.0000
  H   H2002     1.0  0.80878  0.21116  0.75145  1.0000
  H   H2003     1.0  0.51300  0.24699  0.75137  1.0000
  C   C1189     1.0  0.69221  0.18245  0.75000  1.0000
  H   H2004     1.0  0.69094  0.19785  0.75512  1.0000
  H   H2005     1.0  0.71646  0.28151  0.77821  1.0000
  N   N84       1.0  0.90539  0.09067  0.84070  1.0000
  H   H2006     1.0  0.70492  0.21587  0.79044  1.0000
  C   C1190     1.0  0.56764  0.29501  0.74357  1.0000
  H   H2007     1.0  0.65620  0.31186  0.79424  1.0000
  H   H2008     1.0  0.92463  0.11177  0.82408  1.0000
  H   H2009     1.0  0.68592  0.20702  0.80562  1.0000
  H   H2010     1.0  0.87251  0.28352  0.78366  1.0000
  Fe  Fe175     1.0  0.82854  0.27825  0.81397  1.0000
  S   S351      1.0  0.59260  0.13012  0.76164  1.0000
  C   C1191     1.0  0.81982  0.24899  0.76514  1.0000
  H   H2011     1.0  0.93471  0.27402  0.85891  1.0000
  S   S352      1.0  0.82339  0.29768  0.79290  1.0000
  H   H2012     1.0  0.90110  0.09033  0.87625  1.0000
  H   H2013     1.0  0.91717  0.07606  0.82163  1.0000
  C   C1192     1.0  0.52453  0.22628  0.77047  1.0000
  H   H2014     1.0  0.84846  0.17814  0.79288  1.0000
  H   H2015     1.0  0.81386  0.20219  0.77672  1.0000
  H   H2016     1.0  0.54362  0.10651  0.76136  1.0000
  Fe  Fe176     1.0  0.60158  0.16245  0.74782  1.0000
  H   H2017     1.0  0.52905  0.19148  0.79360  1.0000
  C   C1193     1.0  0.89676  0.28194  0.75011  1.0000
  C   C1194     1.0  0.75804  0.00351  0.82218  1.0000
  H   H2018     1.0  0.98673  0.04982  0.91697  1.0000
  H   H2019     1.0  0.70274  0.18569  0.77584  1.0000
  H   H2020     1.0  0.82950  0.18391  0.74897  1.0000
  H   H2021     1.0  0.91589  0.19294  0.97641  1.0000
  H   H2022     1.0  0.51454  0.02667  0.76491  1.0000
  H   H2023     1.0  0.68095  0.28632  0.81127  1.0000
  H   H2024     1.0  0.55074  0.14917  0.73892  1.0000
  H   H2025     1.0  0.52780  0.27409  0.76820  1.0000
  S   S353      1.0  0.63585  0.10060  0.74163  1.0000
  C   C1195     1.0  0.93741  0.16230  0.98637  1.0000
  H   H2026     1.0  0.98843  0.20213  0.95755  1.0000
  H   H2027     1.0  0.80223  0.18380  0.76022  1.0000
  C   C1196     1.0  0.83403  0.32350  0.75088  1.0000
  C   C1197     1.0  0.99863  0.03242  0.91729  1.0000
  H   H2028     1.0  0.66456  0.20392  0.73889  1.0000
  C   C1198     1.0  0.87441  0.20063  0.74251  1.0000
  C   C1199     1.0  0.90484  0.30320  0.74716  1.0000
  S   S354      1.0  0.89708  0.00496  0.91854  1.0000
  H   H2029     1.0  0.51178  0.14785  0.73963  1.0000
  C   C1200     1.0  0.88748  0.31134  0.77010  1.0000
  C   C1201     1.0  0.50728  0.10808  0.75887  1.0000
  H   H2030     1.0  0.52078  0.24038  0.80259  1.0000
  H   H2031     1.0  0.50909  0.16799  0.75069  1.0000
  H   H2032     1.0  0.80415  0.24050  0.76869  1.0000
  C   C1202     1.0  0.92931  0.18652  0.98306  1.0000
  N   N85       1.0  0.91796  0.30830  0.83757  1.0000
  C   C1203     1.0  0.51880  0.26520  0.77792  1.0000
  C   C1204     1.0  0.93983  0.26797  0.84881  1.0000
  C   C1205     1.0  0.93838  0.28792  0.83639  1.0000
  H   H2033     1.0  0.77711  0.30255  0.75336  1.0000
  C   C1206     1.0  0.74115  0.13076  0.73929  1.0000
  H   H2034     1.0  0.87544  0.30475  0.85910  1.0000
  H   H2035     1.0  0.74833  0.12279  0.74896  1.0000
  Fe  Fe177     1.0  0.59667  0.11552  0.74198  1.0000
  H   H2036     1.0  0.54311  0.24832  0.75263  1.0000
  C   C1207     1.0  0.51380  0.16602  0.73964  1.0000
  H   H2037     1.0  0.51065  0.04839  0.77565  1.0000
  C   C1208     1.0  0.83933  0.30676  0.74011  1.0000
  H   H2038     1.0  0.95576  0.31695  0.84941  1.0000
  C   C1209     1.0  0.73993  0.31721  0.75788  1.0000
  H   H2039     1.0  0.92941  0.00806  0.98531  1.0000
  H   H2040     1.0  0.91429  0.30823  0.85972  1.0000
  H   H2041     1.0  0.93157  0.30371  0.80843  1.0000
  H   H2042     1.0  0.87074  0.30279  0.98560  1.0000
  H   H2043     1.0  0.50554  0.22454  0.77271  1.0000
  H   H2044     1.0  0.88124  0.31589  0.83434  1.0000
  H   H2045     1.0  0.84860  0.31840  0.75720  1.0000
  Fe  Fe178     1.0  0.84701  0.32020  0.79683  1.0000
  H   H2046     1.0  0.77532  0.99623  0.81647  1.0000
  H   H2047     1.0  0.90029  0.31658  0.81112  1.0000
  H   H2048     1.0  0.50013  0.11117  0.76928  1.0000
  C   C1210     1.0  0.93888  0.20257  0.98801  1.0000
  H   H2049     1.0  0.88992  0.18786  0.73851  1.0000
  C   C1211     1.0  0.59093  0.29889  0.73888  1.0000
  Fe  Fe179     1.0  0.64572  0.59478  0.17413  1.0000
  S   S355      1.0  0.65502  0.62116  0.18438  1.0000
  S   S356      1.0  0.66962  0.58309  0.15524  1.0000
  Fe  Fe180     1.0  0.61668  0.63804  0.18534  1.0000
  H   H2050     1.0  0.94411  0.35240  0.99699  1.0000
  S   S357      1.0  0.60809  0.61374  0.17321  1.0000
  H   H2051     1.0  0.89756  0.52904  0.99316  1.0000
  H   H2052     1.0  0.60955  0.48346  0.16743  1.0000
  C   C1212     1.0  0.97223  0.55083  0.07537  1.0000
  H   H2053     1.0  0.57562  0.56257  0.15356  1.0000
  Fe  Fe181     1.0  0.80502  0.57944  0.14139  1.0000
  S   S358      1.0  0.84343  0.56446  0.13420  1.0000
  S   S359      1.0  0.78048  0.55879  0.15677  1.0000
  Fe  Fe182     1.0  0.80810  0.62807  0.12602  1.0000
  S   S360      1.0  0.84630  0.61768  0.11726  1.0000
  Fe  Fe183     1.0  0.87850  0.60774  0.22295  1.0000
  Fe  Fe184     1.0  0.83665  0.58499  0.11350  1.0000
  S   S361      1.0  0.85124  0.57517  0.09225  1.0000
  Fe  Fe185     1.0  0.85048  0.59814  0.13837  1.0000
  S   S362      1.0  0.88115  0.60344  0.14730  1.0000
  S   S363      1.0  0.79761  0.59737  0.12031  1.0000
  S   S364      1.0  0.81301  0.61105  0.14752  1.0000
  Fe  Fe186     1.0  0.93014  0.44880  0.02839  1.0000
  S   S365      1.0  0.90614  0.48257  0.03327  1.0000
  S   S366      1.0  0.92673  0.42892  0.01183  1.0000
  Fe  Fe187     1.0  0.96778  0.45469  0.04399  1.0000
  S   S367      1.0  0.94716  0.48842  0.05020  1.0000
  C   C1213     1.0  0.79812  0.56348  0.22457  1.0000
  Fe  Fe188     1.0  0.91575  0.47099  0.05467  1.0000
  S   S368      1.0  0.89282  0.47451  0.07539  1.0000
  Fe  Fe189     1.0  0.93959  0.49732  0.02860  1.0000
  S   S369      1.0  0.94232  0.53305  0.01660  1.0000
  S   S370      1.0  0.93706  0.43584  0.05017  1.0000
  S   S371      1.0  0.96266  0.46489  0.02202  1.0000
  C   C1214     1.0  0.96246  0.53222  0.00123  1.0000
  C   C1215     1.0  0.53996  0.58841  0.19226  1.0000
  H   H2054     1.0  0.93725  0.54023  0.18026  1.0000
  H   H2055     1.0  0.57842  0.57144  0.16908  1.0000
  H   H2056     1.0  0.90459  0.54899  0.20415  1.0000
  S   S372      1.0  0.90961  0.62525  0.21396  1.0000
  C   C1216     1.0  0.99464  0.40275  0.00985  1.0000
  H   H2057     1.0  0.88792  0.61877  0.19248  1.0000
  C   C1217     1.0  0.96230  0.60393  0.18070  1.0000
  C   C1218     1.0  0.93598  0.55933  0.18017  1.0000
  S   S373      1.0  0.56595  0.57653  0.19986  1.0000
  C   C1219     1.0  0.86516  0.54726  0.08801  1.0000
  C   C1220     1.0  0.86870  0.52738  0.09806  1.0000
  C   C1221     1.0  0.87742  0.50512  0.09410  1.0000
  C   C1222     1.0  0.88356  0.50274  0.08011  1.0000
  C   C1223     1.0  0.88128  0.52279  0.07011  1.0000
  C   C1224     1.0  0.87195  0.54492  0.07405  1.0000
  H   H2058     1.0  0.86419  0.52910  0.10883  1.0000
  H   H2059     1.0  0.87938  0.48967  0.10190  1.0000
  H   H2060     1.0  0.88594  0.52115  0.05930  1.0000
  H   H2061     1.0  0.86944  0.56025  0.06621  1.0000
  H   H2062     1.0  0.96495  0.53287  0.04584  1.0000
  H   H2063     1.0  0.98696  0.50190  0.00900  1.0000
  S   S374      1.0  0.85953  0.63611  0.23513  1.0000
  C   C1225     1.0  0.85249  0.58424  0.18677  1.0000
  S   S375      1.0  0.85721  0.59157  0.21211  1.0000
  H   H2064     1.0  0.90693  0.64755  0.14162  1.0000
  H   H2065     1.0  0.68639  0.65148  0.20669  1.0000
  C   C1226     1.0  0.92411  0.35094  0.01740  1.0000
  C   C1227     1.0  0.93628  0.36194  0.00539  1.0000
  C   C1228     1.0  0.93748  0.38573  0.00398  1.0000
  C   C1229     1.0  0.92744  0.39848  0.01478  1.0000
  C   C1230     1.0  0.91653  0.38716  0.02714  1.0000
  C   C1231     1.0  0.91461  0.36351  0.02836  1.0000
  H   H2066     1.0  0.95135  0.62158  0.17810  1.0000
  H   H2067     1.0  0.91072  0.55169  0.10335  1.0000
  H   H2068     1.0  0.90861  0.39691  0.03550  1.0000
  H   H2069     1.0  0.90526  0.35509  0.03772  1.0000
  C   C1232     1.0  0.70025  0.57812  0.15612  1.0000
  C   C1233     1.0  0.70917  0.56578  0.16802  1.0000
  C   C1234     1.0  0.73380  0.56002  0.16812  1.0000
  C   C1235     1.0  0.74963  0.56738  0.15653  1.0000
  C   C1236     1.0  0.74066  0.58044  0.14479  1.0000
  C   C1237     1.0  0.71608  0.58535  0.14449  1.0000
  H   H2070     1.0  0.69713  0.56001  0.17702  1.0000
  H   H2071     1.0  0.74060  0.54976  0.17719  1.0000
  H   H2072     1.0  0.75262  0.58627  0.13582  1.0000
  H   H2073     1.0  0.70929  0.59495  0.13527  1.0000
  H   H2074     1.0  0.93359  0.56778  0.09604  1.0000
  H   H2075     1.0  0.60433  0.54701  0.18476  1.0000
  H   H2076     1.0  0.78776  0.61263  0.21715  1.0000
  H   H2077     1.0  0.61648  0.55573  0.13615  1.0000
  C   C1238     1.0  0.87436  0.60031  0.16527  1.0000
  H   H2078     1.0  0.58165  0.50086  0.17372  1.0000
  C   C1239     1.0  0.88561  0.61148  0.17258  1.0000
  H   H2079     1.0  0.54096  0.55912  0.17073  1.0000
  H   H2080     1.0  0.89838  0.62208  0.16710  1.0000
  C   C1240     1.0  0.93825  0.53344  0.08935  1.0000
  H   H2081     1.0  0.62421  0.51332  0.15304  1.0000
  H   H2082     1.0  0.63126  0.50916  0.19245  1.0000
  H   H2083     1.0  0.78150  0.56289  0.20743  1.0000
  H   H2084     1.0  0.63527  0.57434  0.13847  1.0000
  C   C1241     1.0  0.84152  0.37294  0.98906  1.0000
  H   H2085     1.0  0.77743  0.61867  0.18800  1.0000
  H   H2086     1.0  0.55446  0.53141  0.16602  1.0000
  H   H2087     1.0  0.51803  0.56878  0.20795  1.0000
  H   H2088     1.0  0.58624  0.49161  0.15744  1.0000
  S   S376      1.0  0.63637  0.57091  0.19378  1.0000
  H   H2089     1.0  0.55730  0.53868  0.18253  1.0000
  S   S377      1.0  0.60565  0.61797  0.20612  1.0000
  H   H2090     1.0  0.92636  0.55930  0.06576  1.0000
  H   H2091     1.0  0.63640  0.50205  0.17539  1.0000
  C   C1242     1.0  0.98693  0.49999  0.08367  1.0000
  H   H2092     1.0  0.98772  0.54697  0.06716  1.0000
  H   H2093     1.0  0.93035  0.56566  0.15887  1.0000
  C   C1243     1.0  0.85762  0.58687  0.17236  1.0000
  C   C1244     1.0  0.54046  0.60412  0.17987  1.0000
  H   H2094     1.0  0.84891  0.57817  0.16676  1.0000
  C   C1245     1.0  0.94695  0.58863  0.19145  1.0000
  H   H2095     1.0  0.99478  0.48986  0.03716  1.0000
  Fe  Fe190     1.0  0.64345  0.59866  0.20414  1.0000
  H   H2096     1.0  0.98799  0.39555  0.05997  1.0000
  C   C1246     1.0  0.86362  0.59552  0.19408  1.0000
  C   C1247     1.0  0.95755  0.54898  0.98973  1.0000
  H   H2097     1.0  0.77678  0.52309  0.13541  1.0000
  H   H2098     1.0  0.55675  0.60994  0.17499  1.0000
  C   C1248     1.0  0.94231  0.54965  0.20416  1.0000
  H   H2099     1.0  0.83830  0.39153  0.99070  1.0000
  N   N86       1.0  0.99939  0.37308  0.03234  1.0000
  H   H2100     1.0  0.62189  0.56776  0.16407  1.0000
  H   H2101     1.0  0.90018  0.35296  0.99380  1.0000
  C   C1249     1.0  0.87990  0.60944  0.18695  1.0000
  C   C1250     1.0  0.73999  0.53896  0.12222  1.0000
  H   H2102     1.0  0.97987  0.54645  0.08515  1.0000
  H   H2103     1.0  0.97879  0.64550  0.21770  1.0000
  H   H2104     1.0  0.74074  0.54067  0.13296  1.0000
  N   N87       1.0  0.95059  0.56301  0.19024  1.0000
  C   C1251     1.0  0.51997  0.61189  0.17357  1.0000
  H   H2105     1.0  0.97711  0.60700  0.18523  1.0000
  H   H2106     1.0  0.98681  0.36520  0.06082  1.0000
  H   H2107     1.0  0.92919  0.53005  0.06403  1.0000
  N   N88       1.0  0.78515  0.53106  0.11310  1.0000
  C   C1252     1.0  0.76121  0.54673  0.11199  1.0000
  C   C1253     1.0  0.80312  0.54249  0.10267  1.0000
  C   C1254     1.0  0.79033  0.53039  0.12740  1.0000
  C   C1255     1.0  0.78424  0.50690  0.11065  1.0000
  C   C1256     1.0  0.79920  0.54638  0.08751  1.0000
  C   C1257     1.0  0.81416  0.51579  0.13100  1.0000
  C   C1258     1.0  0.80815  0.49122  0.10578  1.0000
  H   H2108     1.0  0.76164  0.56496  0.11328  1.0000
  H   H2109     1.0  0.75638  0.54819  0.10158  1.0000
  H   H2110     1.0  0.82129  0.53254  0.10304  1.0000
  H   H2111     1.0  0.80376  0.55989  0.10508  1.0000
  H   H2112     1.0  0.78949  0.54850  0.12928  1.0000
  Fe  Fe191     1.0  0.59927  0.59238  0.19386  1.0000
  H   H2113     1.0  0.77552  0.49694  0.12014  1.0000
  H   H2114     1.0  0.77295  0.50838  0.10258  1.0000
  H   H2115     1.0  0.78481  0.56162  0.08535  1.0000
  H   H2116     1.0  0.81557  0.55067  0.08073  1.0000
  H   H2117     1.0  0.79540  0.53067  0.08451  1.0000
  H   H2118     1.0  0.81593  0.51822  0.14148  1.0000
  H   H2119     1.0  0.82955  0.52154  0.12400  1.0000
  H   H2120     1.0  0.81482  0.49679  0.13149  1.0000
  H   H2121     1.0  0.80756  0.47270  0.11046  1.0000
  H   H2122     1.0  0.82409  0.49523  0.10853  1.0000
  H   H2123     1.0  0.81070  0.49145  0.09447  1.0000
  H   H2124     1.0  0.94662  0.53039  0.20400  1.0000
  C   C1259     1.0  0.88559  0.36416  0.98851  1.0000
  H   H2125     1.0  0.52066  0.62367  0.16385  1.0000
  H   H2126     1.0  0.84418  0.32864  0.99957  1.0000
  C   C1260     1.0  0.92278  0.55627  0.09366  1.0000
  S   S378      1.0  0.67026  0.59067  0.21881  1.0000
  C   C1261     1.0  0.97683  0.33850  0.03852  1.0000
  H   H2127     1.0  0.75754  0.58812  0.18936  1.0000
  H   H2128     1.0  0.65083  0.64364  0.22097  1.0000
  C   C1262     1.0  0.97915  0.38327  0.05657  1.0000
  H   H2129     1.0  0.87506  0.35548  0.01511  1.0000
  H   H2130     1.0  0.82474  0.36708  0.99417  1.0000
  C   C1263     1.0  0.99402  0.37773  0.01777  1.0000
  H   H2131     1.0  0.76317  0.62850  0.20972  1.0000
  C   C1264     1.0  0.54734  0.65468  0.19020  1.0000
  C   C1265     1.0  0.73364  0.61867  0.23422  1.0000
  H   H2132     1.0  0.96229  0.38798  0.03847  1.0000
  H   H2133     1.0  0.95061  0.59047  0.20168  1.0000
  H   H2134     1.0  0.72337  0.55076  0.11953  1.0000
  H   H2135     1.0  0.94239  0.56313  0.99067  1.0000
  C   C1266     1.0  0.98017  0.38823  0.04075  1.0000
  H   H2136     1.0  0.94840  0.52549  0.09797  1.0000
  C   C1267     1.0  0.51858  0.58102  0.19840  1.0000
  H   H2137     1.0  0.94077  0.55575  0.04223  1.0000
  C   C1268     1.0  0.96798  0.51091  0.07420  1.0000
  H   H2138     1.0  0.91686  0.56652  0.18317  1.0000
  H   H2139     1.0  0.82051  0.36387  0.01690  1.0000
  H   H2140     1.0  0.96033  0.38601  0.06157  1.0000
  H   H2141     1.0  0.63951  0.54330  0.15697  1.0000
  H   H2142     1.0  0.64543  0.52763  0.17867  1.0000
  H   H2143     1.0  0.79397  0.56425  0.23577  1.0000
  H   H2144     1.0  0.59351  0.52151  0.18546  1.0000
  H   H2145     1.0  0.60415  0.58280  0.14314  1.0000
  H   H2146     1.0  0.83992  0.57340  0.19225  1.0000
  N   N89       1.0  0.95460  0.53543  0.07575  1.0000
  H   H2147     1.0  0.73828  0.52085  0.12176  1.0000
  H   H2148     1.0  0.59674  0.52628  0.14723  1.0000
  H   H2149     1.0  0.97770  0.51030  0.06364  1.0000
  H   H2150     1.0  0.91106  0.56600  0.08613  1.0000
  C   C1269     1.0  0.98243  0.51428  0.00003  1.0000
  N   N90       1.0  0.76076  0.59221  0.21739  1.0000
  H   H2151     1.0  0.92591  0.52140  0.08943  1.0000
  C   C1270     1.0  0.77555  0.56784  0.21783  1.0000
  C   C1271     1.0  0.73944  0.59417  0.21039  1.0000
  C   C1272     1.0  0.77493  0.61096  0.21060  1.0000
  H   H2152     1.0  0.71735  0.61972  0.22982  1.0000
  H   H2153     1.0  0.98130  0.41607  0.01493  1.0000
  C   C1273     1.0  0.74328  0.58251  0.19741  1.0000
  H   H2154     1.0  0.94617  0.39427  0.99444  1.0000
  H   H2155     1.0  0.86053  0.65302  0.13406  1.0000
  H   H2156     1.0  0.97208  0.33889  0.02824  1.0000
  H   H2157     1.0  0.78630  0.65606  0.15067  1.0000
  H   H2158     1.0  0.81015  0.57576  0.21945  1.0000
  C   C1274     1.0  0.83774  0.35555  0.02037  1.0000
  H   H2159     1.0  0.79534  0.59092  0.19393  1.0000
  C   C1275     1.0  0.94183  0.57070  0.16507  1.0000
  H   H2160     1.0  0.73126  0.61288  0.20742  1.0000
  H   H2161     1.0  0.96472  0.56212  0.04865  1.0000
  H   H2162     1.0  0.72533  0.58612  0.21764  1.0000
  C   C1276     1.0  0.91565  0.55580  0.20976  1.0000
  C   C1277     1.0  0.97627  0.55234  0.18615  1.0000
  C   C1278     1.0  0.99309  0.55300  0.19622  1.0000
  H   H2163     1.0  0.93739  0.59009  0.16391  1.0000
  H   H2164     1.0  0.76465  0.55464  0.22342  1.0000
  H   H2165     1.0  0.95547  0.49850  0.07579  1.0000
  C   C1279     1.0  0.93989  0.54341  0.06421  1.0000
  C   C1280     1.0  0.78853  0.60905  0.19594  1.0000
  H   H2166     1.0  0.96039  0.56467  0.16046  1.0000
  N   N91       1.0  0.60282  0.53984  0.16461  1.0000
  C   C1281     1.0  0.62142  0.55434  0.15775  1.0000
  C   C1282     1.0  0.60682  0.53167  0.17937  1.0000
  C   C1283     1.0  0.57891  0.55578  0.16432  1.0000
  C   C1284     1.0  0.60514  0.51992  0.15672  1.0000
  C   C1285     1.0  0.61884  0.56736  0.14303  1.0000
  C   C1286     1.0  0.63146  0.51675  0.18138  1.0000
  C   C1287     1.0  0.55703  0.54515  0.17140  1.0000
  C   C1288     1.0  0.59500  0.49808  0.16452  1.0000
  H   H2167     1.0  0.92809  0.59704  0.19111  1.0000
  H   H2168     1.0  0.89416  0.49923  0.99539  1.0000
  H   H2169     1.0  0.76660  0.59626  0.23761  1.0000
  H   H2170     1.0  0.97798  0.53363  0.18504  1.0000
  H   H2171     1.0  0.85665  0.38281  0.01030  1.0000
  H   H2172     1.0  0.74671  0.56310  0.20004  1.0000
  C   C1289     1.0  0.85893  0.36365  0.01028  1.0000
  H   H2173     1.0  0.84536  0.65006  0.15811  1.0000
  C   C1290     1.0  0.75179  0.59591  0.23215  1.0000
  H   H2174     1.0  0.95169  0.55261  0.21221  1.0000
  H   H2175     1.0  0.62372  0.60239  0.23512  1.0000
  H   H2176     1.0  0.96190  0.34844  0.04490  1.0000
  H   H2177     1.0  0.99093  0.53968  0.20560  1.0000
  H   H2178     1.0  0.97612  0.37446  0.01757  1.0000
  H   H2179     1.0  0.94734  0.65215  0.22104  1.0000
  H   H2180     1.0  0.72668  0.58743  0.19276  1.0000
  H   H2181     1.0  0.88819  0.39495  0.99726  1.0000
  C   C1291     1.0  0.95371  0.54871  0.04955  1.0000
  H   H2182     1.0  0.69005  0.65527  0.22331  1.0000
  C   C1292     1.0  0.90740  0.51085  0.99259  1.0000
  H   H2183     1.0  0.99057  0.57046  0.19934  1.0000
  H   H2184     1.0  0.96938  0.59736  0.17086  1.0000
  H   H2185     1.0  0.96556  0.58536  0.08180  1.0000
  H   H2186     1.0  0.90946  0.57490  0.20954  1.0000
  H   H2187     1.0  0.99479  0.48193  0.08152  1.0000
  Fe  Fe192     1.0  0.89208  0.65153  0.22780  1.0000
  H   H2188     1.0  0.83732  0.36088  0.03049  1.0000
  H   H2189     1.0  0.91941  0.50676  0.00046  1.0000
  H   H2190     1.0  0.83955  0.33619  0.02229  1.0000
  H   H2191     1.0  0.94450  0.58335  0.07147  1.0000
  H   H2192     1.0  0.98381  0.56066  0.17588  1.0000
  Fe  Fe193     1.0  0.92594  0.60531  0.23237  1.0000
  S   S379      1.0  0.96459  0.58784  0.22905  1.0000
  H   H2193     1.0  0.91242  0.54734  0.22068  1.0000
  H   H2194     1.0  0.98179  0.40697  0.03760  1.0000
  H   H2195     1.0  0.97413  0.58594  0.06372  1.0000
  H   H2196     1.0  0.97955  0.49838  0.09475  1.0000
  C   C1293     1.0  0.96325  0.57771  0.07295  1.0000
  H   H2197     1.0  0.95751  0.49227  0.98870  1.0000
  H   H2198     1.0  0.80465  0.61689  0.19446  1.0000
  H   H2199     1.0  0.94126  0.46988  0.99590  1.0000
  N   N92       1.0  0.86209  0.35833  0.99579  1.0000
  H   H2200     1.0  0.80819  0.54553  0.22350  1.0000
  H   H2201     1.0  0.98232  0.45290  0.99238  1.0000
  H   H2202     1.0  0.56449  0.64756  0.18420  1.0000
  C   C1294     1.0  0.66115  0.59446  0.23611  1.0000
  H   H2203     1.0  0.50220  0.64542  0.19459  1.0000
  C   C1295     1.0  0.98583  0.59805  0.23567  1.0000
  C   C1296     1.0  0.86248  0.33243  0.99677  1.0000
  H   H2204     1.0  0.99005  0.40380  0.99944  1.0000
  H   H2205     1.0  0.97707  0.61583  0.98862  1.0000
  H   H2206     1.0  0.74145  0.63453  0.23003  1.0000
  H   H2207     1.0  0.53923  0.63946  0.19543  1.0000
  H   H2208     1.0  0.61530  0.65025  0.23771  1.0000
  H   H2209     1.0  0.74336  0.58104  0.23807  1.0000
  S   S380      1.0  0.60439  0.48781  0.39327  1.0000
  C   C1297     1.0  0.56660  0.62491  0.47777  1.0000
  C   C1298     1.0  0.54577  0.35784  0.47883  1.0000
  H   H2210     1.0  0.52771  0.39488  0.43318  1.0000
  H   H2211     1.0  0.58712  0.59014  0.43346  1.0000
  C   C1299     1.0  0.52019  0.48430  0.38102  1.0000
  C   C1300     1.0  0.52828  0.39600  0.42194  1.0000
  H   H2212     1.0  0.66813  0.51255  0.30492  1.0000
  H   H2213     1.0  0.94671  0.60597  0.29219  1.0000
  Fe  Fe194     1.0  0.57667  0.49013  0.41208  1.0000
  H   H2214     1.0  0.92113  0.64144  0.28017  1.0000
  H   H2215     1.0  0.54979  0.56782  0.42633  1.0000
  H   H2216     1.0  0.64512  0.49322  0.32669  1.0000
  H   H2217     1.0  0.65111  0.34451  0.47399  1.0000
  H   H2218     1.0  0.52744  0.54163  0.48167  1.0000
  C   C1301     1.0  0.53745  0.55597  0.47804  1.0000
  S   S381      1.0  0.85994  0.61027  0.27349  1.0000
  S   S382      1.0  0.61597  0.65580  0.47341  1.0000
  H   H2219     1.0  0.65590  0.53256  0.46006  1.0000
  H   H2220     1.0  0.59353  0.39348  0.43155  1.0000
  Fe  Fe195     1.0  0.69699  0.59369  0.31426  1.0000
  Fe  Fe196     1.0  0.63016  0.47721  0.40844  1.0000
  S   S383      1.0  0.66315  0.44992  0.40580  1.0000
  Fe  Fe197     1.0  0.60468  0.51368  0.42634  1.0000
  S   S384      1.0  0.57676  0.52766  0.41276  1.0000
  S   S385      1.0  0.60163  0.52492  0.44701  1.0000
  Fe  Fe198     1.0  0.60689  0.52450  0.39509  1.0000
  S   S386      1.0  0.60643  0.55477  0.37741  1.0000
  S   S387      1.0  0.60237  0.47621  0.42704  1.0000
  S   S388      1.0  0.63489  0.51376  0.40887  1.0000
  H   H2221     1.0  0.61053  0.35116  0.40578  1.0000
  S   S389      1.0  0.70071  0.58289  0.29349  1.0000
  Fe  Fe199     1.0  0.64161  0.62179  0.47220  1.0000
  C   C1302     1.0  0.57997  0.37832  0.41054  1.0000
  S   S390      1.0  0.65187  0.60641  0.45246  1.0000
  H   H2222     1.0  0.69588  0.55649  0.46128  1.0000
  H   H2223     1.0  0.91649  0.55100  0.26289  1.0000
  H   H2224     1.0  0.50905  0.48370  0.45805  1.0000
  H   H2225     1.0  0.54517  0.42613  0.43765  1.0000
  H   H2226     1.0  0.58545  0.62016  0.47785  1.0000
  H   H2227     1.0  0.57436  0.37858  0.40049  1.0000
  Fe  Fe200     1.0  0.87944  0.61506  0.25185  1.0000
  S   S391      1.0  0.89622  0.58530  0.24026  1.0000
  C   C1303     1.0  0.53451  0.48340  0.39104  1.0000
  H   H2228     1.0  0.50414  0.33511  0.45214  1.0000
  Fe  Fe201     1.0  0.67137  0.61341  0.28948  1.0000
  C   C1304     1.0  0.91649  0.57449  0.29494  1.0000
  H   H2229     1.0  0.66970  0.43374  0.44174  1.0000
  H   H2230     1.0  0.64857  0.48673  0.44037  1.0000
  H   H2231     1.0  0.61168  0.46304  0.45772  1.0000
  H   H2232     1.0  0.56642  0.38367  0.43644  1.0000
  H   H2233     1.0  0.81613  0.61627  0.29285  1.0000
  S   S392      1.0  0.91080  0.63307  0.24557  1.0000
  H   H2234     1.0  0.54623  0.34076  0.47562  1.0000
  C   C1305     1.0  0.93887  0.60479  0.28307  1.0000
  H   H2235     1.0  0.79935  0.59386  0.25094  1.0000
  H   H2236     1.0  0.65339  0.52523  0.37380  1.0000
  S   S393      1.0  0.69795  0.56501  0.33292  1.0000
  H   H2237     1.0  0.54979  0.55181  0.46857  1.0000
  H   H2238     1.0  0.68953  0.41058  0.46516  1.0000
  C   C1306     1.0  0.67347  0.54369  0.35633  1.0000
  H   H2239     1.0  0.66074  0.43894  0.47957  1.0000
  C   C1307     1.0  0.69057  0.42930  0.46430  1.0000
  H   H2240     1.0  0.70685  0.48058  0.46357  1.0000
  Fe  Fe202     1.0  0.64045  0.32642  0.44292  1.0000
  H   H2241     1.0  0.66633  0.56138  0.46972  1.0000
  C   C1308     1.0  0.66890  0.51671  0.48582  1.0000
  H   H2242     1.0  0.63302  0.53130  0.48043  1.0000
  H   H2243     1.0  0.55961  0.57491  0.48412  1.0000
  H   H2244     1.0  0.53186  0.37807  0.41930  1.0000
  H   H2245     1.0  0.69902  0.43567  0.45378  1.0000
  H   H2246     1.0  0.55245  0.48648  0.38793  1.0000
  H   H2247     1.0  0.70577  0.51332  0.44543  1.0000
  H   H2248     1.0  0.58550  0.40935  0.38717  1.0000
  H   H2249     1.0  0.71567  0.51314  0.48200  1.0000
  C   C1309     1.0  0.67331  0.56367  0.34614  1.0000
  H   H2250     1.0  0.54862  0.62853  0.41478  1.0000
  S   S394      1.0  0.64010  0.61122  0.27989  1.0000
  C   C1310     1.0  0.65323  0.54092  0.36618  1.0000
  C   C1311     1.0  0.58622  0.42478  0.39166  1.0000
  C   C1312     1.0  0.64821  0.60330  0.26340  1.0000
  C   C1313     1.0  0.67210  0.59665  0.25806  1.0000
  C   C1314     1.0  0.57453  0.39850  0.43037  1.0000
  S   S395      1.0  0.75551  0.60124  0.26904  1.0000
  C   C1315     1.0  0.62561  0.46166  0.46420  1.0000
  C   C1316     1.0  0.63073  0.60493  0.25519  1.0000
  H   H2251     1.0  0.68568  0.59533  0.26432  1.0000
  C   C1317     1.0  0.57534  0.61176  0.38678  1.0000
  H   H2252     1.0  0.90499  0.62321  0.29316  1.0000
  C   C1318     1.0  0.93322  0.55370  0.26554  1.0000
  C   C1319     1.0  0.63272  0.55822  0.36590  1.0000
  C   C1320     1.0  0.68420  0.55072  0.47089  1.0000
  H   H2253     1.0  0.67500  0.49641  0.32711  1.0000
  C   C1321     1.0  0.65299  0.58121  0.34612  1.0000
  C   C1322     1.0  0.63279  0.57850  0.35598  1.0000
  H   H2254     1.0  0.67857  0.52121  0.43861  1.0000
  H   H2255     1.0  0.60221  0.42530  0.46648  1.0000
  H   H2256     1.0  0.61703  0.59202  0.35577  1.0000
  C   C1323     1.0  0.61453  0.54869  0.44782  1.0000
  C   C1324     1.0  0.63197  0.55615  0.43732  1.0000
  C   C1325     1.0  0.64284  0.57442  0.43864  1.0000
  C   C1326     1.0  0.63639  0.58519  0.45047  1.0000
  C   C1327     1.0  0.61867  0.57794  0.46084  1.0000
  C   C1328     1.0  0.60781  0.55973  0.45951  1.0000
  H   H2257     1.0  0.63756  0.54741  0.42839  1.0000
  H   H2258     1.0  0.65667  0.57987  0.43062  1.0000
  H   H2259     1.0  0.61354  0.58613  0.46997  1.0000
  H   H2260     1.0  0.59437  0.55397  0.46764  1.0000
  N   N93       1.0  0.58209  0.60385  0.41214  1.0000
  H   H2261     1.0  0.67707  0.37177  0.47535  1.0000
  H   H2262     1.0  0.57026  0.39069  0.48179  1.0000
  H   H2263     1.0  0.96341  0.56636  0.29605  1.0000
  S   S396      1.0  0.66570  0.62236  0.31076  1.0000
  C   C1329     1.0  0.83090  0.60706  0.27277  1.0000
  C   C1330     1.0  0.81248  0.61133  0.28372  1.0000
  C   C1331     1.0  0.78918  0.60960  0.28277  1.0000
  C   C1332     1.0  0.78433  0.60340  0.27091  1.0000
  C   C1333     1.0  0.80285  0.59883  0.26009  1.0000
  C   C1334     1.0  0.82600  0.60063  0.26102  1.0000
  C   C1335     1.0  0.92935  0.57842  0.26960  1.0000
  H   H2264     1.0  0.77501  0.61310  0.29118  1.0000
  H   H2265     1.0  0.56152  0.65482  0.42725  1.0000
  S   S397      1.0  0.72409  0.61717  0.30720  1.0000
  C   C1336     1.0  0.69278  0.55859  0.48259  1.0000
  C   C1337     1.0  0.53252  0.62525  0.46719  1.0000
  H   H2266     1.0  0.56839  0.60977  0.45962  1.0000
  H   H2267     1.0  0.93856  0.53877  0.27348  1.0000
  C   C1338     1.0  0.52556  0.47824  0.40504  1.0000
  H   H2268     1.0  0.59499  0.54364  0.32913  1.0000
  H   H2269     1.0  0.62685  0.51623  0.30686  1.0000
  H   H2270     1.0  0.60675  0.51274  0.33085  1.0000
  C   C1339     1.0  0.91617  0.62385  0.28286  1.0000
  C   C1340     1.0  0.65600  0.50195  0.33127  1.0000
  C   C1341     1.0  0.67338  0.52086  0.46072  1.0000
  H   H2271     1.0  0.66859  0.46276  0.46752  1.0000
  H   H2272     1.0  0.69029  0.54355  0.44312  1.0000
  H   H2273     1.0  0.52716  0.48805  0.37019  1.0000
  H   H2274     1.0  0.59358  0.61490  0.38290  1.0000
  S   S398      1.0  0.69557  0.63885  0.28043  1.0000
  S   S399      1.0  0.52033  0.61665  0.45475  1.0000
  C   C1342     1.0  0.64966  0.35144  0.48342  1.0000
  H   H2275     1.0  0.89929  0.58628  0.29321  1.0000
  C   C1343     1.0  0.66661  0.37198  0.42263  1.0000
  C   C1344     1.0  0.64661  0.38815  0.42711  1.0000
  C   C1345     1.0  0.64490  0.41223  0.42180  1.0000
  C   C1346     1.0  0.66362  0.42011  0.41241  1.0000
  C   C1347     1.0  0.68377  0.40397  0.40830  1.0000
  C   C1348     1.0  0.68516  0.38003  0.41327  1.0000
  H   H2276     1.0  0.63261  0.38203  0.43460  1.0000
  H   H2277     1.0  0.62926  0.42466  0.42492  1.0000
  H   H2278     1.0  0.69833  0.40995  0.40110  1.0000
  H   H2279     1.0  0.70072  0.36766  0.40983  1.0000
  H   H2280     1.0  0.94662  0.55241  0.25609  1.0000
  H   H2281     1.0  0.92055  0.57774  0.30478  1.0000
  H   H2282     1.0  0.62291  0.58563  0.39121  1.0000
  H   H2283     1.0  0.99086  0.63201  0.25853  1.0000
  H   H2284     1.0  0.67807  0.53225  0.28246  1.0000
  H   H2285     1.0  0.65271  0.59675  0.33841  1.0000
  H   H2286     1.0  0.65556  0.40618  0.45898  1.0000
  H   H2287     1.0  0.91042  0.58661  0.26917  1.0000
  H   H2288     1.0  0.99620  0.55413  0.27722  1.0000
  H   H2289     1.0  0.60305  0.43046  0.38645  1.0000
  N   N94       1.0  0.68387  0.52492  0.47251  1.0000
  H   H2290     1.0  0.95845  0.54541  0.28735  1.0000
  H   H2291     1.0  0.92639  0.53567  0.29973  1.0000
  H   H2292     1.0  0.61222  0.61002  0.25932  1.0000
  C   C1349     1.0  0.54629  0.41079  0.41337  1.0000
  H   H2293     1.0  0.72118  0.51868  0.46379  1.0000
  H   H2294     1.0  0.66954  0.50288  0.46245  1.0000
  C   C1350     1.0  0.57327  0.59588  0.40095  1.0000
  S   S400      1.0  0.61022  0.34818  0.45484  1.0000
  H   H2295     1.0  0.52509  0.57246  0.47493  1.0000
  H   H2296     1.0  0.93948  0.58895  0.26103  1.0000
  H   H2297     1.0  0.61331  0.36546  0.41929  1.0000
  H   H2298     1.0  0.55420  0.59462  0.40392  1.0000
  H   H2299     1.0  0.90313  0.54646  0.28892  1.0000
  H   H2300     1.0  0.89715  0.54800  0.30677  1.0000
  C   C1351     1.0  0.91095  0.54960  0.29751  1.0000
  C   C1352     1.0  0.66610  0.44446  0.46835  1.0000
  H   H2301     1.0  0.56683  0.41474  0.44881  1.0000
  H   H2302     1.0  0.59460  0.46214  0.48040  1.0000
  Fe  Fe203     1.0  0.69281  0.64516  0.30211  1.0000
  C   C1353     1.0  0.50236  0.47421  0.40895  1.0000
  H   H2303     1.0  0.68913  0.53002  0.35641  1.0000
  H   H2304     1.0  0.69697  0.58672  0.24047  1.0000
  H   H2305     1.0  0.54024  0.42902  0.41554  1.0000
  H   H2306     1.0  0.65399  0.49556  0.34255  1.0000
  C   C1354     1.0  0.60686  0.36851  0.40925  1.0000
  H   H2307     1.0  0.56286  0.62877  0.38703  1.0000
  C   C1355     1.0  0.95914  0.56422  0.28602  1.0000
  H   H2308     1.0  0.52818  0.36856  0.47716  1.0000
  C   C1356     1.0  0.61422  0.45891  0.47957  1.0000
  Fe  Fe204     1.0  0.72490  0.60896  0.28605  1.0000
  S   S401      1.0  0.54293  0.47577  0.41799  1.0000
  C   C1357     1.0  0.56794  0.62773  0.41434  1.0000
  S   S402      1.0  0.66896  0.63352  0.48091  1.0000
  C   C1358     1.0  0.57131  0.63650  0.42724  1.0000
  Fe  Fe205     1.0  0.58876  0.32521  0.44942  1.0000
  C   C1359     1.0  0.68816  0.52502  0.44627  1.0000
  C   C1360     1.0  0.55696  0.61928  0.46733  1.0000
  N   N95       1.0  0.93591  0.57994  0.28325  1.0000
  N   N96       1.0  0.64317  0.53984  0.31457  1.0000
  C   C1361     1.0  0.66456  0.53194  0.30431  1.0000
  C   C1362     1.0  0.64882  0.52894  0.32876  1.0000
  C   C1363     1.0  0.64004  0.56612  0.31329  1.0000
  C   C1364     1.0  0.62171  0.53281  0.31132  1.0000
  C   C1365     1.0  0.66298  0.54185  0.28897  1.0000
  C   C1366     1.0  0.61828  0.57851  0.32215  1.0000
  C   C1367     1.0  0.60151  0.52870  0.32342  1.0000
  H   H2309     1.0  0.68081  0.53632  0.30675  1.0000
  H   H2310     1.0  0.63393  0.53396  0.33695  1.0000
  H   H2311     1.0  0.66387  0.53568  0.33087  1.0000
  H   H2312     1.0  0.65608  0.57099  0.31566  1.0000
  H   H2313     1.0  0.63820  0.57476  0.30261  1.0000
  H   H2314     1.0  0.61373  0.54619  0.30318  1.0000
  H   H2315     1.0  0.64645  0.53978  0.28583  1.0000
  H   H2316     1.0  0.66473  0.56052  0.28641  1.0000
  H   H2317     1.0  0.61657  0.57064  0.33315  1.0000
  H   H2318     1.0  0.60180  0.57917  0.31799  1.0000
  H   H2319     1.0  0.62002  0.59701  0.32161  1.0000
  H   H2320     1.0  0.58617  0.52590  0.31928  1.0000
  H   H2321     1.0  0.58246  0.57780  0.39956  1.0000
  N   N97       1.0  0.64698  0.44330  0.46045  1.0000
  C   C1368     1.0  0.65513  0.44800  0.44513  1.0000
  C   C1369     1.0  0.64126  0.41895  0.46406  1.0000
  H   H2322     1.0  0.63025  0.47942  0.46175  1.0000
  C   C1370     1.0  0.66342  0.47156  0.43952  1.0000
  C   C1371     1.0  0.61783  0.41617  0.46015  1.0000
  H   H2323     1.0  0.84010  0.59678  0.25264  1.0000
  H   H2324     1.0  0.64076  0.44773  0.43941  1.0000
  H   H2325     1.0  0.64072  0.41224  0.47526  1.0000
  C   C1372     1.0  0.97901  0.61352  0.24529  1.0000
  C   C1373     1.0  0.62462  0.58487  0.40214  1.0000
  H   H2326     1.0  0.67031  0.47214  0.42835  1.0000
  H   H2327     1.0  0.67808  0.47368  0.44445  1.0000
  H   H2328     1.0  0.61680  0.39725  0.46220  1.0000
  C   C1374     1.0  0.67849  0.59200  0.24450  1.0000
  H   H2329     1.0  0.61674  0.42251  0.44911  1.0000
  H   H2330     1.0  0.70255  0.43011  0.47153  1.0000
  H   H2331     1.0  0.69090  0.57799  0.48058  1.0000
  H   H2332     1.0  0.54436  0.41206  0.40237  1.0000
  C   C1375     1.0  0.98080  0.56821  0.27497  1.0000
  H   H2333     1.0  0.65524  0.64226  0.24463  1.0000
  C   C1376     1.0  0.60796  0.60563  0.40831  1.0000
  H   H2334     1.0  0.61737  0.37984  0.40149  1.0000
  H   H2335     1.0  0.98619  0.58501  0.27512  1.0000
  C   C1377     1.0  0.70885  0.51137  0.47265  1.0000
  H   H2336     1.0  0.55232  0.57668  0.44219  1.0000
  C   C1378     1.0  0.57937  0.58609  0.42505  1.0000
  H   H2337     1.0  0.57400  0.43456  0.43355  1.0000
  H   H2338     1.0  0.58988  0.56862  0.42327  1.0000
  C   C1379     1.0  0.56442  0.41990  0.43781  1.0000
  H   H2339     1.0  0.61523  0.60745  0.41749  1.0000
  H   H2340     1.0  0.61041  0.62174  0.40078  1.0000
  H   H2341     1.0  0.57253  0.64124  0.40540  1.0000
  N   N98       1.0  0.57176  0.40179  0.41540  1.0000
  S   S403      1.0  0.66923  0.34156  0.42813  1.0000
  H   H2342     1.0  0.90545  0.62247  0.27516  1.0000
  H   H2343     1.0  0.96048  0.62004  0.24848  1.0000
  H   H2344     1.0  0.57107  0.43897  0.38907  1.0000
  H   H2345     1.0  0.60498  0.41484  0.40936  1.0000
  H   H2346     1.0  0.54014  0.59771  0.42906  1.0000
  H   H2347     1.0  0.56025  0.36544  0.47192  1.0000
  H   H2348     1.0  0.57132  0.36470  0.41770  1.0000
  H   H2349     1.0  0.62163  0.56759  0.40787  1.0000
  H   H2350     1.0  0.64332  0.58588  0.40229  1.0000
  H   H2351     1.0  0.56369  0.62600  0.43674  1.0000
  H   H2352     1.0  0.61883  0.47190  0.48479  1.0000
  C   C1380     1.0  0.55395  0.58191  0.43083  1.0000
  H   H2353     1.0  0.57982  0.43671  0.41095  1.0000
  C   C1381     1.0  0.51788  0.63718  0.47735  1.0000
  C   C1382     1.0  0.99627  0.62033  0.25094  1.0000
  C   C1383     1.0  0.58632  0.41947  0.40738  1.0000
  H   H2354     1.0  0.57048  0.60295  0.37915  1.0000
  S   S404      1.0  0.55256  0.34017  0.44415  1.0000
  H   H2355     1.0  0.95156  0.61050  0.27392  1.0000
  H   H2356     1.0  0.61954  0.44134  0.48553  1.0000
  H   H2357     1.0  0.66684  0.49834  0.48626  1.0000
  H   H2358     1.0  0.59018  0.63638  0.42757  1.0000
  H   H2359     1.0  0.50775  0.49653  0.47932  1.0000
  H   H2360     1.0  0.97773  0.56760  0.26446  1.0000
  H   H2361     1.0  0.53526  0.40525  0.47822  1.0000
  H   H2362     1.0  0.73129  0.47689  0.47257  1.0000
  H   H2363     1.0  0.62442  0.65824  0.26176  1.0000
  C   C1384     1.0  0.71218  0.48473  0.47273  1.0000
  H   H2364     1.0  0.70263  0.47587  0.48227  1.0000
  H   H2365     1.0  0.51026  0.40449  0.41960  1.0000
  C   C1385     1.0  0.63720  0.60070  0.24150  1.0000
  H   H2366     1.0  0.71175  0.55123  0.48319  1.0000
  H   H2367     1.0  0.50737  0.46028  0.44306  1.0000
  C   C1386     1.0  0.66433  0.36690  0.48419  1.0000
  H   H2368     1.0  0.72803  0.61882  0.24545  1.0000
  H   H2369     1.0  0.50484  0.40703  0.48504  1.0000
  C   C1387     1.0  0.52224  0.40833  0.48749  1.0000
  H   H2370     1.0  0.50387  0.52482  0.46828  1.0000
  C   C1388     1.0  0.52736  0.64175  0.48816  1.0000
  H   H2371     1.0  0.76938  0.33791  0.66579  1.0000
  H   H2372     1.0  0.72497  0.52064  0.52077  1.0000
  H   H2373     1.0  0.52562  0.40242  0.50900  1.0000
  H   H2374     1.0  0.71913  0.43902  0.54247  1.0000
  Fe  Fe206     1.0  0.65449  0.42353  0.54381  1.0000
  C   C1389     1.0  0.53786  0.35023  0.52438  1.0000
  C   C1390     1.0  0.98636  0.35034  0.69899  1.0000
  H   H2375     1.0  0.69328  0.33097  0.69269  1.0000
  H   H2376     1.0  0.66883  0.38173  0.59215  1.0000
  C   C1391     1.0  0.55224  0.57427  0.50978  1.0000
  H   H2377     1.0  0.50525  0.53310  0.50506  1.0000
  C   C1392     1.0  0.51440  0.57661  0.50235  1.0000
  H   H2378     1.0  0.74089  0.42839  0.55409  1.0000
  C   C1393     1.0  0.57523  0.40591  0.49856  1.0000
  H   H2379     1.0  0.51661  0.51052  0.51747  1.0000
  C   C1394     1.0  0.75713  0.36022  0.68213  1.0000
  H   H2380     1.0  0.71348  0.42620  0.57427  1.0000
  C   C1395     1.0  0.85292  0.35351  0.73510  1.0000
  C   C1396     1.0  0.69252  0.35004  0.69171  1.0000
  S   S405      1.0  0.65709  0.40368  0.56549  1.0000
  H   H2381     1.0  0.76706  0.33969  0.71216  1.0000
  S   S406      1.0  0.76954  0.34485  0.62644  1.0000
  H   H2382     1.0  0.70593  0.39758  0.55124  1.0000
  N   N99       1.0  0.53868  0.56158  0.50313  1.0000
  S   S407      1.0  0.62645  0.60303  0.49255  1.0000
  Fe  Fe207     1.0  0.76241  0.33825  0.60624  1.0000
  S   S408      1.0  0.56386  0.64248  0.50140  1.0000
  H   H2383     1.0  0.64295  0.56487  0.51869  1.0000
  C   C1397     1.0  0.76387  0.35667  0.66689  1.0000
  H   H2384     1.0  0.68198  0.55412  0.49265  1.0000
  H   H2385     1.0  0.74937  0.36501  0.66080  1.0000
  H   H2386     1.0  0.51599  0.59418  0.49622  1.0000
  H   H2387     1.0  0.67848  0.47290  0.55338  1.0000
  C   C1398     1.0  0.68397  0.45925  0.56215  1.0000
  H   H2388     1.0  0.86866  0.34019  0.73785  1.0000
  H   H2389     1.0  0.68748  0.35549  0.70202  1.0000
  H   H2390     1.0  0.58341  0.32866  0.70696  1.0000
  H   H2391     1.0  0.81564  0.33464  0.67401  1.0000
  S   S409      1.0  0.85869  0.32877  0.68507  1.0000
  H   H2392     1.0  0.75163  0.44765  0.57333  1.0000
  C   C1399     1.0  0.53774  0.53788  0.51186  1.0000
  C   C1400     1.0  0.69917  0.48624  0.57229  1.0000
  Fe  Fe208     1.0  0.67077  0.46355  0.52312  1.0000
  S   S410      1.0  0.58592  0.47023  0.51733  1.0000
  H   H2393     1.0  0.78509  0.38422  0.72803  1.0000
  C   C1401     1.0  0.52715  0.39132  0.50095  1.0000
  S   S411      1.0  0.65222  0.45791  0.50677  1.0000
  Fe  Fe209     1.0  0.62170  0.45356  0.52378  1.0000
  C   C1402     1.0  0.55178  0.63596  0.48824  1.0000
  H   H2394     1.0  0.71987  0.37100  0.70536  1.0000
  S   S412      1.0  0.67925  0.39722  0.49669  1.0000
  H   H2395     1.0  0.70629  0.33778  0.57123  1.0000
  H   H2396     1.0  0.67781  0.35868  0.68579  1.0000
  C   C1403     1.0  0.73815  0.44134  0.58167  1.0000
  H   H2397     1.0  0.75202  0.37948  0.68223  1.0000
  H   H2398     1.0  0.65276  0.65024  0.52785  1.0000
  C   C1404     1.0  0.99187  0.35046  0.68477  1.0000
  C   C1405     1.0  0.71940  0.49900  0.57256  1.0000
  H   H2399     1.0  0.97798  0.35102  0.67887  1.0000
  S   S413      1.0  0.51003  0.40453  0.53929  1.0000
  C   C1406     1.0  0.67921  0.56720  0.51885  1.0000
  C   C1407     1.0  0.56457  0.45218  0.52329  1.0000
  C   C1408     1.0  0.54370  0.45661  0.51742  1.0000
  C   C1409     1.0  0.52658  0.44226  0.52223  1.0000
  C   C1410     1.0  0.53042  0.42341  0.53291  1.0000
  C   C1411     1.0  0.55132  0.41896  0.53867  1.0000
  C   C1412     1.0  0.56826  0.43332  0.53392  1.0000
  H   H2400     1.0  0.54081  0.47104  0.50912  1.0000
  C   C1413     1.0  0.63189  0.35354  0.50712  1.0000
  H   H2401     1.0  0.55432  0.40447  0.54696  1.0000
  H   H2402     1.0  0.58395  0.43005  0.53875  1.0000
  C   C1414     1.0  0.66555  0.53049  0.52036  1.0000
  C   C1415     1.0  0.72838  0.37321  0.58099  1.0000
  C   C1416     1.0  0.72779  0.38208  0.56698  1.0000
  C   C1417     1.0  0.70607  0.39082  0.56203  1.0000
  C   C1418     1.0  0.68470  0.39110  0.57110  1.0000
  C   C1419     1.0  0.68528  0.38168  0.58507  1.0000
  C   C1420     1.0  0.70704  0.37268  0.59000  1.0000
  H   H2403     1.0  0.74424  0.38241  0.55993  1.0000
  H   H2404     1.0  0.54457  0.57480  0.52079  1.0000
  H   H2405     1.0  0.71314  0.64681  0.48963  1.0000
  S   S414      1.0  0.63941  0.46232  0.53980  1.0000
  H   H2406     1.0  0.75946  0.64028  0.51465  1.0000
  C   C1421     1.0  0.57897  0.56398  0.50959  1.0000
  S   S415      1.0  0.63338  0.41474  0.52949  1.0000
  H   H2407     1.0  0.74741  0.44705  0.53813  1.0000
  H   H2408     1.0  0.74568  0.42251  0.58483  1.0000
  H   H2409     1.0  0.68963  0.48347  0.58303  1.0000
  H   H2410     1.0  0.81489  0.38880  0.72473  1.0000
  C   C1422     1.0  0.66079  0.55517  0.51924  1.0000
  S   S416      1.0  0.61434  0.32616  0.49405  1.0000
  H   H2411     1.0  0.74018  0.47095  0.55565  1.0000
  C   C1423     1.0  0.63343  0.34477  0.49491  1.0000
  H   H2412     1.0  0.51199  0.38191  0.50437  1.0000
  C   C1424     1.0  0.86093  0.37713  0.73389  1.0000
  H   H2413     1.0  0.51043  0.44583  0.51778  1.0000
  H   H2414     1.0  0.55491  0.37966  0.52055  1.0000
  C   C1425     1.0  0.66204  0.45857  0.57348  1.0000
  C   C1426     1.0  0.73318  0.44358  0.54689  1.0000
  H   H2415     1.0  0.70082  0.44339  0.58697  1.0000
  H   H2416     1.0  0.71230  0.37698  0.68175  1.0000
  H   H2417     1.0  0.72005  0.63612  0.51090  1.0000
  C   C1427     1.0  0.64628  0.36926  0.50780  1.0000
  H   H2418     1.0  0.72626  0.50713  0.56202  1.0000
  H   H2419     1.0  0.73415  0.48752  0.57744  1.0000
  H   H2420     1.0  0.65142  0.52119  0.52061  1.0000
  H   H2421     1.0  0.70729  0.36597  0.60083  1.0000
  H   H2422     1.0  0.64535  0.37543  0.51735  1.0000
  C   C1428     1.0  0.55522  0.36495  0.51502  1.0000
  C   C1429     1.0  0.64353  0.53098  0.48861  1.0000
  S   S417      1.0  0.68680  0.42541  0.52796  1.0000
  C   C1430     1.0  0.75317  0.35567  0.71181  1.0000
  N   N100      1.0  0.70588  0.46351  0.56648  1.0000
  H   H2423     1.0  0.68745  0.44224  0.55828  1.0000
  H   H2424     1.0  0.50371  0.56947  0.49671  1.0000
  H   H2425     1.0  0.58218  0.54576  0.51515  1.0000
  H   H2426     1.0  0.87569  0.37846  0.72515  1.0000
  H   H2427     1.0  0.77381  0.35478  0.68660  1.0000
  H   H2428     1.0  0.58891  0.56480  0.49897  1.0000
  C   C1431     1.0  0.71575  0.35743  0.68374  1.0000
  H   H2429     1.0  0.66520  0.44367  0.58195  1.0000
  H   H2430     1.0  0.65585  0.47527  0.57764  1.0000
  H   H2431     1.0  0.64714  0.45569  0.56898  1.0000
  H   H2432     1.0  0.54148  0.34750  0.53514  1.0000
  H   H2433     1.0  0.71812  0.35179  0.67349  1.0000
  H   H2434     1.0  0.85126  0.35131  0.72453  1.0000
  H   H2435     1.0  0.73638  0.45057  0.59058  1.0000
  C   C1432     1.0  0.73216  0.35376  0.70502  1.0000
  H   H2436     1.0  0.68198  0.63951  0.53166  1.0000
  H   H2437     1.0  0.63418  0.52255  0.49838  1.0000
  H   H2438     1.0  0.67783  0.51621  0.49476  1.0000
  S   S418      1.0  0.95692  0.35112  0.70741  1.0000
  S   S419      1.0  0.69685  0.48770  0.52027  1.0000
  S   S420      1.0  0.75612  0.36430  0.58683  1.0000
  C   C1433     1.0  0.68883  0.51804  0.52069  1.0000
  H   H2439     1.0  0.72264  0.34063  0.71211  1.0000
  C   C1434     1.0  0.74746  0.65589  0.51004  1.0000
  H   H2440     1.0  0.54033  0.33261  0.52146  1.0000
  H   H2441     1.0  0.76108  0.37117  0.70670  1.0000
  H   H2442     1.0  0.71702  0.48022  0.54578  1.0000
  H   H2443     1.0  0.58143  0.40047  0.50873  1.0000
  Fe  Fe210     1.0  0.66485  0.41954  0.51335  1.0000
  H   H2444     1.0  0.77925  0.36522  0.66211  1.0000
  H   H2445     1.0  0.58662  0.57472  0.51494  1.0000
  C   C1435     1.0  0.72162  0.65229  0.51453  1.0000
  H   H2446     1.0  0.71884  0.34666  0.54668  1.0000
  H   H2447     1.0  0.57335  0.35396  0.51502  1.0000
  C   C1436     1.0  0.72416  0.46576  0.55371  1.0000
  H   H2448     1.0  0.55918  0.41983  0.49934  1.0000
  H   H2449     1.0  0.68081  0.65026  0.50643  1.0000
  H   H2450     1.0  0.61957  0.34819  0.51608  1.0000
  C   C1437     1.0  0.80129  0.38192  0.73282  1.0000
  C   C1438     1.0  0.70697  0.53014  0.52052  1.0000
  N   N101      1.0  0.73770  0.34804  0.69052  1.0000
  Fe  Fe211     1.0  0.60284  0.63801  0.49445  1.0000
  S   S421      1.0  0.67457  0.59798  0.51703  1.0000
  C   C1439     1.0  0.71379  0.44319  0.57730  1.0000
  Fe  Fe212     1.0  0.65144  0.61771  0.50142  1.0000
  S   S422      1.0  0.62628  0.65116  0.50525  1.0000
  H   H2451     1.0  0.68652  0.49928  0.56626  1.0000
  H   H2452     1.0  0.58775  0.37158  0.49298  1.0000
  C   C1440     1.0  0.80926  0.35572  0.73806  1.0000
  H   H2453     1.0  0.71231  0.51357  0.57863  1.0000
  C   C1441     1.0  0.66229  0.37625  0.49630  1.0000
  H   H2454     1.0  0.58953  0.41371  0.49153  1.0000
  H   H2455     1.0  0.84675  0.39254  0.73195  1.0000
  H   H2456     1.0  0.71638  0.56365  0.51959  1.0000
  H   H2457     1.0  0.53244  0.53923  0.52301  1.0000
  C   C1442     1.0  0.70213  0.55451  0.51981  1.0000
  H   H2458     1.0  0.74647  0.35824  0.72267  1.0000
  C   C1443     1.0  0.57115  0.38488  0.49286  1.0000
  H   H2459     1.0  0.51574  0.64987  0.49638  1.0000
  H   H2460     1.0  0.55576  0.52674  0.51145  1.0000
  H   H2461     1.0  0.50625  0.59093  0.52192  1.0000
  N   N102      1.0  0.55030  0.37403  0.50043  1.0000
  H   H2462     1.0  0.53195  0.51257  0.50000  1.0000
  Fe  Fe213     1.0  0.93742  0.32602  0.70194  1.0000
  H   H2463     1.0  0.55085  0.59292  0.50478  1.0000
  C   C1444     1.0  0.52210  0.52288  0.50814  1.0000
  H   H2464     1.0  0.51919  0.35927  0.52448  1.0000
  C   C1445     1.0  0.67002  0.65548  0.52744  1.0000
  H   H2465     1.0  0.74364  0.33717  0.55553  1.0000
  H   H2466     1.0  0.64348  0.54915  0.48996  1.0000
  H   H2467     1.0  0.71918  0.64754  0.52596  1.0000
  H   H2468     1.0  0.75270  0.65745  0.49871  1.0000
  H   H2469     1.0  0.67723  0.32897  0.58833  1.0000
  H   H2470     1.0  0.80746  0.32800  0.65163  1.0000
  C   C1446     1.0  0.72881  0.33109  0.55270  1.0000
  H   H2471     1.0  0.81227  0.34675  0.72891  1.0000
  C   C1447     1.0  0.83009  0.32816  0.66643  1.0000
  C   C1448     1.0  0.54881  0.35328  0.49413  1.0000
  H   H2472     1.0  0.56482  0.33936  0.49530  1.0000
  H   H2473     1.0  0.53341  0.34523  0.49961  1.0000
  C   C1449     1.0  0.55181  0.55908  0.48880  1.0000
  H   H2474     1.0  0.52078  0.42673  0.48903  1.0000
  H   H2475     1.0  0.56703  0.54405  0.48919  1.0000
  C   C1450     1.0  0.92109  0.50982  0.97785  1.0000
  H   H2476     1.0  0.98602  0.54033  0.87142  1.0000
  Fe  Fe214     1.0  0.98323  0.54572  0.94282  1.0000
  S   S423      1.0  0.94424  0.56017  0.94635  1.0000
  C   C1451     1.0  0.98011  0.36853  0.95785  1.0000
  S   S424      1.0  0.99288  0.58049  0.93416  1.0000
  S   S425      1.0  0.95053  0.59021  0.91499  1.0000
  H   H2477     1.0  0.86024  0.37172  0.96741  1.0000
  Fe  Fe215     1.0  0.95398  0.59496  0.93632  1.0000
  Fe  Fe216     1.0  0.94464  0.55385  0.92485  1.0000
  S   S426      1.0  0.91718  0.53483  0.92145  1.0000
  H   H2478     1.0  0.94092  0.34563  0.84181  1.0000
  S   S427      1.0  0.98293  0.53632  0.92222  1.0000
  Fe  Fe217     1.0  0.91700  0.39917  0.86897  1.0000
  S   S428      1.0  0.93202  0.37231  0.88598  1.0000
  S   S429      1.0  0.90303  0.39444  0.85010  1.0000
  Fe  Fe218     1.0  0.93353  0.43930  0.87764  1.0000
  S   S430      1.0  0.94923  0.41609  0.89521  1.0000
  S   S431      1.0  0.93925  0.47666  0.87204  1.0000
  Fe  Fe219     1.0  0.96354  0.39023  0.88076  1.0000
  H   H2479     1.0  0.78938  0.36384  0.76453  1.0000
  Fe  Fe220     1.0  0.91652  0.40051  0.89914  1.0000
  S   S432      1.0  0.89984  0.39667  0.92141  1.0000
  S   S433      1.0  0.95016  0.41454  0.86269  1.0000
  S   S434      1.0  0.89917  0.42614  0.88263  1.0000
  H   H2480     1.0  0.93915  0.33092  0.82303  1.0000
  S   S435      1.0  0.81747  0.34624  0.80622  1.0000
  H   H2481     1.0  0.82623  0.38155  0.75372  1.0000
  H   H2482     1.0  0.92396  0.48540  0.82596  1.0000
  H   H2483     1.0  0.94694  0.38537  0.94149  1.0000
  H   H2484     1.0  0.94436  0.44555  0.96337  1.0000
  H   H2485     1.0  0.93705  0.33697  0.85994  1.0000
  H   H2486     1.0  0.90388  0.47824  0.96999  1.0000
  H   H2487     1.0  0.90311  0.49310  0.85161  1.0000
  H   H2488     1.0  0.89979  0.46658  0.86274  1.0000
  C   C1452     1.0  0.88006  0.37969  0.84946  1.0000
  C   C1453     1.0  0.87530  0.37784  0.83650  1.0000
  C   C1454     1.0  0.85891  0.36430  0.83534  1.0000
  C   C1455     1.0  0.84677  0.35283  0.84719  1.0000
  C   C1456     1.0  0.85089  0.35537  0.86018  1.0000
  C   C1457     1.0  0.86754  0.36867  0.86134  1.0000
  H   H2489     1.0  0.88482  0.38639  0.82726  1.0000
  H   H2490     1.0  0.85577  0.36262  0.82529  1.0000
  H   H2491     1.0  0.92614  0.48416  0.94804  1.0000
  H   H2492     1.0  0.87101  0.36997  0.87138  1.0000
  C   C1458     1.0  0.92502  0.51776  0.90807  1.0000
  C   C1459     1.0  0.91464  0.49809  0.90914  1.0000
  C   C1460     1.0  0.91963  0.48486  0.89833  1.0000
  C   C1461     1.0  0.93444  0.49172  0.88620  1.0000
  C   C1462     1.0  0.94490  0.51132  0.88514  1.0000
  C   C1463     1.0  0.94054  0.52410  0.89614  1.0000
  H   H2493     1.0  0.90256  0.49317  0.91832  1.0000
  H   H2494     1.0  0.91143  0.46980  0.89922  1.0000
  H   H2495     1.0  0.95616  0.51673  0.87573  1.0000
  H   H2496     1.0  0.94840  0.53939  0.89520  1.0000
  H   H2497     1.0  0.90925  0.46631  0.98674  1.0000
  C   C1464     1.0  0.99451  0.60229  0.96924  1.0000
  H   H2498     1.0  0.85031  0.46583  0.85519  1.0000
  C   C1465     1.0  0.90688  0.36468  0.94440  1.0000
  C   C1466     1.0  0.90450  0.36805  0.93047  1.0000
  C   C1467     1.0  0.90598  0.34867  0.92404  1.0000
  H   H2499     1.0  0.90559  0.39216  0.98087  1.0000
  N   N103      1.0  0.83084  0.34934  0.74520  1.0000
  H   H2500     1.0  0.90552  0.37966  0.94942  1.0000
  H   H2501     1.0  0.90388  0.35121  0.91332  1.0000
  H   H2502     1.0  0.91560  0.43932  0.96781  1.0000
  C   C1468     1.0  0.90951  0.32595  0.93165  1.0000
  H   H2503     1.0  0.98742  0.46746  0.97512  1.0000
  C   C1469     1.0  0.99852  0.38066  0.91839  1.0000
  H   H2504     1.0  0.89273  0.49332  0.81194  1.0000
  H   H2505     1.0  0.96096  0.59889  0.98233  1.0000
  H   H2506     1.0  0.87642  0.50339  0.87107  1.0000
  H   H2507     1.0  0.96191  0.32979  0.91982  1.0000
  H   H2508     1.0  0.88466  0.50604  0.83268  1.0000
  H   H2509     1.0  0.99586  0.62193  0.90712  1.0000
  H   H2510     1.0  0.84147  0.34663  0.86940  1.0000
  H   H2511     1.0  0.84658  0.43159  0.84603  1.0000
  H   H2512     1.0  0.94661  0.42500  0.93923  1.0000
  C   C1470     1.0  0.72220  0.32775  0.76744  1.0000
  H   H2513     1.0  0.93264  0.52322  0.97574  1.0000
  H   H2514     1.0  0.97072  0.44380  0.97948  1.0000
  C   C1471     1.0  0.87530  0.49118  0.83352  1.0000
  S   S436      1.0  0.82697  0.33459  0.84619  1.0000
  H   H2515     1.0  0.91333  0.44103  0.84616  1.0000
  H   H2516     1.0  0.94292  0.45710  0.82674  1.0000
  C   C1472     1.0  0.87750  0.48642  0.81860  1.0000
  C   C1473     1.0  0.96274  0.41617  0.93307  1.0000
  H   H2517     1.0  0.99174  0.36458  0.96594  1.0000
  C   C1474     1.0  0.98992  0.52767  0.97536  1.0000
  H   H2518     1.0  0.84719  0.45679  0.83306  1.0000
  H   H2519     1.0  0.87370  0.44149  0.85816  1.0000
  C   C1475     1.0  0.80650  0.35922  0.76854  1.0000
  H   H2520     1.0  0.90514  0.44741  0.82973  1.0000
  C   C1476     1.0  0.91859  0.46988  0.97601  1.0000
  H   H2521     1.0  0.96733  0.55977  0.96804  1.0000
  H   H2522     1.0  0.95294  0.36065  0.91528  1.0000
  H   H2523     1.0  0.93337  0.64930  0.92108  1.0000
  H   H2524     1.0  0.93656  0.47156  0.84142  1.0000
  H   H2525     1.0  0.85873  0.48230  0.87145  1.0000
  S   S437      1.0  0.87682  0.33182  0.78134  1.0000
  H   H2526     1.0  0.87881  0.46795  0.81751  1.0000
  C   C1477     1.0  0.97139  0.54682  0.97685  1.0000
  C   C1478     1.0  0.93628  0.49748  0.94890  1.0000
  N   N104      1.0  0.93554  0.48618  0.97517  1.0000
  C   C1479     1.0  0.86674  0.45565  0.85003  1.0000
  C   C1480     1.0  0.82793  0.36238  0.75717  1.0000
  H   H2527     1.0  0.99009  0.56974  0.87027  1.0000
  C   C1481     1.0  0.85816  0.44379  0.83998  1.0000
  H   H2528     1.0  0.86725  0.33013  0.97438  1.0000
  H   H2529     1.0  0.86154  0.49643  0.81415  1.0000
  C   C1482     1.0  0.88817  0.38994  0.98713  1.0000
  H   H2530     1.0  0.95083  0.39238  0.92367  1.0000
  N   N105      1.0  0.98273  0.37296  0.93145  1.0000
  H   H2531     1.0  0.97782  0.41692  0.93807  1.0000
  H   H2532     1.0  0.90841  0.34295  0.82591  1.0000
  H   H2533     1.0  0.96179  0.62794  0.97391  1.0000
  H   H2534     1.0  0.70420  0.33319  0.76525  1.0000
  H   H2535     1.0  0.79383  0.34939  0.74493  1.0000
  H   H2536     1.0  0.98255  0.34632  0.90919  1.0000
  H   H2537     1.0  0.90763  0.51638  0.97081  1.0000
  H   H2538     1.0  0.99083  0.64861  0.97018  1.0000
  H   H2539     1.0  0.87433  0.40219  0.98175  1.0000
  H   H2540     1.0  0.88978  0.35990  0.97797  1.0000
  C   C1483     1.0  0.99557  0.37061  0.94355  1.0000
  C   C1484     1.0  0.95136  0.47742  0.98612  1.0000
  C   C1485     1.0  0.92921  0.44555  0.97182  1.0000
  C   C1486     1.0  0.90751  0.45596  0.83814  1.0000
  H   H2541     1.0  0.85797  0.50795  0.85803  1.0000
  H   H2542     1.0  0.96761  0.38514  0.95943  1.0000
  C   C1487     1.0  0.94286  0.65465  0.93984  1.0000
  H   H2543     1.0  0.83411  0.35859  0.97193  1.0000
  H   H2544     1.0  0.99359  0.64531  0.95280  1.0000
  Fe  Fe221     1.0  0.98884  0.57280  0.91386  1.0000
  H   H2545     1.0  0.94898  0.49961  0.93919  1.0000
  H   H2546     1.0  0.92143  0.33399  0.80256  1.0000
  S   S438      1.0  0.94346  0.62551  0.94827  1.0000
  C   C1488     1.0  0.92874  0.46854  0.83276  1.0000
  H   H2547     1.0  0.91381  0.33946  0.96235  1.0000
  C   C1489     1.0  0.96805  0.34677  0.91810  1.0000
  H   H2548     1.0  0.96339  0.47413  0.95881  1.0000
  H   H2549     1.0  0.99142  0.42205  0.87051  1.0000
  H   H2550     1.0  0.99626  0.50510  0.85775  1.0000
  H   H2551     1.0  0.87279  0.43295  0.83394  1.0000
  H   H2552     1.0  0.93460  0.43272  0.98085  1.0000
  C   C1490     1.0  0.97650  0.34953  0.93132  1.0000
  H   H2553     1.0  0.84412  0.35707  0.76225  1.0000
  H   H2554     1.0  0.96115  0.50347  0.96065  1.0000
  C   C1491     1.0  0.91144  0.34198  0.95178  1.0000
  C   C1492     1.0  0.89053  0.48079  0.85556  1.0000
  H   H2555     1.0  0.96486  0.42639  0.92250  1.0000
  H   H2556     1.0  0.97023  0.35399  0.95953  1.0000
  H   H2557     1.0  0.80860  0.34128  0.77446  1.0000
  H   H2558     1.0  0.80541  0.37110  0.77608  1.0000
  C   C1493     1.0  0.86941  0.49435  0.86438  1.0000
  C   C1494     1.0  0.97410  0.45929  0.98287  1.0000
  C   C1495     1.0  0.95026  0.48997  0.96112  1.0000
  H   H2559     1.0  0.83225  0.38987  0.96896  1.0000
  C   C1496     1.0  0.75139  0.32620  0.78230  1.0000
  N   N106      1.0  0.88487  0.47098  0.84395  1.0000
  H   H2560     1.0  0.85627  0.49808  0.83707  1.0000
  C   C1497     1.0  0.99629  0.55124  0.87483  1.0000
  H   H2561     1.0  0.98920  0.38370  0.90930  1.0000
  C   C1498     1.0  0.97261  0.61211  0.97914  1.0000
  H   H2562     1.0  0.99196  0.55052  0.88615  1.0000
  C   C1499     1.0  0.99610  0.51190  0.98704  1.0000
  H   H2563     1.0  0.92422  0.51463  0.94939  1.0000
  H   H2564     1.0  0.96219  0.34567  0.93999  1.0000
  H   H2565     1.0  0.99176  0.33492  0.93311  1.0000
  S   S439      1.0  0.75792  0.33329  0.79736  1.0000
  C   C1500     1.0  0.84235  0.37290  0.97355  1.0000
  C   C1501     1.0  0.93923  0.33030  0.85003  1.0000
  H   H2566     1.0  0.79651  0.39254  0.74128  1.0000
  C   C1502     1.0  0.96011  0.39092  0.93258  1.0000
  H   H2567     1.0  0.90537  0.33492  0.75460  1.0000
  C   C1503     1.0  0.72798  0.33244  0.77953  1.0000
  H   H2568     1.0  0.98734  0.60012  0.96010  1.0000
  H   H2569     1.0  0.90171  0.33455  0.85034  1.0000
  H   H2570     1.0  0.86809  0.37798  0.74328  1.0000
  H   H2571     1.0  0.71433  0.34130  0.78667  1.0000
  C   C1504     1.0  0.92125  0.32630  0.82475  1.0000
  C   C1505     1.0  0.88703  0.86346  0.99157  1.0000
  Fe  Fe222     1.0  0.92899  0.79749  0.22201  1.0000
  H   H2572     1.0  0.65307  0.66890  0.17643  1.0000
  S   S440      1.0  0.92523  0.79041  0.20128  1.0000
  H   H2573     1.0  0.76080  0.75049  0.17119  1.0000
  H   H2574     1.0  0.85985  0.75691  0.18900  1.0000
  H   H2575     1.0  0.79273  0.71326  0.11744  1.0000
  H   H2576     1.0  0.54208  0.85684  0.15554  1.0000
  H   H2577     1.0  0.84341  0.71086  0.21676  1.0000
  C   C1506     1.0  0.82980  0.76077  0.21210  1.0000
  H   H2578     1.0  0.84519  0.67996  0.15877  1.0000
  H   H2579     1.0  0.97992  0.79631  0.99267  1.0000
  C   C1507     1.0  0.85637  0.73964  0.19480  1.0000
  C   C1508     1.0  0.85498  0.67008  0.13801  1.0000
  Fe  Fe223     1.0  0.63555  0.80317  0.21808  1.0000
  S   S441      1.0  0.61042  0.82549  0.20407  1.0000
  H   H2580     1.0  0.91930  0.75061  0.23343  1.0000
  Fe  Fe224     1.0  0.65235  0.76602  0.19964  1.0000
  S   S442      1.0  0.62930  0.78535  0.18416  1.0000
  S   S443      1.0  0.67324  0.73106  0.19538  1.0000
  Fe  Fe225     1.0  0.64126  0.81697  0.18737  1.0000
  S   S444      1.0  0.64974  0.84140  0.16777  1.0000
  Fe  Fe226     1.0  0.60089  0.79158  0.20216  1.0000
  S   S445      1.0  0.56607  0.77984  0.20330  1.0000
  S   S446      1.0  0.66700  0.79705  0.20147  1.0000
  S   S447      1.0  0.62348  0.76994  0.21755  1.0000
  Fe  Fe227     1.0  0.82021  0.80465  0.16360  1.0000
  S   S448      1.0  0.84432  0.77378  0.15539  1.0000
  S   S449      1.0  0.82374  0.81711  0.18294  1.0000
  Fe  Fe228     1.0  0.78717  0.81107  0.14264  1.0000
  S   S450      1.0  0.80892  0.78104  0.13243  1.0000
  S   S451      1.0  0.75393  0.83038  0.13416  1.0000
  Fe  Fe229     1.0  0.81105  0.76218  0.15391  1.0000
  S   S452      1.0  0.80653  0.72496  0.16229  1.0000
  Fe  Fe230     1.0  0.84035  0.79526  0.13451  1.0000
  S   S453      1.0  0.87274  0.79266  0.11807  1.0000
  S   S454      1.0  0.78703  0.79112  0.16398  1.0000
  S   S455      1.0  0.81859  0.82726  0.14285  1.0000
  Fe  Fe231     1.0  0.90570  0.86981  0.04843  1.0000
  S   S456      1.0  0.94106  0.84666  0.05090  1.0000
  S   S457      1.0  0.87200  0.86793  0.06360  1.0000
  Fe  Fe232     1.0  0.92478  0.89905  0.02190  1.0000
  S   S458      1.0  0.96128  0.87796  0.02214  1.0000
  S   S459      1.0  0.92204  0.92636  0.00283  1.0000
  Fe  Fe233     1.0  0.94431  0.84647  0.02820  1.0000
  S   S460      1.0  0.96471  0.81649  0.01747  1.0000
  Fe  Fe234     1.0  0.95527  0.88008  0.04459  1.0000
  H   H2581     1.0  0.94631  0.68883  0.22833  1.0000
  S   S461      1.0  0.90788  0.86722  0.02601  1.0000
  S   S462      1.0  0.91970  0.90354  0.04411  1.0000
  C   C1509     1.0  0.79823  0.70970  0.15111  1.0000
  H   H2582     1.0  0.78477  0.77495  0.20460  1.0000
  C   C1510     1.0  0.64639  0.68456  0.18101  1.0000
  H   H2583     1.0  0.76403  0.77847  0.12508  1.0000
  H   H2584     1.0  0.84993  0.72637  0.17678  1.0000
  H   H2585     1.0  0.77598  0.76150  0.19241  1.0000
  H   H2586     1.0  0.93642  0.88030  0.99479  1.0000
  H   H2587     1.0  0.91471  0.81645  0.01922  1.0000
  H   H2588     1.0  0.83606  0.67595  0.13681  1.0000
  H   H2589     1.0  0.84854  0.71605  0.14017  1.0000
  C   C1511     1.0  0.61346  0.71384  0.18892  1.0000
  C   C1512     1.0  0.98412  0.70489  0.20964  1.0000
  H   H2590     1.0  0.76305  0.86070  0.23338  1.0000
  C   C1513     1.0  0.87132  0.81266  0.10257  1.0000
  C   C1514     1.0  0.88970  0.80971  0.09144  1.0000
  C   C1515     1.0  0.88964  0.82606  0.07920  1.0000
  C   C1516     1.0  0.87127  0.84557  0.07808  1.0000
  C   C1517     1.0  0.85259  0.84817  0.08909  1.0000
  C   C1518     1.0  0.85260  0.83179  0.10130  1.0000
  H   H2591     1.0  0.90411  0.79482  0.09232  1.0000
  H   H2592     1.0  0.90393  0.82371  0.07072  1.0000
  H   H2593     1.0  0.83825  0.86317  0.08827  1.0000
  H   H2594     1.0  0.83828  0.83416  0.10979  1.0000
  C   C1519     1.0  0.83612  0.85255  0.23396  1.0000
  H   H2595     1.0  0.90604  0.67637  0.14558  1.0000
  H   H2596     1.0  0.80073  0.73667  0.13339  1.0000
  H   H2597     1.0  0.61723  0.79473  0.15357  1.0000
  H   H2598     1.0  0.51485  0.83284  0.23030  1.0000
  C   C1520     1.0  0.67916  0.83779  0.15908  1.0000
  C   C1521     1.0  0.69858  0.82644  0.16576  1.0000
  C   C1522     1.0  0.72183  0.82446  0.15837  1.0000
  C   C1523     1.0  0.72556  0.83334  0.14425  1.0000
  C   C1524     1.0  0.70606  0.84448  0.13767  1.0000
  C   C1525     1.0  0.68304  0.84686  0.14505  1.0000
  H   H2599     1.0  0.69578  0.81980  0.17665  1.0000
  H   H2600     1.0  0.73680  0.81623  0.16361  1.0000
  H   H2601     1.0  0.70880  0.85150  0.12680  1.0000
  H   H2602     1.0  0.66821  0.85584  0.13984  1.0000
  C   C1526     1.0  0.65373  0.71704  0.19008  1.0000
  C   C1527     1.0  0.62930  0.72573  0.19226  1.0000
  C   C1528     1.0  0.85494  0.66477  0.15372  1.0000
  H   H2603     1.0  0.90950  0.84054  0.11082  1.0000
  C   C1529     1.0  0.66230  0.69656  0.18428  1.0000
  H   H2604     1.0  0.62232  0.74101  0.19715  1.0000
  C   C1530     1.0  0.74474  0.74270  0.17490  1.0000
  H   H2605     1.0  0.68113  0.68967  0.18257  1.0000
  H   H2606     1.0  0.96802  0.85618  0.09144  1.0000
  H   H2607     1.0  0.76335  0.89162  0.23168  1.0000
  H   H2608     1.0  0.84104  0.84350  0.22480  1.0000
  C   C1531     1.0  0.96339  0.66016  0.21755  1.0000
  C   C1532     1.0  0.61934  0.83841  0.13752  1.0000
  H   H2609     1.0  0.79861  0.82496  0.22377  1.0000
  H   H2610     1.0  0.99850  0.71536  0.20751  1.0000
  C   C1533     1.0  0.79365  0.68707  0.15599  1.0000
  H   H2611     1.0  0.84053  0.67068  0.11402  1.0000
  H   H2612     1.0  0.54522  0.85007  0.13827  1.0000
  H   H2613     1.0  0.89246  0.80488  0.00359  1.0000
  C   C1534     1.0  0.85237  0.81116  0.18742  1.0000
  C   C1535     1.0  0.85530  0.81617  0.20005  1.0000
  C   C1536     1.0  0.87762  0.81002  0.20442  1.0000
  C   C1537     1.0  0.89712  0.79891  0.19608  1.0000
  C   C1538     1.0  0.89423  0.79424  0.18335  1.0000
  C   C1539     1.0  0.87193  0.80044  0.17899  1.0000
  H   H2614     1.0  0.84018  0.82469  0.20642  1.0000
  H   H2615     1.0  0.87981  0.81389  0.21418  1.0000
  H   H2616     1.0  0.90933  0.78584  0.17682  1.0000
  H   H2617     1.0  0.86993  0.79691  0.16913  1.0000
  H   H2618     1.0  0.81259  0.76244  0.21915  1.0000
  H   H2619     1.0  0.81834  0.76833  0.18651  1.0000
  H   H2620     1.0  0.74073  0.74261  0.18621  1.0000
  H   H2621     1.0  0.82988  0.77840  0.20578  1.0000
  H   H2622     1.0  0.91366  0.87626  0.07570  1.0000
  C   C1540     1.0  0.64003  0.69978  0.22894  1.0000
  H   H2623     1.0  0.78258  0.74414  0.20842  1.0000
  C   C1541     1.0  0.79721  0.71932  0.13729  1.0000
  C   C1542     1.0  0.90436  0.72474  0.22779  1.0000
  C   C1543     1.0  0.85434  0.68064  0.10831  1.0000
  C   C1544     1.0  0.74579  0.76657  0.14542  1.0000
  H   H2624     1.0  0.51843  0.72709  0.17479  1.0000
  H   H2625     1.0  0.76248  0.75510  0.14822  1.0000
  C   C1545     1.0  0.50929  0.79589  0.18339  1.0000
  H   H2626     1.0  0.74580  0.78376  0.14833  1.0000
  H   H2627     1.0  0.94460  0.86548  0.11262  1.0000
  S   S463      1.0  0.95776  0.77188  0.23162  1.0000
  H   H2628     1.0  0.86341  0.70398  0.18979  1.0000
  N   N107      1.0  0.72439  0.75677  0.15316  1.0000
  C   C1546     1.0  0.72350  0.75753  0.16825  1.0000
  C   C1547     1.0  0.70259  0.77231  0.14803  1.0000
  C   C1548     1.0  0.72726  0.73217  0.15020  1.0000
  C   C1549     1.0  0.74840  0.77020  0.12952  1.0000
  C   C1550     1.0  0.67885  0.77271  0.15788  1.0000
  C   C1551     1.0  0.70895  0.71745  0.15830  1.0000
  H   H2629     1.0  0.70753  0.75186  0.17464  1.0000
  H   H2630     1.0  0.72191  0.77593  0.16989  1.0000
  H   H2631     1.0  0.70484  0.79098  0.14549  1.0000
  H   H2632     1.0  0.69994  0.76767  0.13823  1.0000
  H   H2633     1.0  0.72636  0.73248  0.13916  1.0000
  H   H2634     1.0  0.74531  0.72181  0.15137  1.0000
  H   H2635     1.0  0.75162  0.75337  0.12555  1.0000
  H   H2636     1.0  0.73306  0.78238  0.12551  1.0000
  H   H2637     1.0  0.74841  0.72420  0.17324  1.0000
  H   H2638     1.0  0.67491  0.75503  0.16205  1.0000
  H   H2639     1.0  0.66422  0.78269  0.15224  1.0000
  H   H2640     1.0  0.67850  0.78212  0.16653  1.0000
  H   H2641     1.0  0.69285  0.72104  0.15329  1.0000
  H   H2642     1.0  0.70389  0.71984  0.16919  1.0000
  H   H2643     1.0  0.71701  0.69855  0.15871  1.0000
  C   C1552     1.0  0.78787  0.75841  0.20029  1.0000
  C   C1553     1.0  0.51836  0.83267  0.18592  1.0000
  C   C1554     1.0  0.67964  0.82356  0.23190  1.0000
  C   C1555     1.0  0.81382  0.75218  0.19334  1.0000
  C   C1556     1.0  0.79264  0.70603  0.12824  1.0000
  N   N108      1.0  0.83176  0.74253  0.20302  1.0000
  H   H2644     1.0  0.81406  0.74016  0.18613  1.0000
  H   H2645     1.0  0.87009  0.73330  0.20168  1.0000
  H   H2646     1.0  0.90510  0.73305  0.21712  1.0000
  C   C1557     1.0  0.96383  0.67684  0.22749  1.0000
  C   C1558     1.0  0.70032  0.82870  0.23491  1.0000
  H   H2647     1.0  0.71444  0.83257  0.22665  1.0000
  C   C1559     1.0  0.50528  0.68868  0.20013  1.0000
  C   C1560     1.0  0.65290  0.66234  0.21930  1.0000
  C   C1561     1.0  0.78964  0.68286  0.13292  1.0000
  H   H2648     1.0  0.92548  0.91292  0.09123  1.0000
  C   C1562     1.0  0.85880  0.69826  0.11665  1.0000
  C   C1563     1.0  0.82740  0.71988  0.21209  1.0000
  H   H2649     1.0  0.81329  0.72357  0.22098  1.0000
  C   C1564     1.0  0.86229  0.72233  0.18442  1.0000
  H   H2650     1.0  0.58201  0.67715  0.22662  1.0000
  C   C1565     1.0  0.90954  0.66572  0.13724  1.0000
  H   H2651     1.0  0.79418  0.67958  0.16670  1.0000
  H   H2652     1.0  0.90007  0.72091  0.12710  1.0000
  H   H2653     1.0  0.82379  0.70368  0.19404  1.0000
  H   H2654     1.0  0.89145  0.91213  0.08338  1.0000
  H   H2655     1.0  0.97687  0.96472  0.00647  1.0000
  C   C1566     1.0  0.81961  0.70181  0.20538  1.0000
  H   H2656     1.0  0.70159  0.74782  0.23221  1.0000
  C   C1567     1.0  0.62194  0.69291  0.18363  1.0000
  C   C1568     1.0  0.96264  0.90122  0.09116  1.0000
  C   C1569     1.0  0.89462  0.67618  0.12558  1.0000
  H   H2657     1.0  0.59931  0.79055  0.14208  1.0000
  H   H2658     1.0  0.59456  0.72036  0.19102  1.0000
  N   N109      1.0  0.64067  0.67364  0.23171  1.0000
  H   H2659     1.0  0.95500  0.85979  0.07629  1.0000
  H   H2660     1.0  0.63832  0.70685  0.21802  1.0000
  H   H2661     1.0  0.54883  0.83003  0.19592  1.0000
  C   C1570     1.0  0.54312  0.79600  0.19431  1.0000
  H   H2662     1.0  0.93125  0.82821  0.08849  1.0000
  H   H2663     1.0  0.60823  0.82505  0.16585  1.0000
  H   H2664     1.0  0.99528  0.84323  0.03834  1.0000
  H   H2665     1.0  0.58665  0.78045  0.17386  1.0000
  C   C1571     1.0  0.88088  0.72751  0.13003  1.0000
  H   H2666     1.0  0.99200  0.71986  0.23110  1.0000
  S   S464      1.0  0.98348  0.88668  0.05519  1.0000
  H   H2667     1.0  0.94598  0.71282  0.20775  1.0000
  C   C1572     1.0  0.97388  0.96738  0.03273  1.0000
  C   C1573     1.0  0.92410  0.80967  0.01000  1.0000
  H   H2668     1.0  0.63199  0.82150  0.13758  1.0000
  H   H2669     1.0  0.87382  0.70167  0.14759  1.0000
  C   C1574     1.0  0.84844  0.87402  0.23023  1.0000
  C   C1575     1.0  0.52879  0.78377  0.18978  1.0000
  C   C1576     1.0  0.95123  0.85622  0.08775  1.0000
  H   H2670     1.0  0.94062  0.90195  0.07597  1.0000
  C   C1577     1.0  0.53802  0.82051  0.19226  1.0000
  C   C1578     1.0  0.50991  0.71941  0.16825  1.0000
  C   C1579     1.0  0.58905  0.77652  0.16327  1.0000
  C   C1580     1.0  0.86749  0.70776  0.13752  1.0000
  H   H2671     1.0  0.95619  0.73628  0.21293  1.0000
  H   H2672     1.0  0.89498  0.85554  0.00099  1.0000
  C   C1581     1.0  0.91154  0.80307  0.00117  1.0000
  H   H2673     1.0  0.60209  0.75980  0.16294  1.0000
  H   H2674     1.0  0.52346  0.71177  0.16015  1.0000
  H   H2675     1.0  0.88017  0.72353  0.17848  1.0000
  H   H2676     1.0  0.65962  0.72747  0.22811  1.0000
  H   H2677     1.0  0.84747  0.69051  0.09880  1.0000
  H   H2678     1.0  0.67787  0.82351  0.22136  1.0000
  H   H2679     1.0  0.76601  0.87734  0.21693  1.0000
  C   C1582     1.0  0.84919  0.75660  0.22131  1.0000
  C   C1583     1.0  0.59848  0.79593  0.15227  1.0000
  N   N110      1.0  0.58460  0.82065  0.15261  1.0000
  H   H2680     1.0  0.62397  0.70925  0.23490  1.0000
  H   H2681     1.0  0.62377  0.84930  0.12738  1.0000
  C   C1584     1.0  0.58900  0.82868  0.16516  1.0000
  C   C1585     1.0  0.94735  0.83078  0.09180  1.0000
  H   H2682     1.0  0.53665  0.70620  0.19351  1.0000
  H   H2683     1.0  0.52492  0.70463  0.21108  1.0000
  H   H2684     1.0  0.57211  0.77321  0.16129  1.0000
  H   H2685     1.0  0.93337  0.85161  0.99389  1.0000
  H   H2686     1.0  0.96337  0.89647  0.10235  1.0000
  H   H2687     1.0  0.67805  0.77220  0.23061  1.0000
  H   H2688     1.0  0.89788  0.89647  0.99045  1.0000
  H   H2689     1.0  0.82865  0.68391  0.20941  1.0000
  H   H2690     1.0  0.91035  0.99105  0.02914  1.0000
  H   H2691     1.0  0.87035  0.70936  0.10941  1.0000
  H   H2692     1.0  0.87306  0.73752  0.12087  1.0000
  H   H2693     1.0  0.80584  0.86187  0.21656  1.0000
  C   C1586     1.0  0.94877  0.80729  0.00694  1.0000
  C   C1587     1.0  0.91048  0.85485  0.11622  1.0000
  H   H2694     1.0  0.54246  0.68658  0.17629  1.0000
  H   H2695     1.0  0.59096  0.82826  0.13034  1.0000
  H   H2696     1.0  0.64456  0.67090  0.21005  1.0000
  H   H2697     1.0  0.62227  0.84780  0.14545  1.0000
  C   C1588     1.0  0.97902  0.70777  0.23401  1.0000
  C   C1589     1.0  0.88861  0.89548  0.09016  1.0000
  S   S465      1.0  0.60171  0.67657  0.18142  1.0000
  H   H2698     1.0  0.85192  0.73858  0.22718  1.0000
  H   H2699     1.0  0.96445  0.91990  0.08812  1.0000
  H   H2700     1.0  0.52333  0.84000  0.15161  1.0000
  H   H2701     1.0  0.87930  0.74035  0.13708  1.0000
  H   H2702     1.0  0.55663  0.80816  0.14638  1.0000
  C   C1590     1.0  0.59326  0.83553  0.13938  1.0000
  H   H2703     1.0  0.97430  0.85190  0.99215  1.0000
  S   S466      1.0  0.88981  0.68966  0.21980  1.0000
  C   C1591     1.0  0.66119  0.70844  0.23216  1.0000
  H   H2704     1.0  0.55132  0.81224  0.16389  1.0000
  C   C1592     1.0  0.55871  0.81994  0.15335  1.0000
  C   C1593     1.0  0.91632  0.96226  0.01780  1.0000
  H   H2705     1.0  0.91223  0.94971  0.02684  1.0000
  C   C1594     1.0  0.90955  0.87530  0.08712  1.0000
  C   C1595     1.0  0.99834  0.97477  0.02982  1.0000
  H   H2706     1.0  0.58267  0.85354  0.13820  1.0000
  H   H2707     1.0  0.58144  0.81814  0.17473  1.0000
  C   C1596     1.0  0.92182  0.95537  0.00479  1.0000
  C   C1597     1.0  0.78940  0.67365  0.14690  1.0000
  H   H2708     1.0  0.87220  0.89146  0.08784  1.0000
  C   C1598     1.0  0.80669  0.81712  0.23318  1.0000
  H   H2709     1.0  0.53259  0.66400  0.17111  1.0000
  H   H2710     1.0  0.51803  0.80698  0.22304  1.0000
  C   C1599     1.0  0.92670  0.97195  0.99310  1.0000
  C   C1600     1.0  0.57953  0.85459  0.16684  1.0000
  H   H2711     1.0  0.59186  0.86048  0.17208  1.0000
  H   H2712     1.0  0.86777  0.86783  0.22722  1.0000
  C   C1601     1.0  0.54180  0.84326  0.14945  1.0000
  H   H2713     1.0  0.56180  0.85673  0.17330  1.0000
  H   H2714     1.0  0.99695  0.96047  0.99107  1.0000
  H   H2715     1.0  0.57876  0.86685  0.15706  1.0000
  C   C1602     1.0  0.89641  0.70359  0.23208  1.0000
  H   H2716     1.0  0.89231  0.86481  0.11904  1.0000
  C   C1603     1.0  0.77125  0.87531  0.22728  1.0000
  C   C1604     1.0  0.96083  0.79828  0.99504  1.0000
  H   H2717     1.0  0.80355  0.88807  0.22264  1.0000
  H   H2718     1.0  0.88526  0.89798  0.10109  1.0000
  H   H2719     1.0  0.96127  0.71916  0.23386  1.0000
  H   H2720     1.0  0.94717  0.82462  0.10300  1.0000
  H   H2721     1.0  0.91965  0.88884  0.11212  1.0000
  H   H2722     1.0  0.53281  0.76480  0.19123  1.0000
  H   H2723     1.0  0.97483  0.95073  0.02896  1.0000
  H   H2724     1.0  0.86619  0.76045  0.21517  1.0000
  C   C1605     1.0  0.50370  0.82036  0.18168  1.0000
  H   H2725     1.0  0.96248  0.81924  0.08647  1.0000
  C   C1606     1.0  0.51971  0.70737  0.20068  1.0000
  N   N111      1.0  0.86932  0.68786  0.12970  1.0000
  H   H2726     1.0  0.67855  0.69973  0.22728  1.0000
  H   H2727     1.0  0.98720  0.90794  0.02658  1.0000
  H   H2728     1.0  0.84148  0.71016  0.11899  1.0000
  C   C1607     1.0  0.96102  0.72202  0.20660  1.0000
  H   H2729     1.0  0.91645  0.84622  0.12619  1.0000
  N   N112      1.0  0.93155  0.87498  0.09302  1.0000
  H   H2730     1.0  0.96792  0.96449  0.04404  1.0000
  C   C1608     1.0  0.91250  0.73473  0.23710  1.0000
  S   S467      1.0  0.94047  0.82846  0.22678  1.0000
  C   C1609     1.0  0.93908  0.89831  0.08745  1.0000
  H   H2731     1.0  0.60128  0.69712  0.21842  1.0000
  H   H2732     1.0  0.80033  0.70195  0.20852  1.0000
  N   N113      1.0  0.50693  0.68136  0.18632  1.0000
  C   C1610     1.0  0.79852  0.87052  0.22582  1.0000
  H   H2733     1.0  0.51418  0.85163  0.18456  1.0000
  H   H2734     1.0  0.50904  0.72532  0.19867  1.0000
  H   H2735     1.0  0.97818  0.89104  0.08529  1.0000
  H   H2736     1.0  0.90270  0.85889  0.09078  1.0000
  C   C1611     1.0  0.92743  0.87166  0.10858  1.0000
  N   N114      1.0  0.98355  0.69073  0.22393  1.0000
  H   H2737     1.0  0.87288  0.65933  0.15656  1.0000
  H   H2738     1.0  0.96364  0.73081  0.19572  1.0000
  H   H2739     1.0  0.90456  0.68795  0.11769  1.0000
  C   C1612     1.0  0.98983  0.97283  0.99857  1.0000
  H   H2740     1.0  0.96217  0.66938  0.20690  1.0000
  H   H2741     1.0  0.82593  0.81052  0.23043  1.0000
  H   H2742     1.0  0.55163  0.66332  0.19807  1.0000
  C   C1613     1.0  0.50523  0.82295  0.22555  1.0000
  H   H2743     1.0  0.86507  0.72894  0.99575  1.0000
  H   H2744     1.0  0.98047  0.98908  0.99283  1.0000
  H   H2745     1.0  0.86803  0.87030  0.99509  1.0000
  H   H2746     1.0  0.84392  0.76897  0.22887  1.0000
  C   C1614     1.0  0.91514  0.98573  0.01908  1.0000
  H   H2747     1.0  0.95955  0.98071  0.02857  1.0000
  H   H2748     1.0  0.84214  0.88648  0.22132  1.0000
  C   C1615     1.0  0.60083  0.67847  0.22271  1.0000
  H   H2749     1.0  0.92859  0.66522  0.13300  1.0000
  S   S468      1.0  0.78860  0.66515  0.12095  1.0000
  H   H2750     1.0  0.50067  0.83400  0.21586  1.0000
  H   H2751     1.0  0.98846  0.69345  0.20159  1.0000
  C   C1616     1.0  0.67950  0.66262  0.21488  1.0000
  H   H2752     1.0  0.87068  0.66831  0.10501  1.0000
  C   C1617     1.0  0.92355  0.79449  0.98915  1.0000
  H   H2753     1.0  0.60670  0.66765  0.21434  1.0000
  H   H2754     1.0  0.89514  0.66123  0.12021  1.0000
  H   H2755     1.0  0.51002  0.67323  0.20811  1.0000
  H   H2756     1.0  0.83939  0.74608  0.98925  1.0000
  C   C1618     1.0  0.61552  0.66935  0.23463  1.0000
  C   C1619     1.0  0.53222  0.67234  0.18026  1.0000
  H   H2757     1.0  0.68253  0.68046  0.21017  1.0000
  H   H2758     1.0  0.50663  0.76125  0.21621  1.0000
  H   H2759     1.0  0.50672  0.77156  0.23190  1.0000
  C   C1620     1.0  0.69128  0.76262  0.23736  1.0000
  H   H2760     1.0  0.70250  0.77525  0.23777  1.0000
  H   H2761     1.0  0.99958  0.81627  0.04985  1.0000
  H   H2762     1.0  0.96435  0.66580  0.23780  1.0000
  Fe  Fe235     1.0  0.96751  0.80238  0.23797  1.0000
  H   H2763     1.0  0.79847  0.80165  0.23798  1.0000
  C   C1621     1.0  0.65264  0.66155  0.24396  1.0000
  H   H2764     1.0  0.54856  0.93698  0.35715  1.0000
  S   S469      1.0  0.92455  0.73569  0.26206  1.0000
  H   H2765     1.0  0.50680  0.69513  0.46878  1.0000
  S   S470      1.0  0.58574  0.93248  0.40139  1.0000
  Fe  Fe236     1.0  0.62523  0.92585  0.36633  1.0000
  S   S471      1.0  0.59242  0.91002  0.37297  1.0000
  S   S472      1.0  0.64824  0.92318  0.34551  1.0000
  Fe  Fe237     1.0  0.57564  0.94415  0.38032  1.0000
  H   H2766     1.0  0.72006  0.72346  0.24768  1.0000
  Fe  Fe238     1.0  0.60517  0.89972  0.39344  1.0000
  S   S473      1.0  0.59972  0.86544  0.40663  1.0000
  S   S474      1.0  0.63930  0.91296  0.38646  1.0000
  C   C1622     1.0  0.85443  0.82845  0.26847  1.0000
  Fe  Fe239     1.0  0.75230  0.77909  0.29340  1.0000
  S   S475      1.0  0.71564  0.79724  0.28979  1.0000
  S   S476      1.0  0.76634  0.74044  0.29360  1.0000
  Fe  Fe240     1.0  0.71755  0.81953  0.30541  1.0000
  S   S477      1.0  0.68951  0.82552  0.32415  1.0000
  S   S478      1.0  0.53731  0.96159  0.38056  1.0000
  S   S479      1.0  0.75298  0.79887  0.31023  1.0000
  C   C1623     1.0  0.72228  0.70194  0.26724  1.0000
  H   H2767     1.0  0.54043  0.84113  0.39231  1.0000
  H   H2768     1.0  0.73236  0.77761  0.25640  1.0000
  H   H2769     1.0  0.87560  0.73684  0.27244  1.0000
  H   H2770     1.0  0.55927  0.83955  0.45414  1.0000
  H   H2771     1.0  0.82441  0.87763  0.29018  1.0000
  H   H2772     1.0  0.85450  0.76818  0.25970  1.0000
  S   S480      1.0  0.68434  0.68201  0.30686  1.0000
  S   S481      1.0  0.73297  0.84689  0.28962  1.0000
  H   H2773     1.0  0.53809  0.68635  0.46790  1.0000
  H   H2774     1.0  0.50264  0.71680  0.48708  1.0000
  Fe  Fe241     1.0  0.93128  0.77075  0.25078  1.0000
  H   H2775     1.0  0.60517  0.67783  0.24347  1.0000
  C   C1624     1.0  0.52577  0.84417  0.46759  1.0000
  H   H2776     1.0  0.82481  0.81162  0.27836  1.0000
  H   H2777     1.0  0.53326  0.90601  0.39004  1.0000
  Fe  Fe242     1.0  0.64166  0.84008  0.47458  1.0000
  S   S482      1.0  0.66227  0.83267  0.45407  1.0000
  C   C1625     1.0  0.68442  0.82391  0.25919  1.0000
  Fe  Fe243     1.0  0.76826  0.82476  0.29345  1.0000
  H   H2778     1.0  0.55122  0.85773  0.36925  1.0000
  H   H2779     1.0  0.69618  0.77334  0.26777  1.0000
  C   C1626     1.0  0.66139  0.81844  0.24256  1.0000
  H   H2780     1.0  0.87149  0.75797  0.29816  1.0000
  C   C1627     1.0  0.52304  0.70093  0.47003  1.0000
  S   S483      1.0  0.62805  0.87645  0.47930  1.0000
  C   C1628     1.0  0.86568  0.73832  0.28294  1.0000
  H   H2781     1.0  0.66555  0.72003  0.27225  1.0000
  H   H2782     1.0  0.80175  0.76362  0.30148  1.0000
  H   H2783     1.0  0.85043  0.71543  0.26695  1.0000
  C   C1629     1.0  0.53115  0.75466  0.47095  1.0000
  C   C1630     1.0  0.67550  0.73232  0.27479  1.0000
  H   H2784     1.0  0.60213  0.90661  0.43688  1.0000
  H   H2785     1.0  0.57701  0.86383  0.46560  1.0000
  H   H2786     1.0  0.52333  0.87584  0.37416  1.0000
  H   H2787     1.0  0.55545  0.89307  0.40040  1.0000
  C   C1631     1.0  0.53604  0.89570  0.40027  1.0000
  H   H2788     1.0  0.81203  0.74774  0.31682  1.0000
  C   C1632     1.0  0.59198  0.80462  0.42773  1.0000
  C   C1633     1.0  0.63945  0.66770  0.25805  1.0000
  C   C1634     1.0  0.66373  0.81892  0.25618  1.0000
  C   C1635     1.0  0.51678  0.92464  0.35633  1.0000
  H   H2789     1.0  0.73355  0.75430  0.24733  1.0000
  H   H2790     1.0  0.52914  0.90548  0.42110  1.0000
  C   C1636     1.0  0.85336  0.86618  0.27478  1.0000
  C   C1637     1.0  0.86453  0.84843  0.26704  1.0000
  C   C1638     1.0  0.51231  0.85565  0.47829  1.0000
  C   C1639     1.0  0.71320  0.66526  0.48483  1.0000
  C   C1640     1.0  0.69463  0.89470  0.44853  1.0000
  C   C1641     1.0  0.83256  0.86396  0.28405  1.0000
  H   H2791     1.0  0.71098  0.69197  0.27539  1.0000
  C   C1642     1.0  0.74430  0.72321  0.29900  1.0000
  C   C1643     1.0  0.72132  0.73318  0.30439  1.0000
  C   C1644     1.0  0.70327  0.71997  0.30737  1.0000
  C   C1645     1.0  0.70811  0.69670  0.30502  1.0000
  C   C1646     1.0  0.73134  0.68632  0.30024  1.0000
  C   C1647     1.0  0.74945  0.69958  0.29725  1.0000
  H   H2792     1.0  0.71732  0.75115  0.30616  1.0000
  H   H2793     1.0  0.68537  0.72798  0.31121  1.0000
  H   H2794     1.0  0.73522  0.66834  0.29844  1.0000
  H   H2795     1.0  0.76727  0.69171  0.29319  1.0000
  H   H2796     1.0  0.81817  0.86728  0.25629  1.0000
  H   H2797     1.0  0.86297  0.81465  0.26253  1.0000
  C   C1648     1.0  0.65785  0.89599  0.33940  1.0000
  C   C1649     1.0  0.65566  0.87477  0.34807  1.0000
  C   C1650     1.0  0.66506  0.85337  0.34315  1.0000
  C   C1651     1.0  0.67678  0.85295  0.32956  1.0000
  C   C1652     1.0  0.67850  0.87419  0.32079  1.0000
  C   C1653     1.0  0.66913  0.89561  0.32571  1.0000
  H   H2798     1.0  0.64700  0.87484  0.35861  1.0000
  H   H2799     1.0  0.66349  0.83702  0.34996  1.0000
  H   H2800     1.0  0.68709  0.87410  0.31023  1.0000
  H   H2801     1.0  0.67070  0.91197  0.31891  1.0000
  C   C1654     1.0  0.61749  0.85780  0.41963  1.0000
  C   C1655     1.0  0.60695  0.85817  0.43336  1.0000
  C   C1656     1.0  0.62093  0.85101  0.44390  1.0000
  C   C1657     1.0  0.64520  0.84270  0.44080  1.0000
  C   C1658     1.0  0.65580  0.84224  0.42707  1.0000
  C   C1659     1.0  0.64194  0.84997  0.41646  1.0000
  H   H2802     1.0  0.58803  0.86416  0.43583  1.0000
  H   H2803     1.0  0.61298  0.85151  0.45447  1.0000
  H   H2804     1.0  0.67466  0.83585  0.42465  1.0000
  H   H2805     1.0  0.65006  0.84949  0.40584  1.0000
  H   H2806     1.0  0.56275  0.85650  0.39254  1.0000
  S   S484      1.0  0.89005  0.85299  0.25512  1.0000
  C   C1660     1.0  0.52077  0.94654  0.37364  1.0000
  H   H2807     1.0  0.69440  0.88814  0.45974  1.0000
  H   H2808     1.0  0.80415  0.89120  0.24522  1.0000
  H   H2809     1.0  0.81074  0.82518  0.25266  1.0000
  C   C1661     1.0  0.54564  0.87236  0.48001  1.0000
  H   H2810     1.0  0.81368  0.72222  0.29976  1.0000
  C   C1662     1.0  0.65709  0.75161  0.28138  1.0000
  C   C1663     1.0  0.84048  0.71428  0.27761  1.0000
  H   H2811     1.0  0.90392  0.69438  0.26580  1.0000
  S   S485      1.0  0.65203  0.70177  0.47789  1.0000
  C   C1664     1.0  0.91287  0.72363  0.25074  1.0000
  S   S486      1.0  0.94341  0.79879  0.25841  1.0000
  C   C1665     1.0  0.73083  0.75886  0.25775  1.0000
  H   H2812     1.0  0.63304  0.92717  0.45948  1.0000
  C   C1666     1.0  0.86989  0.76074  0.28706  1.0000
  H   H2813     1.0  0.64212  0.89117  0.42783  1.0000
  H   H2814     1.0  0.64366  0.76054  0.27465  1.0000
  C   C1667     1.0  0.81788  0.75354  0.30570  1.0000
  H   H2815     1.0  0.83054  0.76526  0.30502  1.0000
  C   C1668     1.0  0.82213  0.84439  0.28531  1.0000
  H   H2816     1.0  0.63458  0.92085  0.42067  1.0000
  H   H2817     1.0  0.65771  0.89132  0.45408  1.0000
  H   H2818     1.0  0.68522  0.72216  0.28320  1.0000
  C   C1669     1.0  0.63907  0.90917  0.43028  1.0000
  H   H2819     1.0  0.66730  0.77108  0.25525  1.0000
  H   H2820     1.0  0.82204  0.71304  0.27674  1.0000
  C   C1670     1.0  0.58449  0.71458  0.48449  1.0000
  N   N115      1.0  0.84035  0.73566  0.28386  1.0000
  H   H2821     1.0  0.71112  0.74802  0.27736  1.0000
  H   H2822     1.0  0.88791  0.67746  0.24946  1.0000
  H   H2823     1.0  0.69602  0.70897  0.25382  1.0000
  H   H2824     1.0  0.69865  0.91261  0.44655  1.0000
  H   H2825     1.0  0.64958  0.81518  0.26446  1.0000
  C   C1671     1.0  0.52618  0.83500  0.42043  1.0000
  C   C1672     1.0  0.70746  0.71908  0.25706  1.0000
  C   C1673     1.0  0.85148  0.69039  0.28539  1.0000
  H   H2826     1.0  0.74580  0.74890  0.26315  1.0000
  H   H2827     1.0  0.53158  0.82734  0.43066  1.0000
  H   H2828     1.0  0.78163  0.85433  0.26665  1.0000
  C   C1674     1.0  0.53248  0.85959  0.41624  1.0000
  C   C1675     1.0  0.70285  0.82863  0.24858  1.0000
  H   H2829     1.0  0.57900  0.80530  0.42080  1.0000
  H   H2830     1.0  0.84128  0.72011  0.30529  1.0000
  H   H2831     1.0  0.66273  0.92865  0.46113  1.0000
  C   C1676     1.0  0.70688  0.75553  0.26682  1.0000
  N   N116      1.0  0.66109  0.91383  0.43427  1.0000
  H   H2832     1.0  0.64236  0.94976  0.43413  1.0000
  C   C1677     1.0  0.64786  0.93655  0.45525  1.0000
  H   H2833     1.0  0.61887  0.89975  0.45078  1.0000
  N   N117      1.0  0.52816  0.87246  0.40212  1.0000
  C   C1678     1.0  0.67898  0.91626  0.42130  1.0000
  H   H2834     1.0  0.53571  0.82273  0.41329  1.0000
  H   H2835     1.0  0.55081  0.88587  0.37313  1.0000
  H   H2836     1.0  0.82511  0.77882  0.25593  1.0000
  C   C1679     1.0  0.78066  0.87141  0.25966  1.0000
  H   H2837     1.0  0.82279  0.77230  0.28048  1.0000
  Fe  Fe244     1.0  0.61854  0.94724  0.39261  1.0000
  H   H2838     1.0  0.88669  0.76533  0.28097  1.0000
  C   C1680     1.0  0.83288  0.82671  0.27738  1.0000
  H   H2839     1.0  0.69532  0.87914  0.41988  1.0000
  H   H2840     1.0  0.69940  0.89921  0.40428  1.0000
  H   H2841     1.0  0.67128  0.89090  0.40986  1.0000
  N   N118      1.0  0.74194  0.87990  0.32989  1.0000
  C   C1681     1.0  0.74121  0.85610  0.32673  1.0000
  C   C1682     1.0  0.73654  0.89770  0.31736  1.0000
  C   C1683     1.0  0.72312  0.88481  0.34213  1.0000
  C   C1684     1.0  0.76634  0.87882  0.33315  1.0000
  C   C1685     1.0  0.74132  0.83588  0.33909  1.0000
  C   C1686     1.0  0.75444  0.89492  0.30409  1.0000
  C   C1687     1.0  0.71358  0.91066  0.34392  1.0000
  C   C1688     1.0  0.77229  0.90184  0.33537  1.0000
  H   H2842     1.0  0.72524  0.85680  0.32204  1.0000
  H   H2843     1.0  0.75647  0.85031  0.31891  1.0000
  H   H2844     1.0  0.73518  0.91591  0.31909  1.0000
  H   H2845     1.0  0.71877  0.89728  0.31501  1.0000
  H   H2846     1.0  0.70713  0.87780  0.34166  1.0000
  H   H2847     1.0  0.72941  0.87547  0.35192  1.0000
  H   H2848     1.0  0.76929  0.86626  0.34274  1.0000
  H   H2849     1.0  0.78052  0.87118  0.32525  1.0000
  H   H2850     1.0  0.74105  0.81946  0.33538  1.0000
  H   H2851     1.0  0.75747  0.83270  0.34397  1.0000
  H   H2852     1.0  0.72522  0.83864  0.34691  1.0000
  H   H2853     1.0  0.75438  0.87859  0.30029  1.0000
  H   H2854     1.0  0.74916  0.90960  0.29584  1.0000
  H   H2855     1.0  0.77269  0.89555  0.30541  1.0000
  H   H2856     1.0  0.70268  0.92001  0.33584  1.0000
  H   H2857     1.0  0.72764  0.92034  0.34410  1.0000
  H   H2858     1.0  0.70147  0.91125  0.35389  1.0000
  H   H2859     1.0  0.76691  0.90440  0.34630  1.0000
  H   H2860     1.0  0.76449  0.91754  0.32861  1.0000
  H   H2861     1.0  0.79175  0.90100  0.33263  1.0000
  H   H2862     1.0  0.58331  0.81667  0.43518  1.0000
  H   H2863     1.0  0.80804  0.75292  0.27580  1.0000
  S   S487      1.0  0.72929  0.83398  0.25225  1.0000
  H   H2864     1.0  0.73262  0.71102  0.27197  1.0000
  C   C1689     1.0  0.54375  0.85910  0.39127  1.0000
  H   H2865     1.0  0.85628  0.77641  0.28470  1.0000
  S   S488      1.0  0.77095  0.80322  0.27702  1.0000
  H   H2866     1.0  0.51362  0.75454  0.46819  1.0000
  N   N119      1.0  0.69254  0.74064  0.26241  1.0000
  H   H2867     1.0  0.51856  0.98484  0.40510  1.0000
  H   H2868     1.0  0.64179  0.95486  0.45732  1.0000
  H   H2869     1.0  0.66090  0.74821  0.47428  1.0000
  H   H2870     1.0  0.60680  0.76879  0.42620  1.0000
  H   H2871     1.0  0.76495  0.87463  0.25441  1.0000
  H   H2872     1.0  0.56378  0.71216  0.46949  1.0000
  C   C1690     1.0  0.67786  0.75476  0.25169  1.0000
  C   C1691     1.0  0.89537  0.69308  0.24592  1.0000
  H   H2873     1.0  0.52501  0.71662  0.46223  1.0000
  H   H2874     1.0  0.73510  0.68876  0.26170  1.0000
  H   H2875     1.0  0.86104  0.88163  0.27371  1.0000
  H   H2876     1.0  0.87546  0.72350  0.28955  1.0000
  H   H2877     1.0  0.78267  0.83636  0.24768  1.0000
  S   S489      1.0  0.79619  0.84251  0.29732  1.0000
  C   C1692     1.0  0.55892  0.86165  0.46901  1.0000
  H   H2878     1.0  0.87042  0.68925  0.28602  1.0000
  C   C1693     1.0  0.83697  0.76319  0.26060  1.0000
  H   H2879     1.0  0.67314  0.87689  0.44045  1.0000
  C   C1694     1.0  0.82608  0.75628  0.27574  1.0000
  Fe  Fe245     1.0  0.73428  0.82289  0.27447  1.0000
  N   N120      1.0  0.61624  0.77512  0.44488  1.0000
  C   C1695     1.0  0.63943  0.78123  0.43721  1.0000
  C   C1696     1.0  0.59913  0.77904  0.43475  1.0000
  C   C1697     1.0  0.61938  0.74984  0.45170  1.0000
  C   C1698     1.0  0.60704  0.79045  0.45589  1.0000
  C   C1699     1.0  0.66027  0.77512  0.44553  1.0000
  H   H2880     1.0  0.50675  0.83587  0.42176  1.0000
  C   C1700     1.0  0.63111  0.73148  0.44221  1.0000
  C   C1701     1.0  0.58174  0.78918  0.46352  1.0000
  H   H2881     1.0  0.64529  0.77286  0.42778  1.0000
  H   H2882     1.0  0.63731  0.80037  0.43339  1.0000
  H   H2883     1.0  0.58261  0.77243  0.43965  1.0000
  H   H2884     1.0  0.97754  0.71109  0.25543  1.0000
  H   H2885     1.0  0.62983  0.74682  0.46029  1.0000
  H   H2886     1.0  0.60199  0.74513  0.45657  1.0000
  H   H2887     1.0  0.61872  0.78604  0.46399  1.0000
  H   H2888     1.0  0.60738  0.80912  0.45155  1.0000
  H   H2889     1.0  0.66580  0.75596  0.44858  1.0000
  H   H2890     1.0  0.67583  0.78159  0.43898  1.0000
  H   H2891     1.0  0.65631  0.78386  0.45476  1.0000
  H   H2892     1.0  0.55144  0.85783  0.41735  1.0000
  H   H2893     1.0  0.50370  0.83941  0.39864  1.0000
  H   H2894     1.0  0.63277  0.68677  0.25776  1.0000
  H   H2895     1.0  0.61996  0.73122  0.43444  1.0000
  H   H2896     1.0  0.63327  0.71378  0.44860  1.0000
  H   H2897     1.0  0.64908  0.73391  0.43701  1.0000
  H   H2898     1.0  0.56820  0.79518  0.45656  1.0000
  H   H2899     1.0  0.57724  0.80118  0.47128  1.0000
  H   H2900     1.0  0.58025  0.77140  0.46911  1.0000
  H   H2901     1.0  0.96479  0.68747  0.25357  1.0000
  H   H2902     1.0  0.69554  0.92036  0.42339  1.0000
  C   C1702     1.0  0.67068  0.89353  0.44454  1.0000
  C   C1703     1.0  0.65590  0.93702  0.43957  1.0000
  H   H2903     1.0  0.68595  0.82440  0.26972  1.0000
  H   H2904     1.0  0.54862  0.97463  0.41900  1.0000
  H   H2905     1.0  0.66549  0.76472  0.28426  1.0000
  H   H2906     1.0  0.56650  0.68764  0.48259  1.0000
  H   H2907     1.0  0.84147  0.68629  0.29585  1.0000
  H   H2908     1.0  0.67208  0.93159  0.41379  1.0000
  C   C1704     1.0  0.82862  0.73170  0.29871  1.0000
  C   C1705     1.0  0.54887  0.84791  0.46259  1.0000
  C   C1706     1.0  0.68642  0.89494  0.41358  1.0000
  H   H2909     1.0  0.67169  0.94564  0.43706  1.0000
  C   C1707     1.0  0.54189  0.87053  0.37619  1.0000
  C   C1708     1.0  0.53055  0.93598  0.36199  1.0000
  C   C1709     1.0  0.90401  0.70288  0.25521  1.0000
  S   S490      1.0  0.60713  0.96144  0.37195  1.0000
  C   C1710     1.0  0.61641  0.91164  0.44096  1.0000
  H   H2910     1.0  0.50769  0.98757  0.42301  1.0000
  H   H2911     1.0  0.60734  0.81132  0.42115  1.0000
  H   H2912     1.0  0.53318  0.77318  0.46989  1.0000
  H   H2913     1.0  0.52427  0.91685  0.34715  1.0000
  S   S491      1.0  0.63180  0.96563  0.40674  1.0000
  C   C1711     1.0  0.53277  0.74280  0.48593  1.0000
  H   H2914     1.0  0.70929  0.88274  0.44316  1.0000
  H   H2915     1.0  0.60991  0.93007  0.44266  1.0000
  H   H2916     1.0  0.64734  0.74331  0.29106  1.0000
  H   H2917     1.0  0.73062  0.66593  0.47819  1.0000
  H   H2918     1.0  0.84667  0.88327  0.23913  1.0000
  C   C1712     1.0  0.52359  0.91209  0.41083  1.0000
  S   S492      1.0  0.60774  0.82770  0.48396  1.0000
  H   H2919     1.0  0.52908  0.92938  0.40734  1.0000
  H   H2920     1.0  0.83847  0.74921  0.25438  1.0000
  S   S493      1.0  0.51432  0.82409  0.46113  1.0000
  C   C1713     1.0  0.80407  0.87242  0.24960  1.0000
  C   C1714     1.0  0.64950  0.74529  0.48403  1.0000
  H   H2921     1.0  0.52198  0.86959  0.42441  1.0000
  C   C1715     1.0  0.97976  0.69678  0.24928  1.0000
  C   C1716     1.0  0.56307  0.70720  0.48079  1.0000
  H   H2922     1.0  0.99680  0.68488  0.25097  1.0000
  H   H2923     1.0  0.57045  0.97890  0.42808  1.0000
  H   H2924     1.0  0.66463  0.74489  0.25012  1.0000
  H   H2925     1.0  0.60038  0.70938  0.47693  1.0000
  C   C1717     1.0  0.80187  0.83428  0.24363  1.0000
  H   H2926     1.0  0.54552  0.74698  0.46335  1.0000
  H   H2927     1.0  0.85069  0.67632  0.27964  1.0000
  C   C1718     1.0  0.56231  0.98510  0.41853  1.0000
  H   H2928     1.0  0.67082  0.66502  0.24291  1.0000
  Fe  Fe246     1.0  0.91553  0.82276  0.24677  1.0000
  H   H2929     1.0  0.77782  0.88503  0.26636  1.0000
  C   C1719     1.0  0.52035  0.70569  0.48494  1.0000
  H   H2930     1.0  0.58208  0.73371  0.48421  1.0000
  N   N121      1.0  0.80954  0.85755  0.23827  1.0000
  H   H2931     1.0  0.57670  0.98137  0.40985  1.0000
  C   C1720     1.0  0.50218  0.87708  0.40082  1.0000
  H   H2932     1.0  0.50403  0.91538  0.41166  1.0000
  Fe  Fe247     1.0  0.64177  0.66603  0.48405  1.0000
  H   H2933     1.0  0.65166  0.66175  0.26584  1.0000
  H   H2934     1.0  0.69955  0.67025  0.47788  1.0000
  C   C1721     1.0  0.52191  0.87042  0.48414  1.0000
  H   H2935     1.0  0.66109  0.70638  0.24341  1.0000
  H   H2936     1.0  0.60364  0.93484  0.48314  1.0000
  H   H2937     1.0  0.84498  0.84037  0.24220  1.0000
  S   S494      1.0  0.90158  0.79442  0.24085  1.0000
  S   S495      1.0  0.63614  0.80986  0.23941  1.0000
  H   H2938     1.0  0.51004  0.78084  0.54277  1.0000
  H   H2939     1.0  0.70051  0.68444  0.52978  1.0000
  H   H2940     1.0  0.56190  0.78531  0.52001  1.0000
  H   H2941     1.0  0.54759  0.68962  0.50592  1.0000
  H   H2942     1.0  0.68139  0.72234  0.50641  1.0000
  H   H2943     1.0  0.58513  0.94536  0.53347  1.0000
  H   H2944     1.0  0.69374  0.69699  0.49189  1.0000
  Fe  Fe248     1.0  0.62422  0.81736  0.50322  1.0000
  H   H2945     1.0  0.56663  0.92944  0.49706  1.0000
  C   C1722     1.0  0.65934  0.92584  0.51652  1.0000
  H   H2946     1.0  0.51493  0.74878  0.49170  1.0000
  S   S496      1.0  0.61891  0.78190  0.51517  1.0000
  H   H2947     1.0  0.52784  0.94272  0.50558  1.0000
  H   H2948     1.0  0.53409  0.79775  0.50172  1.0000
  H   H2949     1.0  0.56950  0.95864  0.49626  1.0000
  H   H2950     1.0  0.66335  0.70774  0.52083  1.0000
  H   H2951     1.0  0.60717  0.93816  0.51979  1.0000
  H   H2952     1.0  0.55378  0.84856  0.51493  1.0000
  Fe  Fe249     1.0  0.64282  0.86310  0.49903  1.0000
  H   H2953     1.0  0.63423  0.87787  0.52944  1.0000
  H   H2954     1.0  0.65632  0.95522  0.52709  1.0000
  H   H2955     1.0  0.50186  0.82053  0.53437  1.0000
  H   H2956     1.0  0.57402  0.81066  0.51361  1.0000
  H   H2957     1.0  0.72598  0.97752  0.57365  1.0000
  C   C1723     1.0  0.63148  0.90708  0.54009  1.0000
  H   H2958     1.0  0.55050  0.82116  0.49443  1.0000
  H   H2959     1.0  0.55962  0.82796  0.53749  1.0000
  C   C1724     1.0  0.63761  0.92897  0.53947  1.0000
  C   C1725     1.0  0.68086  0.71286  0.51711  1.0000
  C   C1726     1.0  0.51994  0.86151  0.52632  1.0000
  C   C1727     1.0  0.65295  0.90410  0.51707  1.0000
  H   H2960     1.0  0.50959  0.95011  0.52119  1.0000
  C   C1728     1.0  0.65150  0.93838  0.52763  1.0000
  S   S497      1.0  0.60937  0.85191  0.51088  1.0000
  C   C1729     1.0  0.62854  0.71965  0.50149  1.0000
  S   S498      1.0  0.62677  0.94439  0.55343  1.0000
  H   H2961     1.0  0.57587  0.98456  0.52465  1.0000
  H   H2962     1.0  0.51925  0.68847  0.49155  1.0000
  H   H2963     1.0  0.55137  0.96599  0.55041  1.0000
  H   H2964     1.0  0.54448  0.96852  0.51679  1.0000
  S   S499      1.0  0.50140  0.96907  0.55108  1.0000
  H   H2965     1.0  0.54833  0.90987  0.54073  1.0000
  C   C1730     1.0  0.51459  0.81111  0.52661  1.0000
  C   C1731     1.0  0.70848  0.68282  0.49513  1.0000
  H   H2966     1.0  0.62090  0.89968  0.54928  1.0000
  H   H2967     1.0  0.56144  0.79258  0.55549  1.0000
  H   H2968     1.0  0.57175  0.88496  0.54014  1.0000
  H   H2969     1.0  0.52871  0.84571  0.50820  1.0000
  H   H2970     1.0  0.54906  0.77786  0.54543  1.0000
  C   C1732     1.0  0.51684  0.71342  0.51365  1.0000
  S   S500      1.0  0.66304  0.88897  0.50292  1.0000
  C   C1733     1.0  0.53610  0.84326  0.51789  1.0000
  C   C1734     1.0  0.63892  0.89477  0.52886  1.0000
  C   C1735     1.0  0.70153  0.69174  0.51862  1.0000
  H   H2971     1.0  0.53150  0.82227  0.54623  1.0000
  H   H2972     1.0  0.57729  0.78697  0.53909  1.0000
  C   C1736     1.0  0.51761  0.98914  0.55396  1.0000
  C   C1737     1.0  0.55918  0.79185  0.54481  1.0000
  N   N122      1.0  0.53855  0.81796  0.52470  1.0000
  C   C1738     1.0  0.55717  0.80393  0.51534  1.0000
  H   H2973     1.0  0.75065  0.67134  0.51365  1.0000
  C   C1739     1.0  0.62127  0.73762  0.50963  1.0000
  H   H2974     1.0  0.61091  0.91585  0.49850  1.0000
  H   H2975     1.0  0.60641  0.97772  0.51672  1.0000
  H   H2976     1.0  0.51960  0.87920  0.52002  1.0000
  H   H2977     1.0  0.50325  0.70453  0.51167  1.0000
  C   C1740     1.0  0.54240  0.98331  0.55233  1.0000
  H   H2978     1.0  0.57756  0.91126  0.54376  1.0000
  H   H2979     1.0  0.52716  0.92144  0.52123  1.0000
  C   C1741     1.0  0.55099  0.80377  0.50104  1.0000
  Fe  Fe250     1.0  0.63154  0.98182  0.55175  1.0000
  H   H2980     1.0  0.52012  0.70620  0.52436  1.0000
  H   H2981     1.0  0.61054  0.73454  0.51962  1.0000
  C   C1742     1.0  0.54042  0.70877  0.50374  1.0000
  H   H2982     1.0  0.52918  0.77282  0.52729  1.0000
  H   H2983     1.0  0.67034  0.93305  0.50744  1.0000
  C   C1743     1.0  0.60265  0.93394  0.49441  1.0000
  H   H2984     1.0  0.50613  0.81723  0.51714  1.0000
  C   C1744     1.0  0.54669  0.81616  0.53840  1.0000
  H   H2985     1.0  0.66551  0.67885  0.50819  1.0000
  H   H2986     1.0  0.54342  0.94886  0.53241  1.0000
  C   C1745     1.0  0.62794  0.75953  0.50490  1.0000
  N   N123      1.0  0.57177  0.93729  0.51647  1.0000
  C   C1746     1.0  0.57522  0.91134  0.52188  1.0000
  C   C1747     1.0  0.57645  0.94040  0.50093  1.0000
  C   C1748     1.0  0.54690  0.94950  0.52105  1.0000
  C   C1749     1.0  0.58869  0.94769  0.52202  1.0000
  C   C1750     1.0  0.56765  0.90437  0.53752  1.0000
  H   H2987     1.0  0.68226  0.72567  0.52358  1.0000
  C   C1751     1.0  0.52698  0.94017  0.51692  1.0000
  C   C1752     1.0  0.58832  0.97418  0.51726  1.0000
  H   H2988     1.0  0.56570  0.90227  0.51651  1.0000
  H   H2989     1.0  0.59420  0.90301  0.51963  1.0000
  C   C1753     1.0  0.51338  0.78496  0.53135  1.0000
  H   H2990     1.0  0.62341  0.70282  0.50524  1.0000
  H   H2991     1.0  0.58358  0.98061  0.50684  1.0000
  H   H2992     1.0  0.55281  0.71760  0.50714  1.0000
  H   H2993     1.0  0.50139  0.85871  0.52866  1.0000
  H   H2994     1.0  0.71805  0.69913  0.51596  1.0000
  H   H2995     1.0  0.52655  0.86191  0.53594  1.0000
  S   S501      1.0  0.65921  0.82741  0.49339  1.0000
  H   H2996     1.0  0.72398  0.69173  0.49331  1.0000
  H   H2997     1.0  0.50955  0.73239  0.51343  1.0000
  C   C1754     1.0  0.64197  0.76333  0.49204  1.0000
  H   H2998     1.0  0.61337  0.94639  0.49586  1.0000
  N   N124      1.0  0.70279  0.67285  0.51014  1.0000
  H   H2999     1.0  0.66680  0.66894  0.53423  1.0000
  H   H3000     1.0  0.51146  0.87881  0.49260  1.0000
  C   C1755     1.0  0.67948  0.66471  0.51235  1.0000
  H   H3001     1.0  0.56518  0.79131  0.49575  1.0000
  N   N125      1.0  0.53918  0.71640  0.48854  1.0000
  H   H3002     1.0  0.58850  0.70516  0.49473  1.0000
  Fe  Fe251     1.0  0.59591  0.86302  0.49066  1.0000
  C   C1756     1.0  0.64262  0.72350  0.48862  1.0000
  S   S502      1.0  0.55957  0.88494  0.48995  1.0000
  H   H3003     1.0  0.54448  0.75114  0.49024  1.0000
  H   H3004     1.0  0.64746  0.78005  0.48836  1.0000
  Fe  Fe252     1.0  0.93444  0.81387  0.92839  1.0000
  S   S503      1.0  0.95204  0.81101  0.94682  1.0000
  S   S504      1.0  0.91740  0.84980  0.91883  1.0000
  Fe  Fe253     1.0  0.93768  0.76053  0.93172  1.0000
  S   S505      1.0  0.95488  0.75351  0.95068  1.0000
  S   S506      1.0  0.92906  0.73273  0.92181  1.0000
  Fe  Fe254     1.0  0.92889  0.78501  0.95688  1.0000
  H   H3005     1.0  0.86756  0.75375  0.98256  1.0000
  N   N126      1.0  0.92386  0.87715  0.97624  1.0000
  H   H3006     1.0  0.97231  0.86330  0.92963  1.0000
  S   S507      1.0  0.90947  0.78979  0.93899  1.0000
  S   S508      1.0  0.96099  0.78515  0.91931  1.0000
  H   H3007     1.0  0.88497  0.89171  0.85958  1.0000
  S   S509      1.0  0.97274  0.92779  0.88481  1.0000
  C   C1757     1.0  0.93511  0.87075  0.91131  1.0000
  C   C1758     1.0  0.92566  0.89442  0.91206  1.0000
  C   C1759     1.0  0.93787  0.91194  0.90460  1.0000
  C   C1760     1.0  0.95918  0.90595  0.89594  1.0000
  C   C1761     1.0  0.96910  0.88221  0.89554  1.0000
  C   C1762     1.0  0.95719  0.86458  0.90333  1.0000
  H   H3008     1.0  0.90857  0.89927  0.91821  1.0000
  H   H3009     1.0  0.93038  0.93014  0.90524  1.0000
  N   N127      1.0  0.87682  0.72648  0.96211  1.0000
  H   H3010     1.0  0.96443  0.84633  0.90259  1.0000
  C   C1763     1.0  0.93698  0.70257  0.92825  1.0000
  C   C1764     1.0  0.93332  0.68591  0.92098  1.0000
  C   C1765     1.0  0.85506  0.76974  0.95700  1.0000
  H   H3011     1.0  0.93079  0.96677  0.98300  1.0000
  S   S510      1.0  0.91044  0.97066  0.88690  1.0000
  C   C1766     1.0  0.94459  0.69503  0.94108  1.0000
  H   H3012     1.0  0.92745  0.69159  0.91104  1.0000
  C   C1767     1.0  0.91890  0.91264  0.95640  1.0000
  C   C1768     1.0  0.89985  0.73258  0.96364  1.0000
  H   H3013     1.0  0.94783  0.70759  0.94667  1.0000
  H   H3014     1.0  0.83981  0.76895  0.96543  1.0000
  C   C1769     1.0  0.89701  0.90467  0.85623  1.0000
  H   H3015     1.0  0.93230  0.91134  0.97519  1.0000
  C   C1770     1.0  0.85841  0.73872  0.98616  1.0000
  C   C1771     1.0  0.88105  0.92811  0.85122  1.0000
  C   C1772     1.0  0.93117  0.86090  0.86776  1.0000
  H   H3016     1.0  0.89953  0.84558  0.96012  1.0000
  H   H3017     1.0  0.90896  0.89880  0.84699  1.0000
  H   H3018     1.0  0.92500  0.94963  0.85917  1.0000
  H   H3019     1.0  0.86557  0.93276  0.85914  1.0000
  Fe  Fe255     1.0  0.95015  0.96422  0.88233  1.0000
  C   C1773     1.0  0.93512  0.91081  0.86131  1.0000
  H   H3020     1.0  0.92995  0.84351  0.87417  1.0000
  H   H3021     1.0  0.95014  0.86238  0.86607  1.0000
  H   H3022     1.0  0.92391  0.88017  0.88472  1.0000
  H   H3023     1.0  0.87669  0.74870  0.94221  1.0000
  H   H3024     1.0  0.94506  0.89892  0.85396  1.0000
  H   H3025     1.0  0.89854  0.87404  0.87985  1.0000
  Fe  Fe256     1.0  0.97628  0.77995  0.93888  1.0000
  H   H3026     1.0  0.86993  0.67745  0.94915  1.0000
  H   H3027     1.0  0.89344  0.93925  0.87202  1.0000
  H   H3028     1.0  0.90007  0.91962  0.96004  1.0000
  C   C1774     1.0  0.93532  0.93573  0.85330  1.0000
  H   H3029     1.0  0.86576  0.92963  0.89137  1.0000
  C   C1775     1.0  0.92675  0.85854  0.96732  1.0000
  H   H3030     1.0  0.95389  0.93869  0.85109  1.0000
  H   H3031     1.0  0.99272  0.79731  0.95991  1.0000
  H   H3032     1.0  0.92053  0.90238  0.94800  1.0000
  H   H3033     1.0  0.87390  0.92625  0.84204  1.0000
  C   C1776     1.0  0.87609  0.91428  0.88663  1.0000
  H   H3034     1.0  0.86451  0.90870  0.88079  1.0000
  C   C1777     1.0  0.86085  0.72186  0.97564  1.0000
  H   H3035     1.0  0.95114  0.89428  0.96314  1.0000
  H   H3036     1.0  0.88770  0.84963  0.98537  1.0000
  S   S511      1.0  0.95110  0.98832  0.86197  1.0000
  H   H3037     1.0  0.92709  0.84095  0.97383  1.0000
  C   C1778     1.0  0.90798  0.86131  0.95776  1.0000
  H   H3038     1.0  0.89739  0.75008  0.96657  1.0000
  H   H3039     1.0  0.94433  0.85704  0.96064  1.0000
  H   H3040     1.0  0.94625  0.90831  0.86956  1.0000
  H   H3041     1.0  0.89370  0.87686  0.95826  1.0000
  C   C1779     1.0  0.94687  0.67127  0.94701  1.0000
  H   H3042     1.0  0.89482  0.70755  0.94541  1.0000
  C   C1780     1.0  0.89872  0.88393  0.98327  1.0000
  H   H3043     1.0  0.89053  0.94299  0.84814  1.0000
  H   H3044     1.0  0.91676  0.86220  0.94686  1.0000
  H   H3045     1.0  0.95763  0.78524  0.97690  1.0000
  H   H3046     1.0  0.86875  0.77710  0.96012  1.0000
  H   H3047     1.0  0.89369  0.68991  0.96193  1.0000
  H   H3048     1.0  0.84263  0.72200  0.97378  1.0000
  S   S512      1.0  0.90746  0.78750  0.97783  1.0000
  H   H3049     1.0  0.84970  0.69095  0.96228  1.0000
  H   H3050     1.0  0.98566  0.87748  0.88888  1.0000
  H   H3051     1.0  0.91154  0.73411  0.95348  1.0000
  C   C1781     1.0  0.86457  0.74576  0.95218  1.0000
  N   N128      1.0  0.91120  0.90460  0.86741  1.0000
  H   H3052     1.0  0.91075  0.92245  0.88436  1.0000
  C   C1782     1.0  0.89859  0.92109  0.87736  1.0000
  C   C1783     1.0  0.93892  0.86756  0.98753  1.0000
  H   H3053     1.0  0.92701  0.92823  0.95170  1.0000
  H   H3054     1.0  0.92220  0.69843  0.97035  1.0000
  H   H3055     1.0  0.92537  0.86099  0.85782  1.0000
  H   H3056     1.0  0.98362  0.86467  0.94502  1.0000
  C   C1784     1.0  0.93247  0.89878  0.96813  1.0000
  C   C1785     1.0  0.91553  0.88021  0.87561  1.0000
  H   H3057     1.0  0.88083  0.90007  0.89524  1.0000
  H   H3058     1.0  0.92941  0.93779  0.84317  1.0000
  H   H3059     1.0  0.84885  0.74080  0.94962  1.0000
  H   H3060     1.0  0.95149  0.66580  0.95725  1.0000
  H   H3061     1.0  0.90374  0.71199  0.98439  1.0000
  H   H3062     1.0  0.99660  0.88580  0.91471  1.0000
  C   C1786     1.0  0.96590  0.86056  0.98293  1.0000
  C   C1787     1.0  0.93664  0.66196  0.92666  1.0000
  H   H3063     1.0  0.88663  0.89369  0.97598  1.0000
  H   H3064     1.0  0.97025  0.84766  0.97571  1.0000
  H   H3065     1.0  0.84837  0.78254  0.94828  1.0000
  H   H3066     1.0  0.99848  0.90306  0.92700  1.0000
  C   C1788     1.0  0.86254  0.69453  0.95284  1.0000
  H   H3067     1.0  0.97424  0.87603  0.97853  1.0000
  C   C1789     1.0  0.88327  0.70452  0.95552  1.0000
  H   H3068     1.0  0.85334  0.70585  0.94452  1.0000
  C   C1790     1.0  0.97948  0.87445  0.93494  1.0000
  C   C1791     1.0  0.91426  0.71530  0.97405  1.0000
  C   C1792     1.0  0.94822  0.79212  0.98608  1.0000
  H   H3069     1.0  0.75139  0.98844  0.82906  1.0000
  H   H3070     1.0  0.96456  0.88916  0.93701  1.0000
  H   H3071     1.0  0.92926  0.72306  0.97533  1.0000
  H   H3072     1.0  0.86698  0.70382  0.98104  1.0000
