data_image0
_chemical_formula_structural       C2H2SCFeC2SFeHSFeSHFeCS2HC2HSCHSCH2CH2CH3SCHCH2CH5CH7CHCHCFeC6H2SH2C2H3NSH3C2HCH2NHSH2CH2CHSH3CSH2C2HCSH2SHSFeSFeSHFeHSFeSCH2S2C6H5CH6CHC6H6CFeCSC2H2NC3H4SH7CH2SH3FeHCH2FeHC2HCH2NC4HCHC3H2CH3CH2NH3FeHNH5CH2CH5CH3C2H4C2H3FeC4H2CHCH2NC2H2CH3SHSH3CSHSH2CSH2Fe2CSNHCFeSH4C6HFeH3SH4CH3C2HCH3SH6CFeSHC2H2SH3C2HCH3CH3CH3CHC2H5SHC5HC2HNH3CHCNC7H16C2H2CHCH2CNCH2C2HC2SFeS2FeS2HSFeS2FeS3C6H4CH4C3H2C3H10CH2CH7CNCH7CH4CNC2H3FeH2C4HFeS2FeS3CHCFeS2FeSHC2H3CHC4H2C2H2C2H3CHCHC2H2FeH4C2H2NH3CH2C4H3CH4C2H4NCH2CH4C5H4SCH3CH6SC2HNHCH4C2HC3FeSHCH2SFeS2FeSFeSFeS2FeS2FeSFeS3HCH2FeS2FeS2FeSFeS4H2SC6H5FeC4H6C3SFeH2SC6H4C6H4C6H3C7H4C6H4C7H3C3HC2H5CH3C2H4NC5H14CHNC8H10SH13CHSNC8H21NCNC8H20NHC3HC5H2CH2SH5SH2CHC2FeCH2CH2CH2C2H2C3HCH7CH2C2H4FeCHS2CH2CHCH6CH2NH3CHC2SCHCFeCHCHSH3C2H3CHCHC3H3NH2NH8CH4FeSHSCH2CH2SC2NHCH4CSH2SFeSHFeS2CHFeS3CNH2FeSH2FeS2FeS2FeSFeS3C6H4C6H4CH3C2H2C5H4FeH5C6H4C2HCH7C2H2C2H2CH2NC2H4C3HCHCNC6HCH8NH11NC8H20CSH2CH2FeH2SH2C2H3CH4NCSHCH2CHCHCH3CH3CH6CHCSH2CH3CFeCH9CSCH2SC4HFeCH2CHC2H4SCH2SHCS2FeS2FeS2FeSFeS3C2FeSHFeS2FeS2FeSFeS3CSC2HC2HCH3C2H4C6H4C6H4C6H4CNHCHCHC6H5C2FeNC5H7CH5CH2CH3CH2NC8H22C3HCH3SH4C2H2CH2C2H4NH6CHCH9SH6CHFeC4HC3H4CH4C2HFeHCH2CH6FeHCH3FeCH4CNCH2CH3NCHSCHCS2CH2CSC2HCH3NC8HCH5NCH4CHC2H7CH2SHSH2CH5C2HC2HCH5S2FeS2FeS2FeSFeS3CSFeSFeSFeS3C2FeSCHS2H2FeS2FeS2FeSFeS3H2NCSC6H4CSC4H2C7H4C6H4C6H4CH4C6H4C6H4C6H4C6H2CHCH3C2HCH2CH2CHCH5C2H5NC4SH5SH3CH3CH3NC8H18NHNC2HC5H7NHCH10CH4CFeCH4CH2C2H3FeH2NC2HC2HCH2CH5FeH3CH7FeNC8H22CFeH10SH2CH2CHC3HCH2SHC2HC2HCH4C2HS2H4C2H2CNHSCSH4CHFeH3CSH4CH3CH2SC3HCFeHSH8FeC2H4SHCSCH5CHC2H5CHSHSFeS2FeS2FeSFeHS2CFeHSHFeSHFeS2FeS2FeSFeS3HC6H6CH2C6H5CH5C6H4CNSHCHC8H4CH6NC4HCHCH5FeH2NH4SH3SC3H3CH20FeH2CHCH4CH2CHSHC2NH5CH2CHFeC5H3C2H2SHCH8NC2H2CH4CHCHCH3CNC2HCH2CHS3CHCH2SHCHCHCHC2H3CHCH2CH6NCH3FeH2CH2CH2FeH3C2H2CH2CH2FeH3C2HC2SCFeSFeHSH2SH2CH2CHC6H5SHCHCNHC3FeC4FeHCH7C3H5SH2CSH2CHNH3SH2SH2CHCH3CH2CH9SCH3FeHSH2SHSFeHSCH2SFeHSFeSFeS2FeCSFeCHFe2S2C2HC3H4CHCH2C6H6C2SH2NCH3CSH10CNCHC2H3CH2CH4CH2CH3CHC2NHC4H5CSH2CHSH8CFeHCH4C2H2C2HSHSCHCH3CHSHC3H3CHCHCHCH2NHFeHCSH3CH3FeSCHSHCH3CH2NHSH2SH3CH2C2SNCH2C3HCH3C4H3SHC2HC2H3CH5CFeH2CH2FeH3CSH2FeH2
_chemical_formula_sum              "C896 H1536 S256 Fe128 N64"
_cell_length_a       49.6901
_cell_length_b       50.045
_cell_length_c       71.6824
_cell_angle_alpha    88.306
_cell_angle_beta     92.8116
_cell_angle_gamma    116.465

_space_group_name_H-M_alt    "P 1"
_space_group_IT_number       1

loop_
  _space_group_symop_operation_xyz
  'x, y, z'

loop_
  _atom_site_type_symbol
  _atom_site_label
  _atom_site_symmetry_multiplicity
  _atom_site_fract_x
  _atom_site_fract_y
  _atom_site_fract_z
  _atom_site_occupancy
  C   C1        1.0  0.30776  0.41976  0.06070  1.0000
  C   C2        1.0  0.51530  0.03252  0.12303  1.0000
  H   H1        1.0  0.52569  0.27031  0.04587  1.0000
  H   H2        1.0  0.37960  0.43403  0.06144  1.0000
  S   S1        1.0  0.48708  0.16657  0.06881  1.0000
  C   C3        1.0  0.49002  0.22255  0.10596  1.0000
  Fe  Fe1       1.0  0.52658  0.17304  0.08806  1.0000
  C   C4        1.0  0.50952  0.22513  0.05644  1.0000
  C   C5        1.0  0.51465  0.30715  0.09925  1.0000
  S   S2        1.0  0.52040  0.16029  0.11845  1.0000
  Fe  Fe2       1.0  0.15751  0.45426  0.10658  1.0000
  H   H3        1.0  0.08119  0.51690  0.08325  1.0000
  S   S3        1.0  0.11374  0.41735  0.11696  1.0000
  Fe  Fe3       1.0  0.20520  0.46876  0.07741  1.0000
  S   S4        1.0  0.21813  0.45280  0.05156  1.0000
  H   H4        1.0  0.47270  0.48119  0.05032  1.0000
  Fe  Fe4       1.0  0.22432  0.49384  0.11685  1.0000
  C   C6        1.0  0.50791  0.30922  0.07814  1.0000
  S   S5        1.0  0.19924  0.44700  0.10576  1.0000
  S   S6        1.0  0.16171  0.47258  0.07733  1.0000
  H   H5        1.0  0.50999  0.33184  0.07473  1.0000
  C   C7        1.0  0.27776  0.48235  0.06264  1.0000
  C   C8        1.0  0.25693  0.46649  0.04845  1.0000
  H   H6        1.0  0.32453  0.50762  0.07053  1.0000
  S   S7        1.0  0.18230  0.49914  0.12035  1.0000
  C   C9        1.0  0.48462  0.50081  0.04108  1.0000
  H   H7        1.0  0.47092  0.25373  0.10522  1.0000
  S   S8        1.0  0.35781  0.51168  0.03852  1.0000
  C   C10       1.0  0.07844  0.41773  0.11304  1.0000
  H   H8        1.0  0.50261  0.27938  0.13282  1.0000
  H   H9        1.0  0.09490  0.45685  0.09551  1.0000
  C   C11       1.0  0.38200  0.44819  0.04898  1.0000
  H   H10       1.0  0.36502  0.37805  0.06085  1.0000
  H   H11       1.0  0.27003  0.48476  0.07605  1.0000
  C   C12       1.0  0.54600  0.27947  0.09651  1.0000
  H   H12       1.0  0.50401  0.08002  0.09234  1.0000
  H   H13       1.0  0.52363  0.30551  0.06937  1.0000
  H   H14       1.0  0.48673  0.21838  0.12116  1.0000
  S   S9        1.0  0.23337  0.51475  0.08840  1.0000
  C   C13       1.0  0.48421  0.19781  0.05908  1.0000
  H   H15       1.0  0.17913  0.52220  0.05129  1.0000
  C   C14       1.0  0.37063  0.38098  0.04595  1.0000
  H   H16       1.0  0.30163  0.37484  0.05639  1.0000
  H   H17       1.0  0.52879  0.03269  0.13538  1.0000
  C   C15       1.0  0.32022  0.39791  0.05525  1.0000
  H   H18       1.0  0.43011  0.21627  0.04085  1.0000
  H   H19       1.0  0.29964  0.41455  0.07515  1.0000
  H   H20       1.0  0.38279  0.46947  0.05376  1.0000
  H   H21       1.0  0.51804  0.52272  0.06286  1.0000
  H   H22       1.0  0.37517  0.36195  0.04236  1.0000
  C   C16       1.0  0.48022  0.03183  0.09133  1.0000
  H   H23       1.0  0.53164  0.22744  0.06063  1.0000
  H   H24       1.0  0.51020  0.22034  0.10206  1.0000
  H   H25       1.0  0.46657  0.03173  0.07907  1.0000
  H   H26       1.0  0.33652  0.39884  0.06655  1.0000
  H   H27       1.0  0.48756  0.25158  0.08435  1.0000
  H   H28       1.0  0.49552  0.30734  0.10666  1.0000
  H   H29       1.0  0.53901  0.26892  0.08257  1.0000
  C   C17       1.0  0.45234  0.21886  0.04514  1.0000
  H   H30       1.0  0.32534  0.44323  0.06064  1.0000
  C   C18       1.0  0.52291  0.28010  0.12639  1.0000
  H   H31       1.0  0.43612  0.17361  0.05520  1.0000
  C   C19       1.0  0.31897  0.49279  0.04210  1.0000
  Fe  Fe5       1.0  0.18973  0.51667  0.09100  1.0000
  C   C20       1.0  0.07532  0.43959  0.10182  1.0000
  C   C21       1.0  0.30864  0.49534  0.05948  1.0000
  C   C22       1.0  0.50145  0.05927  0.09882  1.0000
  C   C23       1.0  0.50617  0.24927  0.04791  1.0000
  C   C24       1.0  0.51776  0.51714  0.04792  1.0000
  C   C25       1.0  0.49117  0.25287  0.09979  1.0000
  H   H32       1.0  0.53410  0.32849  0.10314  1.0000
  H   H33       1.0  0.47287  0.51505  0.04182  1.0000
  S   S10       1.0  0.53400  0.35874  0.03479  1.0000
  H   H34       1.0  0.06127  0.39926  0.06221  1.0000
  H   H35       1.0  0.11387  0.51066  0.08522  1.0000
  C   C26       1.0  0.47747  0.24610  0.04230  1.0000
  C   C27       1.0  0.51904  0.05977  0.11477  1.0000
  H   H36       1.0  0.48447  0.29317  0.07407  1.0000
  H   H37       1.0  0.36228  0.52709  0.15940  1.0000
  H   H38       1.0  0.52653  0.50019  0.04797  1.0000
  N   N1        1.0  0.51948  0.28043  0.10537  1.0000
  S   S11       1.0  0.26394  0.50900  0.13773  1.0000
  H   H39       1.0  0.52460  0.25967  0.13143  1.0000
  H   H40       1.0  0.47036  0.20431  0.09878  1.0000
  H   H41       1.0  0.39196  0.40128  0.04374  1.0000
  C   C28       1.0  0.45573  0.19473  0.05327  1.0000
  C   C29       1.0  0.05279  0.39526  0.12111  1.0000
  H   H42       1.0  0.05506  0.37829  0.12983  1.0000
  C   C30       1.0  0.09930  0.51620  0.07516  1.0000
  H   H43       1.0  0.28823  0.41766  0.05160  1.0000
  H   H44       1.0  0.40436  0.45381  0.04334  1.0000
  N   N2        1.0  0.33327  0.40300  0.03616  1.0000
  H   H45       1.0  0.08970  0.49783  0.06490  1.0000
  S   S12       1.0  0.54619  0.09389  0.12453  1.0000
  H   H46       1.0  0.06768  0.51565  0.04236  1.0000
  H   H47       1.0  0.11684  0.51430  0.03479  1.0000
  C   C31       1.0  0.14534  0.48213  0.42205  1.0000
  H   H48       1.0  0.48375  0.12999  0.43839  1.0000
  H   H49       1.0  0.14923  0.52063  0.56184  1.0000
  C   C32       1.0  0.48643  0.06270  0.43572  1.0000
  H   H50       1.0  0.51716  0.05262  0.41939  1.0000
  S   S13       1.0  0.50378  0.35594  0.57710  1.0000
  H   H51       1.0  0.49305  0.29372  0.64145  1.0000
  H   H52       1.0  0.43191  0.32383  0.66136  1.0000
  H   H53       1.0  0.06779  0.47943  0.56119  1.0000
  C   C33       1.0  0.48211  0.10814  0.44342  1.0000
  S   S14       1.0  0.53569  0.08264  0.52022  1.0000
  H   H54       1.0  0.17167  0.44657  0.43592  1.0000
  H   H55       1.0  0.36885  0.50269  0.52396  1.0000
  C   C34       1.0  0.19599  0.52128  0.39596  1.0000
  C   C35       1.0  0.12165  0.46756  0.48891  1.0000
  H   H56       1.0  0.50965  0.44007  0.57248  1.0000
  C   C36       1.0  0.46424  0.08599  0.41187  1.0000
  S   S15       1.0  0.50455  0.11909  0.49601  1.0000
  H   H57       1.0  0.52088  0.15586  0.42098  1.0000
  H   H58       1.0  0.54488  0.39886  0.53934  1.0000
  S   S16       1.0  0.43415  0.46436  0.58186  1.0000
  H   H59       1.0  0.13584  0.51042  0.53092  1.0000
  S   S17       1.0  0.42688  0.49055  0.62246  1.0000
  Fe  Fe6       1.0  0.45799  0.47447  0.61012  1.0000
  S   S18       1.0  0.47779  0.44610  0.62469  1.0000
  Fe  Fe7       1.0  0.40568  0.48411  0.59341  1.0000
  S   S19       1.0  0.35572  0.46831  0.58928  1.0000
  H   H60       1.0  0.22248  0.51914  0.42008  1.0000
  Fe  Fe8       1.0  0.20134  0.48005  0.50280  1.0000
  H   H61       1.0  0.52165  0.05217  0.56992  1.0000
  S   S20       1.0  0.15651  0.43892  0.49978  1.0000
  Fe  Fe9       1.0  0.26977  0.50687  0.50954  1.0000
  S   S21       1.0  0.31349  0.50316  0.51138  1.0000
  C   C37       1.0  0.19889  0.50620  0.41453  1.0000
  H   H62       1.0  0.42679  0.04976  0.42769  1.0000
  H   H63       1.0  0.50021  0.11345  0.45451  1.0000
  S   S22       1.0  0.23113  0.48672  0.52870  1.0000
  S   S23       1.0  0.23994  0.49591  0.48336  1.0000
  C   C38       1.0  0.34436  0.47839  0.56766  1.0000
  C   C39       1.0  0.31534  0.47632  0.56528  1.0000
  C   C40       1.0  0.30583  0.48443  0.54818  1.0000
  C   C41       1.0  0.32506  0.49388  0.53322  1.0000
  C   C42       1.0  0.35407  0.49579  0.53557  1.0000
  C   C43       1.0  0.36383  0.48836  0.55281  1.0000
  H   H64       1.0  0.30004  0.46812  0.57660  1.0000
  H   H65       1.0  0.28338  0.48260  0.54646  1.0000
  H   H66       1.0  0.50590  0.38951  0.54012  1.0000
  H   H67       1.0  0.38610  0.48960  0.55447  1.0000
  H   H68       1.0  0.13545  0.49427  0.41303  1.0000
  C   C44       1.0  0.12238  0.44191  0.49668  1.0000
  H   H69       1.0  0.50469  0.29150  0.67140  1.0000
  H   H70       1.0  0.28646  0.48474  0.60519  1.0000
  H   H71       1.0  0.14228  0.48630  0.48505  1.0000
  H   H72       1.0  0.45246  0.10750  0.46476  1.0000
  H   H73       1.0  0.42714  0.34790  0.64402  1.0000
  H   H74       1.0  0.17258  0.51128  0.39003  1.0000
  C   C45       1.0  0.06690  0.44460  0.49085  1.0000
  H   H75       1.0  0.49410  0.34697  0.67852  1.0000
  C   C46       1.0  0.49733  0.38171  0.59011  1.0000
  C   C47       1.0  0.47044  0.38417  0.58685  1.0000
  C   C48       1.0  0.46464  0.40454  0.59700  1.0000
  C   C49       1.0  0.48550  0.42219  0.61072  1.0000
  C   C50       1.0  0.51240  0.41974  0.61396  1.0000
  C   C51       1.0  0.51856  0.39997  0.60345  1.0000
  H   H76       1.0  0.45396  0.37019  0.57650  1.0000
  H   H77       1.0  0.44371  0.40609  0.59455  1.0000
  H   H78       1.0  0.52869  0.43352  0.62446  1.0000
  H   H79       1.0  0.05437  0.45009  0.53097  1.0000
  H   H80       1.0  0.51103  0.48929  0.52129  1.0000
  H   H81       1.0  0.53572  0.09105  0.56543  1.0000
  C   C52       1.0  0.30010  0.48752  0.61834  1.0000
  Fe  Fe10      1.0  0.53555  0.12748  0.52148  1.0000
  C   C53       1.0  0.52349  0.14020  0.41149  1.0000
  S   S24       1.0  0.53412  0.14675  0.54930  1.0000
  C   C54       1.0  0.18620  0.49222  0.44686  1.0000
  C   C55       1.0  0.51016  0.31332  0.67779  1.0000
  H   H82       1.0  0.07686  0.45232  0.57236  1.0000
  H   H83       1.0  0.10247  0.47972  0.52295  1.0000
  N   N3        1.0  0.10975  0.48063  0.55285  1.0000
  C   C56       1.0  0.12175  0.45800  0.55068  1.0000
  C   C57       1.0  0.09620  0.51671  0.53217  1.0000
  C   C58       1.0  0.12900  0.50236  0.56787  1.0000
  H   H84       1.0  0.41533  0.06504  0.40801  1.0000
  H   H85       1.0  0.52411  0.09817  0.41044  1.0000
  H   H86       1.0  0.09763  0.50054  0.58914  1.0000
  H   H87       1.0  0.46503  0.28492  0.61140  1.0000
  S   S25       1.0  0.53474  0.29843  0.58897  1.0000
  H   H88       1.0  0.50888  0.13703  0.39873  1.0000
  H   H89       1.0  0.46482  0.04800  0.44203  1.0000
  H   H90       1.0  0.09920  0.52605  0.51774  1.0000
  H   H91       1.0  0.54606  0.33828  0.51904  1.0000
  H   H92       1.0  0.13804  0.49124  0.57839  1.0000
  H   H93       1.0  0.35399  0.52176  0.60186  1.0000
  H   H94       1.0  0.54275  0.18811  0.51854  1.0000
  C   C59       1.0  0.51814  0.11020  0.42102  1.0000
  H   H95       1.0  0.17058  0.48722  0.55640  1.0000
  H   H96       1.0  0.11859  0.44419  0.56363  1.0000
  S   S26       1.0  0.20135  0.52441  0.50427  1.0000
  H   H97       1.0  0.09354  0.48838  0.47939  1.0000
  H   H98       1.0  0.09561  0.39773  0.50758  1.0000
  H   H99       1.0  0.12723  0.44743  0.44412  1.0000
  Fe  Fe11      1.0  0.46598  0.51188  0.57514  1.0000
  H   H100      1.0  0.52249  0.35960  0.62912  1.0000
  C   C60       1.0  0.53535  0.47411  0.55105  1.0000
  H   H101      1.0  0.14583  0.46485  0.41280  1.0000
  H   H102      1.0  0.46089  0.31840  0.61292  1.0000
  Fe  Fe12      1.0  0.54743  0.14059  0.48039  1.0000
  H   H103      1.0  0.09955  0.45247  0.42979  1.0000
  C   C61       1.0  0.11195  0.49635  0.53430  1.0000
  C   C62       1.0  0.49276  0.04335  0.42188  1.0000
  H   H104      1.0  0.18858  0.45273  0.45900  1.0000
  C   C63       1.0  0.46777  0.45016  0.54353  1.0000
  H   H105      1.0  0.10925  0.44205  0.53928  1.0000
  H   H106      1.0  0.53534  0.11524  0.43271  1.0000
  N   N4        1.0  0.49036  0.33383  0.64954  1.0000
  C   C64       1.0  0.52219  0.35303  0.64403  1.0000
  C   C65       1.0  0.47825  0.30494  0.63893  1.0000
  C   C66       1.0  0.48913  0.32677  0.67017  1.0000
  C   C67       1.0  0.47202  0.35060  0.64499  1.0000
  H   H107      1.0  0.06042  0.42112  0.54359  1.0000
  C   C68       1.0  0.47537  0.30763  0.61750  1.0000
  H   H108      1.0  0.50328  0.06774  0.44753  1.0000
  C   C69       1.0  0.43775  0.33273  0.64702  1.0000
  C   C70       1.0  0.15528  0.47090  0.54598  1.0000
  C   C71       1.0  0.11404  0.51706  0.57963  1.0000
  H   H109      1.0  0.54195  0.37864  0.67004  1.0000
  H   H110      1.0  0.45590  0.28878  0.64395  1.0000
  C   C72       1.0  0.12208  0.46459  0.43685  1.0000
  H   H111      1.0  0.46601  0.31042  0.67382  1.0000
  H   H112      1.0  0.47934  0.37044  0.65412  1.0000
  H   H113      1.0  0.47573  0.35983  0.63051  1.0000
  C   C73       1.0  0.09527  0.41774  0.50167  1.0000
  H   H114      1.0  0.52897  0.39776  0.65260  1.0000
  H   H115      1.0  0.29072  0.52078  0.63043  1.0000
  N   N5        1.0  0.51903  0.45384  0.53482  1.0000
  H   H116      1.0  0.50724  0.30924  0.69304  1.0000
  H   H117      1.0  0.52739  0.42612  0.51549  1.0000
  H   H118      1.0  0.47501  0.42062  0.52534  1.0000
  Fe  Fe13      1.0  0.50879  0.07629  0.49331  1.0000
  H   H119      1.0  0.46042  0.10617  0.40946  1.0000
  N   N6        1.0  0.48687  0.09120  0.42787  1.0000
  H   H120      1.0  0.44787  0.07123  0.45969  1.0000
  H   H121      1.0  0.47797  0.46438  0.55594  1.0000
  H   H122      1.0  0.10289  0.52830  0.57116  1.0000
  H   H123      1.0  0.53974  0.39895  0.60565  1.0000
  H   H124      1.0  0.48299  0.41687  0.54906  1.0000
  C   C74       1.0  0.48624  0.43396  0.53807  1.0000
  H   H125      1.0  0.15929  0.48119  0.53187  1.0000
  H   H126      1.0  0.19695  0.48397  0.41077  1.0000
  C   C75       1.0  0.07766  0.46395  0.55874  1.0000
  H   H127      1.0  0.13783  0.52685  0.44583  1.0000
  H   H128      1.0  0.47351  0.08286  0.39870  1.0000
  H   H129      1.0  0.32338  0.51960  0.64010  1.0000
  H   H130      1.0  0.43286  0.09082  0.44362  1.0000
  H   H131      1.0  0.52924  0.47653  0.58083  1.0000
  C   C76       1.0  0.54535  0.18551  0.54855  1.0000
  H   H132      1.0  0.49770  0.31977  0.61136  1.0000
  H   H133      1.0  0.42747  0.31428  0.63684  1.0000
  H   H134      1.0  0.46479  0.46377  0.53186  1.0000
  C   C77       1.0  0.53066  0.46054  0.57094  1.0000
  C   C78       1.0  0.45193  0.09299  0.45317  1.0000
  H   H135      1.0  0.53266  0.41352  0.55752  1.0000
  H   H136      1.0  0.52989  0.49343  0.55130  1.0000
  H   H137      1.0  0.21190  0.46820  0.43943  1.0000
  H   H138      1.0  0.44490  0.43331  0.54722  1.0000
  C   C79       1.0  0.09399  0.46867  0.48571  1.0000
  C   C80       1.0  0.18966  0.46323  0.44499  1.0000
  H   H139      1.0  0.28540  0.47077  0.62847  1.0000
  H   H140      1.0  0.50586  0.45970  0.50619  1.0000
  H   H141      1.0  0.16176  0.45233  0.54571  1.0000
  Fe  Fe14      1.0  0.54302  0.34609  0.58520  1.0000
  C   C81       1.0  0.53441  0.43504  0.52992  1.0000
  C   C82       1.0  0.54814  0.20046  0.53144  1.0000
  C   C83       1.0  0.43303  0.05868  0.41345  1.0000
  C   C84       1.0  0.54073  0.07420  0.57322  1.0000
  H   H142      1.0  0.11990  0.47896  0.44745  1.0000
  H   H143      1.0  0.17027  0.48817  0.45811  1.0000
  C   C85       1.0  0.31114  0.51899  0.62652  1.0000
  H   H144      1.0  0.20811  0.50973  0.45246  1.0000
  C   C86       1.0  0.52026  0.47339  0.51807  1.0000
  H   H145      1.0  0.21042  0.51842  0.38559  1.0000
  H   H146      1.0  0.31892  0.48194  0.61608  1.0000
  N   N7        1.0  0.17673  0.50321  0.42913  1.0000
  C   C87       1.0  0.06768  0.41922  0.49904  1.0000
  C   C88       1.0  0.52888  0.40785  0.54258  1.0000
  H   H147      1.0  0.43123  0.04033  0.40434  1.0000
  H   H148      1.0  0.53429  0.32854  0.67600  1.0000
  C   C89       1.0  0.53947  0.38242  0.65488  1.0000
  H   H149      1.0  0.07163  0.50432  0.53387  1.0000
  H   H150      1.0  0.54077  0.07751  0.58844  1.0000
  H   H151      1.0  0.47999  0.04047  0.40839  1.0000
  S   S27       1.0  0.47476  0.03206  0.48118  1.0000
  H   H152      1.0  0.54563  0.26676  0.67643  1.0000
  S   S28       1.0  0.49171  0.52072  0.60250  1.0000
  H   H153      1.0  0.54716  0.15161  0.40709  1.0000
  H   H154      1.0  0.53580  0.34036  0.64511  1.0000
  H   H155      1.0  0.31423  0.52520  0.58659  1.0000
  C   C90       1.0  0.05545  0.44047  0.54495  1.0000
  S   S29       1.0  0.54927  0.09748  0.47561  1.0000
  H   H156      1.0  0.25114  0.45049  0.02023  1.0000
  S   S30       1.0  0.50836  0.33384  0.99193  1.0000
  H   H157      1.0  0.51188  0.24718  0.00951  1.0000
  H   H158      1.0  0.53508  0.26218  0.99008  1.0000
  C   C91       1.0  0.48807  0.24315  0.98296  1.0000
  S   S31       1.0  0.42166  0.50664  0.96808  1.0000
  H   H159      1.0  0.46991  0.22124  0.97882  1.0000
  H   H160      1.0  0.48233  0.49198  0.02683  1.0000
  Fe  Fe15      1.0  0.51137  0.31460  0.02028  1.0000
  Fe  Fe16      1.0  0.40239  0.47202  0.99077  1.0000
  C   C92       1.0  0.53446  0.22278  0.95970  1.0000
  S   S32       1.0  0.40460  0.42776  0.99467  1.0000
  N   N8        1.0  0.51932  0.21474  0.99411  1.0000
  H   H161      1.0  0.51527  0.47014  0.99467  1.0000
  C   C93       1.0  0.51465  0.24250  0.99486  1.0000
  Fe  Fe17      1.0  0.37855  0.51094  0.96872  1.0000
  S   S33       1.0  0.35728  0.47310  0.98929  1.0000
  H   H162      1.0  0.45808  0.19676  0.00691  1.0000
  H   H163      1.0  0.47745  0.25424  0.99111  1.0000
  H   H164      1.0  0.46659  0.47324  0.99162  1.0000
  H   H165      1.0  0.41945  0.37896  0.00203  1.0000
  C   C94       1.0  0.49506  0.42282  0.00016  1.0000
  C   C95       1.0  0.46788  0.39715  0.00222  1.0000
  C   C96       1.0  0.44035  0.39897  0.00056  1.0000
  C   C97       1.0  0.43970  0.42642  0.99680  1.0000
  C   C98       1.0  0.46687  0.45211  0.99480  1.0000
  C   C99       1.0  0.49440  0.45030  0.99651  1.0000
  H   H166      1.0  0.46806  0.37586  0.00499  1.0000
  Fe  Fe18      1.0  0.37728  0.50822  0.01131  1.0000
  H   H167      1.0  0.50395  0.19957  0.02199  1.0000
  H   H168      1.0  0.49743  0.52505  0.00448  1.0000
  H   H169      1.0  0.09147  0.50899  0.01524  1.0000
  S   S34       1.0  0.53030  0.42173  0.00216  1.0000
  H   H170      1.0  0.30604  0.47392  0.01457  1.0000
  H   H171      1.0  0.50466  0.17155  0.00771  1.0000
  H   H172      1.0  0.49052  0.19454  0.96945  1.0000
  H   H173      1.0  0.52553  0.21317  0.94568  1.0000
  C   C100      1.0  0.51399  0.20186  0.97475  1.0000
  H   H174      1.0  0.34684  0.45007  0.03108  1.0000
  H   H175      1.0  0.53543  0.24534  0.95977  1.0000
  H   H176      1.0  0.29616  0.39659  0.99223  1.0000
  C   C101      1.0  0.46531  0.17925  0.00424  1.0000
  C   C102      1.0  0.29826  0.47608  0.02802  1.0000
  H   H177      1.0  0.45717  0.16939  0.99024  1.0000
  C   C103      1.0  0.49952  0.19109  0.00749  1.0000
  H   H178      1.0  0.45389  0.16117  0.01460  1.0000
  H   H179      1.0  0.36879  0.43623  0.02022  1.0000
  H   H180      1.0  0.33577  0.41090  0.99717  1.0000
  S   S35       1.0  0.42081  0.50480  0.01412  1.0000
  H   H181      1.0  0.49642  0.25742  0.97033  1.0000
  H   H182      1.0  0.29343  0.52135  0.96276  1.0000
  H   H183      1.0  0.29394  0.51930  0.93783  1.0000
  H   H184      1.0  0.52470  0.52526  0.98912  1.0000
  H   H185      1.0  0.51708  0.18109  0.97498  1.0000
  H   H186      1.0  0.31159  0.37145  0.99900  1.0000
  C   C104      1.0  0.31345  0.39402  0.00151  1.0000
  Fe  Fe19      1.0  0.53441  0.37830  0.00606  1.0000
  S   S36       1.0  0.47175  0.27552  0.03195  1.0000
  H   H187      1.0  0.35426  0.38363  0.01857  1.0000
  C   C105      1.0  0.30759  0.39738  0.02208  1.0000
  C   C106      1.0  0.26724  0.46283  0.03124  1.0000
  H   H188      1.0  0.23199  0.50674  0.01462  1.0000
  H   H189      1.0  0.26425  0.52368  0.94903  1.0000
  S   S37       1.0  0.35484  0.51886  0.94304  1.0000
  H   H190      1.0  0.54187  0.51327  0.01813  1.0000
  H   H191      1.0  0.28713  0.37668  0.02569  1.0000
  H   H192      1.0  0.30067  0.41570  0.02224  1.0000
  C   C107      1.0  0.35720  0.43451  0.03334  1.0000
  C   C108      1.0  0.34502  0.38052  0.03275  1.0000
  H   H193      1.0  0.26288  0.52821  0.00029  1.0000
  C   C109      1.0  0.10615  0.52556  0.02577  1.0000
  H   H194      1.0  0.32627  0.35745  0.03315  1.0000
  H   H195      1.0  0.28095  0.52324  0.03241  1.0000
  H   H196      1.0  0.31515  0.58640  0.07688  1.0000
  C   C110      1.0  0.12589  0.58654  0.04351  1.0000
  H   H197      1.0  0.49569  0.77383  0.29521  1.0000
  H   H198      1.0  0.16486  0.61224  0.06226  1.0000
  H   H199      1.0  0.13094  0.61262  0.06935  1.0000
  C   C111      1.0  0.07969  0.56359  0.06216  1.0000
  H   H200      1.0  0.45075  0.79341  0.13793  1.0000
  H   H201      1.0  0.08878  0.57427  0.07594  1.0000
  H   H202      1.0  0.22728  0.55152  0.25457  1.0000
  C   C112      1.0  0.14357  0.61260  0.05710  1.0000
  H   H203      1.0  0.25460  0.55953  0.19228  1.0000
  C   C113      1.0  0.25516  0.57576  0.20274  1.0000
  C   C114      1.0  0.27806  0.76885  0.04286  1.0000
  H   H204      1.0  0.39739  0.55886  0.15602  1.0000
  H   H205      1.0  0.34420  0.59440  0.25653  1.0000
  H   H206      1.0  0.30679  0.56673  0.25170  1.0000
  H   H207      1.0  0.47204  0.70082  0.32525  1.0000
  H   H208      1.0  0.44093  0.78048  0.33554  1.0000
  S   S38       1.0  0.18998  0.56022  0.08318  1.0000
  H   H209      1.0  0.26426  0.56330  0.26541  1.0000
  C   C115      1.0  0.26265  0.56323  0.14160  1.0000
  C   C116      1.0  0.27304  0.59181  0.14934  1.0000
  C   C117      1.0  0.29727  0.60241  0.16250  1.0000
  C   C118      1.0  0.29989  0.55518  0.16067  1.0000
  C   C119      1.0  0.36988  0.55877  0.09178  1.0000
  H   H210      1.0  0.26230  0.60577  0.14504  1.0000
  C   C120      1.0  0.19889  0.56822  0.05977  1.0000
  C   C121      1.0  0.19023  0.54521  0.04677  1.0000
  H   H211      1.0  0.44351  0.63888  0.11906  1.0000
  N   N9        1.0  0.28751  0.60584  0.23115  1.0000
  H   H212      1.0  0.48952  0.78773  0.35658  1.0000
  H   H213      1.0  0.40861  0.74545  0.33712  1.0000
  H   H214      1.0  0.24063  0.59380  0.23635  1.0000
  C   C122      1.0  0.31639  0.61284  0.24241  1.0000
  H   H215      1.0  0.29614  0.54684  0.07255  1.0000
  C   C123      1.0  0.26089  0.59348  0.24353  1.0000
  N   N10       1.0  0.29384  0.79212  0.12164  1.0000
  C   C124      1.0  0.31270  0.81742  0.10886  1.0000
  C   C125      1.0  0.31070  0.77424  0.12727  1.0000
  C   C126      1.0  0.26301  0.77230  0.11324  1.0000
  C   C127      1.0  0.27510  0.78461  0.15545  1.0000
  C   C128      1.0  0.29948  0.83922  0.10306  1.0000
  C   C129      1.0  0.31908  0.75939  0.11156  1.0000
  C   C130      1.0  0.26090  0.76526  0.09218  1.0000
  H   H216      1.0  0.27627  0.81829  0.13602  1.0000
  H   H217      1.0  0.31759  0.80951  0.09582  1.0000
  H   H218      1.0  0.29749  0.75566  0.13692  1.0000
  H   H219      1.0  0.25281  0.75060  0.12091  1.0000
  H   H220      1.0  0.24755  0.78267  0.11495  1.0000
  H   H221      1.0  0.25374  0.76537  0.15103  1.0000
  H   H222      1.0  0.30161  0.85426  0.11471  1.0000
  H   H223      1.0  0.27572  0.82758  0.09793  1.0000
  H   H224      1.0  0.29889  0.74155  0.10464  1.0000
  H   H225      1.0  0.33248  0.74833  0.11783  1.0000
  H   H226      1.0  0.33352  0.77572  0.10126  1.0000
  H   H227      1.0  0.24462  0.74153  0.08980  1.0000
  H   H228      1.0  0.28205  0.76829  0.08623  1.0000
  H   H229      1.0  0.25171  0.77862  0.08385  1.0000
  H   H230      1.0  0.25461  0.59473  0.19463  1.0000
  H   H231      1.0  0.08353  0.60561  0.04886  1.0000
  C   C131      1.0  0.28781  0.74799  0.04959  1.0000
  C   C132      1.0  0.28983  0.63473  0.22263  1.0000
  H   H232      1.0  0.31615  0.62220  0.25628  1.0000
  H   H233      1.0  0.36021  0.53495  0.09606  1.0000
  C   C133      1.0  0.42705  0.61927  0.11104  1.0000
  H   H234      1.0  0.26864  0.63133  0.21485  1.0000
  C   C134      1.0  0.47361  0.75389  0.14292  1.0000
  H   H235      1.0  0.22062  0.61575  0.06393  1.0000
  H   H236      1.0  0.26519  0.60827  0.25573  1.0000
  C   C135      1.0  0.21334  0.59792  0.05387  1.0000
  N   N11       1.0  0.53755  0.54451  0.03692  1.0000
  C   C136      1.0  0.29688  0.66043  0.23637  1.0000
  H   H237      1.0  0.30763  0.64338  0.21214  1.0000
  H   H238      1.0  0.27866  0.65509  0.24625  1.0000
  C   C137      1.0  0.30022  0.56913  0.06680  1.0000
  C   C138      1.0  0.11886  0.54652  0.06589  1.0000
  H   H239      1.0  0.28742  0.63687  0.03504  1.0000
  C   C139      1.0  0.49622  0.78391  0.15156  1.0000
  C   C140      1.0  0.21842  0.60466  0.03493  1.0000
  S   S39       1.0  0.26527  0.70951  0.04660  1.0000
  Fe  Fe20      1.0  0.38274  0.86367  0.08202  1.0000
  S   S40       1.0  0.39484  0.83496  0.10177  1.0000
  S   S41       1.0  0.34603  0.84775  0.05921  1.0000
  Fe  Fe21      1.0  0.39843  0.86748  0.12368  1.0000
  S   S42       1.0  0.37506  0.84377  0.14963  1.0000
  S   S43       1.0  0.38234  0.89403  0.10429  1.0000
  H   H240      1.0  0.06027  0.54202  0.06564  1.0000
  S   S44       1.0  0.35063  0.69505  0.32325  1.0000
  Fe  Fe22      1.0  0.35529  0.65991  0.18677  1.0000
  S   S45       1.0  0.37669  0.63362  0.20115  1.0000
  S   S46       1.0  0.30921  0.63808  0.17237  1.0000
  Fe  Fe23      1.0  0.39424  0.67001  0.22261  1.0000
  S   S47       1.0  0.39522  0.65443  0.25264  1.0000
  S   S48       1.0  0.36938  0.69450  0.20948  1.0000
  S   S49       1.0  0.39461  0.68660  0.16917  1.0000
  C   C141      1.0  0.36024  0.68132  0.30345  1.0000
  C   C142      1.0  0.36958  0.65877  0.30493  1.0000
  C   C143      1.0  0.37992  0.65058  0.28916  1.0000
  C   C144      1.0  0.38079  0.66464  0.27178  1.0000
  C   C145      1.0  0.37065  0.68658  0.27017  1.0000
  C   C146      1.0  0.36024  0.69473  0.28593  1.0000
  H   H241      1.0  0.36942  0.64807  0.31829  1.0000
  H   H242      1.0  0.38760  0.63346  0.29048  1.0000
  H   H243      1.0  0.37147  0.69773  0.25690  1.0000
  H   H244      1.0  0.35303  0.71219  0.28468  1.0000
  C   C147      1.0  0.31079  0.58403  0.16804  1.0000
  H   H245      1.0  0.32930  0.59171  0.17821  1.0000
  H   H246      1.0  0.46447  0.97893  0.05018  1.0000
  H   H247      1.0  0.48742  0.78341  0.32471  1.0000
  H   H248      1.0  0.37386  0.60389  0.14977  1.0000
  C   C148      1.0  0.32396  0.80929  0.05577  1.0000
  C   C149      1.0  0.33386  0.78847  0.06231  1.0000
  C   C150      1.0  0.31570  0.75786  0.05935  1.0000
  H   H249      1.0  0.35553  0.79597  0.06959  1.0000
  H   H250      1.0  0.32328  0.74176  0.06459  1.0000
  C   C151      1.0  0.39201  0.82241  0.15999  1.0000
  C   C152      1.0  0.38794  0.77724  0.17617  1.0000
  C   C153      1.0  0.37437  0.79454  0.16821  1.0000
  H   H251      1.0  0.37428  0.75562  0.18228  1.0000
  H   H252      1.0  0.35023  0.78625  0.16835  1.0000
  H   H253      1.0  0.33590  0.63056  0.23528  1.0000
  H   H254      1.0  0.36052  0.55946  0.07747  1.0000
  H   H255      1.0  0.47118  0.73009  0.35621  1.0000
  H   H256      1.0  0.37412  0.63761  0.11318  1.0000
  H   H257      1.0  0.33320  0.58171  0.23317  1.0000
  H   H258      1.0  0.43836  0.59749  0.04867  1.0000
  H   H259      1.0  0.24416  0.55541  0.13131  1.0000
  H   H260      1.0  0.45294  0.77878  0.36579  1.0000
  C   C154      1.0  0.30048  0.62373  0.03679  1.0000
  H   H261      1.0  0.43625  0.66929  0.32122  1.0000
  H   H262      1.0  0.53191  0.73329  0.15917  1.0000
  C   C155      1.0  0.29008  0.80614  0.13911  1.0000
  H   H263      1.0  0.31221  0.82333  0.14466  1.0000
  H   H264      1.0  0.33530  0.83091  0.11558  1.0000
  H   H265      1.0  0.33201  0.78854  0.13508  1.0000
  H   H266      1.0  0.26977  0.79687  0.16622  1.0000
  H   H267      1.0  0.29069  0.77664  0.16242  1.0000
  H   H268      1.0  0.31257  0.85379  0.09150  1.0000
  H   H269      1.0  0.41497  0.57491  0.12187  1.0000
  C   C156      1.0  0.32511  0.58710  0.24605  1.0000
  N   N12       1.0  0.10278  0.55822  0.05210  1.0000
  C   C157      1.0  0.48180  0.63346  0.04312  1.0000
  H   H270      1.0  0.50745  0.91328  0.03977  1.0000
  H   H271      1.0  0.26087  0.58237  0.04072  1.0000
  H   H272      1.0  0.30363  0.59616  0.20603  1.0000
  H   H273      1.0  0.47273  0.91453  0.04230  1.0000
  H   H274      1.0  0.54523  0.79633  0.09652  1.0000
  H   H275      1.0  0.23454  0.56438  0.21082  1.0000
  H   H276      1.0  0.41876  0.60102  0.13892  1.0000
  C   C158      1.0  0.28410  0.58538  0.21521  1.0000
  H   H277      1.0  0.51611  0.84784  0.06469  1.0000
  H   H278      1.0  0.40336  0.64723  0.13170  1.0000
  H   H279      1.0  0.41051  0.69917  0.33263  1.0000
  H   H280      1.0  0.43459  0.72578  0.36021  1.0000
  C   C159      1.0  0.37268  0.55071  0.15453  1.0000
  N   N13       1.0  0.37537  0.58198  0.12437  1.0000
  C   C160      1.0  0.36117  0.57737  0.10488  1.0000
  C   C161      1.0  0.36641  0.60233  0.13481  1.0000
  H   H281      1.0  0.13005  0.56271  0.07742  1.0000
  H   H282      1.0  0.34143  0.59315  0.13449  1.0000
  H   H283      1.0  0.45918  0.74003  0.15436  1.0000
  Fe  Fe24      1.0  0.53295  0.66917  0.07418  1.0000
  H   H284      1.0  0.48478  0.79460  0.15918  1.0000
  H   H285      1.0  0.36791  0.64606  0.13593  1.0000
  C   C162      1.0  0.25173  0.56205  0.25193  1.0000
  C   C163      1.0  0.37894  0.63502  0.12815  1.0000
  C   C164      1.0  0.53242  0.69556  0.14572  1.0000
  C   C165      1.0  0.29616  0.79944  0.04593  1.0000
  H   H286      1.0  0.14904  0.63415  0.04973  1.0000
  Fe  Fe25      1.0  0.43148  0.92230  0.09886  1.0000
  S   S50       1.0  0.44765  0.89830  0.12042  1.0000
  S   S51       1.0  0.44896  0.97091  0.08949  1.0000
  Fe  Fe26      1.0  0.44264  0.86727  0.09715  1.0000
  S   S52       1.0  0.47641  0.85034  0.09182  1.0000
  S   S53       1.0  0.43042  0.89328  0.07524  1.0000
  S   S54       1.0  0.48482  0.65145  0.06413  1.0000
  C   C166      1.0  0.54514  0.96923  0.04352  1.0000
  H   H287      1.0  0.49093  0.98424  0.12220  1.0000
  C   C167      1.0  0.43598  0.77044  0.13296  1.0000
  Fe  Fe27      1.0  0.41101  0.71876  0.19291  1.0000
  S   S55       1.0  0.43704  0.69674  0.20763  1.0000
  S   S56       1.0  0.43748  0.76769  0.18621  1.0000
  Fe  Fe28      1.0  0.41721  0.66271  0.18506  1.0000
  S   S57       1.0  0.43900  0.64055  0.16870  1.0000
  H   H288      1.0  0.43356  0.68553  0.10707  1.0000
  C   C168      1.0  0.48820  0.64838  0.14994  1.0000
  C   C169      1.0  0.47512  0.66238  0.16036  1.0000
  H   H289      1.0  0.47640  0.62458  0.14760  1.0000
  H   H290      1.0  0.48104  0.70396  0.17197  1.0000
  H   H291      1.0  0.50392  0.93405  0.09121  1.0000
  C   C170      1.0  0.31526  0.57448  0.04775  1.0000
  H   H292      1.0  0.36614  0.59866  0.09752  1.0000
  C   C171      1.0  0.44835  0.69010  0.32944  1.0000
  C   C172      1.0  0.42322  0.83313  0.16008  1.0000
  C   C173      1.0  0.43682  0.81651  0.16876  1.0000
  C   C174      1.0  0.41927  0.78839  0.17659  1.0000
  H   H293      1.0  0.43699  0.85472  0.15398  1.0000
  H   H294      1.0  0.46107  0.82545  0.16926  1.0000
  C   C175      1.0  0.44352  0.83664  0.05895  1.0000
  C   C176      1.0  0.47110  0.84235  0.06800  1.0000
  H   H295      1.0  0.42646  0.70902  0.31066  1.0000
  H   H296      1.0  0.42479  0.83467  0.06688  1.0000
  C   C177      1.0  0.47610  0.00459  0.09973  1.0000
  C   C178      1.0  0.49385  0.00502  0.11560  1.0000
  H   H297      1.0  0.30991  0.54079  0.16536  1.0000
  H   H298      1.0  0.29889  0.68047  0.22827  1.0000
  H   H299      1.0  0.46959  0.71731  0.10713  1.0000
  C   C179      1.0  0.40908  0.59342  0.12466  1.0000
  H   H300      1.0  0.53832  0.94566  0.07967  1.0000
  C   C180      1.0  0.46130  0.76787  0.09075  1.0000
  H   H301      1.0  0.49483  0.76963  0.11103  1.0000
  C   C181      1.0  0.46988  0.77049  0.36365  1.0000
  C   C182      1.0  0.52038  0.57914  0.05370  1.0000
  H   H302      1.0  0.51092  0.79973  0.14110  1.0000
  H   H303      1.0  0.13742  0.54437  0.05921  1.0000
  Fe  Fe29      1.0  0.35382  0.68024  0.35331  1.0000
  H   H304      1.0  0.46660  0.75123  0.08395  1.0000
  H   H305      1.0  0.30799  0.62535  0.05172  1.0000
  H   H306      1.0  0.31863  0.66696  0.24421  1.0000
  H   H307      1.0  0.44089  0.77896  0.30187  1.0000
  C   C183      1.0  0.49147  0.84108  0.03827  1.0000
  C   C184      1.0  0.42990  0.75768  0.32958  1.0000
  H   H308      1.0  0.43696  0.76139  0.08921  1.0000
  H   H309      1.0  0.33513  0.59682  0.04784  1.0000
  N   N14       1.0  0.44967  0.74200  0.33242  1.0000
  H   H310      1.0  0.41856  0.72334  0.10856  1.0000
  H   H311      1.0  0.50674  0.56126  0.06352  1.0000
  H   H312      1.0  0.44049  0.61261  0.10193  1.0000
  C   C185      1.0  0.48007  0.75280  0.30213  1.0000
  H   H313      1.0  0.48325  0.79827  0.11362  1.0000
  H   H314      1.0  0.39452  0.56766  0.09063  1.0000
  C   C186      1.0  0.41387  0.77423  0.11860  1.0000
  C   C187      1.0  0.27602  0.54479  0.14729  1.0000
  C   C188      1.0  0.52479  0.56685  0.03520  1.0000
  C   C189      1.0  0.43373  0.72414  0.12058  1.0000
  H   H315      1.0  0.25646  0.76137  0.03545  1.0000
  H   H316      1.0  0.45609  0.69582  0.12826  1.0000
  H   H317      1.0  0.51097  0.77958  0.16213  1.0000
  C   C190      1.0  0.43252  0.71027  0.32577  1.0000
  H   H318      1.0  0.28477  0.56445  0.22004  1.0000
  H   H319      1.0  0.47266  0.78866  0.08239  1.0000
  H   H320      1.0  0.45837  0.74491  0.29415  1.0000
  H   H321      1.0  0.40081  0.78366  0.12589  1.0000
  C   C191      1.0  0.42121  0.76234  0.30928  1.0000
  C   C192      1.0  0.44946  0.70492  0.11547  1.0000
  H   H322      1.0  0.48741  0.74261  0.13911  1.0000
  H   H323      1.0  0.40449  0.77143  0.30939  1.0000
  H   H324      1.0  0.48973  0.73689  0.30032  1.0000
  H   H325      1.0  0.27848  0.57029  0.06628  1.0000
  N   N15       1.0  0.45445  0.75573  0.12634  1.0000
  C   C193      1.0  0.47472  0.77392  0.11101  1.0000
  H   H326      1.0  0.42600  0.79069  0.10759  1.0000
  H   H327      1.0  0.41030  0.74134  0.30136  1.0000
  C   C194      1.0  0.47931  0.75892  0.32313  1.0000
  H   H328      1.0  0.41346  0.62700  0.10184  1.0000
  H   H329      1.0  0.47967  0.94764  0.06611  1.0000
  H   H330      1.0  0.28844  0.81551  0.04083  1.0000
  H   H331      1.0  0.41824  0.71215  0.13199  1.0000
  C   C195      1.0  0.44024  0.83423  0.03951  1.0000
  C   C196      1.0  0.36173  0.55185  0.13407  1.0000
  C   C197      1.0  0.51666  0.66487  0.14267  1.0000
  C   C198      1.0  0.49087  0.69309  0.16369  1.0000
  C   C199      1.0  0.51963  0.70964  0.15646  1.0000
  H   H332      1.0  0.52670  0.65353  0.13520  1.0000
  H   H333      1.0  0.51450  0.97882  0.07091  1.0000
  H   H334      1.0  0.42269  0.75786  0.14510  1.0000
  H   H335      1.0  0.25451  0.54648  0.24250  1.0000
  S   S58       1.0  0.54430  0.65038  0.10027  1.0000
  C   C200      1.0  0.49483  0.84368  0.05774  1.0000
  H   H336      1.0  0.25570  0.53415  0.04224  1.0000
  H   H337      1.0  0.51579  0.00256  0.04093  1.0000
  H   H338      1.0  0.49683  0.75366  0.33028  1.0000
  C   C201      1.0  0.45573  0.74049  0.35320  1.0000
  H   H339      1.0  0.39726  0.75286  0.11246  1.0000
  H   H340      1.0  0.50809  0.59271  0.05065  1.0000
  H   H341      1.0  0.36548  0.56292  0.16422  1.0000
  H   H342      1.0  0.05507  0.57205  0.03800  1.0000
  H   H343      1.0  0.33612  0.56622  0.10549  1.0000
  H   H344      1.0  0.54216  0.59439  0.06055  1.0000
  S   S59       1.0  0.37628  0.65223  0.36430  1.0000
  C   C202      1.0  0.06633  0.58240  0.05142  1.0000
  C   C203      1.0  0.50422  0.95613  0.06460  1.0000
  H   H345      1.0  0.33669  0.54251  0.13396  1.0000
  N   N16       1.0  0.51150  0.95771  0.04425  1.0000
  H   H346      1.0  0.54144  0.77233  0.12786  1.0000
  C   C204      1.0  0.45673  0.60640  0.03923  1.0000
  H   H347      1.0  0.44737  0.68318  0.34436  1.0000
  H   H348      1.0  0.36642  0.53538  0.12656  1.0000
  H   H349      1.0  0.50475  0.91296  0.07182  1.0000
  H   H350      1.0  0.32532  0.55859  0.04742  1.0000
  C   C205      1.0  0.51358  0.93595  0.07729  1.0000
  C   C206      1.0  0.08664  0.53596  0.03681  1.0000
  H   H351      1.0  0.14342  0.58237  0.03683  1.0000
  C   C207      1.0  0.46879  0.97274  0.03628  1.0000
  C   C208      1.0  0.49515  0.92678  0.03603  1.0000
  C   C209      1.0  0.50224  0.97993  0.03489  1.0000
  Fe  Fe30      1.0  0.51908  0.68736  0.48942  1.0000
  S   S60       1.0  0.47450  0.58157  0.62472  1.0000
  H   H352      1.0  0.51087  0.84102  0.67166  1.0000
  C   C210      1.0  0.48230  0.76162  0.50809  1.0000
  H   H353      1.0  0.32810  0.70634  0.62655  1.0000
  H   H354      1.0  0.39622  0.55232  0.55899  1.0000
  S   S61       1.0  0.47123  0.66542  0.47769  1.0000
  Fe  Fe31      1.0  0.39637  0.68659  0.38694  1.0000
  S   S62       1.0  0.35881  0.66357  0.40622  1.0000
  S   S63       1.0  0.44490  0.70742  0.39756  1.0000
  Fe  Fe32      1.0  0.33797  0.69078  0.39240  1.0000
  S   S64       1.0  0.31560  0.70873  0.41185  1.0000
  Fe  Fe33      1.0  0.33661  0.63155  0.38290  1.0000
  S   S65       1.0  0.31335  0.58346  0.39195  1.0000
  Fe  Fe34      1.0  0.39490  0.86622  0.51647  1.0000
  S   S66       1.0  0.43007  0.85794  0.50293  1.0000
  S   S67       1.0  0.40836  0.91221  0.52840  1.0000
  Fe  Fe35      1.0  0.34937  0.80012  0.51543  1.0000
  S   S68       1.0  0.38166  0.78727  0.50184  1.0000
  S   S69       1.0  0.30558  0.75904  0.52066  1.0000
  Fe  Fe36      1.0  0.41598  0.81827  0.52201  1.0000
  S   S70       1.0  0.45049  0.80639  0.53604  1.0000
  Fe  Fe37      1.0  0.39254  0.82763  0.48386  1.0000
  S   S71       1.0  0.40458  0.82622  0.45422  1.0000
  S   S72       1.0  0.38339  0.82821  0.53728  1.0000
  S   S73       1.0  0.35764  0.83881  0.49563  1.0000
  H   H355      1.0  0.16888  0.56199  0.44998  1.0000
  C   C211      1.0  0.29686  0.67387  0.58384  1.0000
  H   H356      1.0  0.31998  0.72433  0.56082  1.0000
  H   H357      1.0  0.47642  0.69143  0.59871  1.0000
  Fe  Fe38      1.0  0.13776  0.65479  0.61722  1.0000
  S   S74       1.0  0.14517  0.61487  0.61154  1.0000
  S   S75       1.0  0.09809  0.64723  0.63448  1.0000
  Fe  Fe39      1.0  0.19397  0.69745  0.59727  1.0000
  S   S76       1.0  0.20524  0.66083  0.58964  1.0000
  S   S77       1.0  0.22569  0.74524  0.59015  1.0000
  Fe  Fe40      1.0  0.15590  0.63499  0.58301  1.0000
  S   S78       1.0  0.14045  0.60622  0.55772  1.0000
  Fe  Fe41      1.0  0.19388  0.64422  0.61890  1.0000
  S   S79       1.0  0.22299  0.62547  0.63368  1.0000
  S   S80       1.0  0.14516  0.67311  0.58790  1.0000
  S   S81       1.0  0.18580  0.68274  0.62732  1.0000
  S   S82       1.0  0.47272  0.73840  0.64838  1.0000
  H   H358      1.0  0.44698  0.97036  0.47076  1.0000
  H   H359      1.0  0.46949  0.65929  0.54222  1.0000
  S   S83       1.0  0.39411  0.68353  0.66034  1.0000
  C   C212      1.0  0.25418  0.64949  0.64756  1.0000
  C   C213      1.0  0.25907  0.67864  0.65118  1.0000
  C   C214      1.0  0.28504  0.69795  0.66139  1.0000
  C   C215      1.0  0.30656  0.68844  0.66768  1.0000
  C   C216      1.0  0.30166  0.65925  0.66415  1.0000
  C   C217      1.0  0.27531  0.63970  0.65431  1.0000
  H   H360      1.0  0.24288  0.68633  0.64609  1.0000
  H   H361      1.0  0.28871  0.72047  0.66418  1.0000
  H   H362      1.0  0.31809  0.65171  0.66905  1.0000
  H   H363      1.0  0.27160  0.61714  0.65157  1.0000
  H   H364      1.0  0.33796  0.66052  0.60339  1.0000
  Fe  Fe42      1.0  0.24205  0.54120  0.48699  1.0000
  C   C218      1.0  0.18118  0.58882  0.57361  1.0000
  C   C219      1.0  0.16502  0.58998  0.55731  1.0000
  C   C220      1.0  0.16958  0.57932  0.54060  1.0000
  C   C221      1.0  0.19083  0.56816  0.54016  1.0000
  H   H365      1.0  0.09016  0.70014  0.64669  1.0000
  H   H366      1.0  0.17734  0.59638  0.58670  1.0000
  H   H367      1.0  0.15727  0.58035  0.52795  1.0000
  H   H368      1.0  0.36580  0.69723  0.61089  1.0000
  H   H369      1.0  0.52102  0.71473  0.58564  1.0000
  H   H370      1.0  0.38147  0.59659  0.51450  1.0000
  C   C222      1.0  0.51610  0.78983  0.63399  1.0000
  C   C223      1.0  0.49603  0.77719  0.64845  1.0000
  C   C224      1.0  0.49441  0.79567  0.66215  1.0000
  S   S84       1.0  0.37730  0.71658  0.37457  1.0000
  Fe  Fe43      1.0  0.39806  0.65160  0.68154  1.0000
  H   H371      1.0  0.51728  0.77573  0.62326  1.0000
  H   H372      1.0  0.47907  0.78611  0.67338  1.0000
  S   S85       1.0  0.23397  0.55358  0.55592  1.0000
  C   C225      1.0  0.28357  0.75674  0.53977  1.0000
  C   C226      1.0  0.25866  0.72949  0.54325  1.0000
  C   C227      1.0  0.24071  0.72600  0.55849  1.0000
  C   C228      1.0  0.24760  0.74980  0.57055  1.0000
  C   C229      1.0  0.27241  0.77731  0.56704  1.0000
  C   C230      1.0  0.29044  0.78080  0.55168  1.0000
  H   H373      1.0  0.25320  0.71106  0.53404  1.0000
  H   H374      1.0  0.22122  0.70500  0.56069  1.0000
  H   H375      1.0  0.27780  0.79591  0.57624  1.0000
  H   H376      1.0  0.30956  0.80200  0.54906  1.0000
  C   C231      1.0  0.48014  0.84058  0.54266  1.0000
  C   C232      1.0  0.50846  0.84258  0.54775  1.0000
  C   C233      1.0  0.53241  0.87043  0.55198  1.0000
  C   C234      1.0  0.52767  0.89595  0.55203  1.0000
  C   C235      1.0  0.49909  0.89373  0.54761  1.0000
  C   C236      1.0  0.47538  0.86609  0.54287  1.0000
  H   H377      1.0  0.51212  0.82284  0.54821  1.0000
  H   H378      1.0  0.16877  0.53067  0.46221  1.0000
  H   H379      1.0  0.49500  0.91316  0.54837  1.0000
  H   H380      1.0  0.45323  0.86451  0.53991  1.0000
  C   C237      1.0  0.29414  0.58090  0.41237  1.0000
  C   C238      1.0  0.28424  0.60232  0.41595  1.0000
  C   C239      1.0  0.26904  0.60044  0.43226  1.0000
  C   C240      1.0  0.26443  0.57764  0.44534  1.0000
  C   C241      1.0  0.27442  0.55624  0.44188  1.0000
  C   C242      1.0  0.28893  0.55766  0.42526  1.0000
  H   H381      1.0  0.28806  0.62025  0.40604  1.0000
  H   H382      1.0  0.26127  0.61701  0.43482  1.0000
  H   H383      1.0  0.30356  0.73319  0.62798  1.0000
  C   C243      1.0  0.33995  0.57393  0.62384  1.0000
  C   C244      1.0  0.33948  0.74268  0.42270  1.0000
  C   C245      1.0  0.33097  0.75042  0.43929  1.0000
  C   C246      1.0  0.35080  0.77613  0.44905  1.0000
  C   C247      1.0  0.37883  0.79470  0.44189  1.0000
  C   C248      1.0  0.38688  0.78759  0.42495  1.0000
  C   C249      1.0  0.36741  0.76142  0.41549  1.0000
  H   H384      1.0  0.30923  0.73629  0.44475  1.0000
  H   H385      1.0  0.34430  0.78173  0.46201  1.0000
  H   H386      1.0  0.40845  0.80205  0.41931  1.0000
  H   H387      1.0  0.37398  0.75582  0.40261  1.0000
  C   C250      1.0  0.46509  0.67572  0.45477  1.0000
  C   C251      1.0  0.48675  0.70122  0.44627  1.0000
  C   C252      1.0  0.48048  0.71054  0.42860  1.0000
  C   C253      1.0  0.45260  0.69427  0.41928  1.0000
  C   C254      1.0  0.43122  0.66828  0.42757  1.0000
  C   C255      1.0  0.43735  0.65918  0.44535  1.0000
  H   H388      1.0  0.50821  0.71389  0.45338  1.0000
  H   H389      1.0  0.49723  0.73046  0.42217  1.0000
  H   H390      1.0  0.40999  0.65510  0.42029  1.0000
  H   H391      1.0  0.42057  0.63926  0.45177  1.0000
  C   C256      1.0  0.44939  0.58714  0.63881  1.0000
  C   C257      1.0  0.42300  0.56323  0.64468  1.0000
  C   C258      1.0  0.40303  0.56849  0.65552  1.0000
  C   C259      1.0  0.40914  0.59768  0.66032  1.0000
  C   C260      1.0  0.43563  0.62157  0.65451  1.0000
  C   C261      1.0  0.45583  0.61623  0.64398  1.0000
  C   C262      1.0  0.50897  0.70017  0.62265  1.0000
  H   H392      1.0  0.38274  0.54991  0.66015  1.0000
  H   H393      1.0  0.44058  0.64415  0.65814  1.0000
  H   H394      1.0  0.47650  0.63465  0.63982  1.0000
  C   C263      1.0  0.51136  0.56802  0.55153  1.0000
  C   C264      1.0  0.52928  0.58580  0.53731  1.0000
  C   C265      1.0  0.53238  0.83937  0.64662  1.0000
  H   H395      1.0  0.27046  0.53127  0.60610  1.0000
  C   C266      1.0  0.52037  0.61259  0.56861  1.0000
  C   C267      1.0  0.50774  0.58153  0.56739  1.0000
  H   H396      1.0  0.41638  0.58793  0.49313  1.0000
  H   H397      1.0  0.19487  0.56088  0.52720  1.0000
  H   H398      1.0  0.07037  0.55901  0.58345  1.0000
  H   H399      1.0  0.49491  0.56825  0.57876  1.0000
  H   H400      1.0  0.07880  0.59667  0.58011  1.0000
  C   C268      1.0  0.50903  0.79277  0.50584  1.0000
  H   H401      1.0  0.52653  0.76304  0.48072  1.0000
  H   H402      1.0  0.35255  0.71922  0.58658  1.0000
  H   H403      1.0  0.07777  0.65653  0.59714  1.0000
  C   C269      1.0  0.43056  0.94442  0.49589  1.0000
  C   C270      1.0  0.42734  0.94524  0.51511  1.0000
  H   H404      1.0  0.50357  0.96731  0.48243  1.0000
  H   H405      1.0  0.42125  0.92317  0.48883  1.0000
  H   H406      1.0  0.34742  0.75976  0.56904  1.0000
  H   H407      1.0  0.41810  0.54069  0.64098  1.0000
  N   N17       1.0  0.38706  0.70324  0.46372  1.0000
  C   C271      1.0  0.36512  0.67056  0.46242  1.0000
  C   C272      1.0  0.41601  0.70733  0.47390  1.0000
  C   C273      1.0  0.37374  0.72123  0.47271  1.0000
  C   C274      1.0  0.41374  0.68666  0.49077  1.0000
  C   C275      1.0  0.36214  0.71164  0.49253  1.0000
  H   H408      1.0  0.36113  0.65922  0.47622  1.0000
  H   H409      1.0  0.37453  0.65843  0.45408  1.0000
  H   H410      1.0  0.43092  0.70372  0.46426  1.0000
  H   H411      1.0  0.42892  0.73075  0.47878  1.0000
  H   H412      1.0  0.39047  0.74508  0.47378  1.0000
  H   H413      1.0  0.35527  0.72225  0.46376  1.0000
  H   H414      1.0  0.32024  0.63903  0.45294  1.0000
  H   H415      1.0  0.32120  0.67162  0.46300  1.0000
  H   H416      1.0  0.40721  0.66351  0.48613  1.0000
  H   H417      1.0  0.39822  0.68657  0.50130  1.0000
  H   H418      1.0  0.29674  0.54116  0.42257  1.0000
  H   H419      1.0  0.38055  0.72254  0.50324  1.0000
  H   H420      1.0  0.35139  0.68722  0.49476  1.0000
  H   H421      1.0  0.34414  0.71852  0.49480  1.0000
  C   C276      1.0  0.39442  0.71476  0.44397  1.0000
  H   H422      1.0  0.42243  0.75249  0.42676  1.0000
  N   N18       1.0  0.14293  0.74416  0.62759  1.0000
  C   C277      1.0  0.12015  0.72277  0.61375  1.0000
  C   C278      1.0  0.13954  0.72747  0.64590  1.0000
  C   C279      1.0  0.17390  0.75330  0.62029  1.0000
  C   C280      1.0  0.13653  0.77075  0.62899  1.0000
  C   C281      1.0  0.12222  0.73374  0.59324  1.0000
  C   C282      1.0  0.10902  0.71711  0.65511  1.0000
  C   C283      1.0  0.20077  0.76459  0.63460  1.0000
  C   C284      1.0  0.15480  0.79416  0.64395  1.0000
  H   H423      1.0  0.12203  0.70145  0.61370  1.0000
  H   H424      1.0  0.09673  0.71662  0.61770  1.0000
  H   H425      1.0  0.15691  0.74068  0.65658  1.0000
  H   H426      1.0  0.14329  0.70735  0.64403  1.0000
  H   H427      1.0  0.17477  0.73412  0.61332  1.0000
  H   H428      1.0  0.17915  0.77089  0.60927  1.0000
  H   H429      1.0  0.14089  0.78334  0.61553  1.0000
  H   H430      1.0  0.11217  0.76381  0.63088  1.0000
  H   H431      1.0  0.10463  0.71572  0.58463  1.0000
  H   H432      1.0  0.43633  0.69440  0.49784  1.0000
  S   S86       1.0  0.52971  0.71373  0.51580  1.0000
  H   H433      1.0  0.47886  0.65829  0.60789  1.0000
  H   H434      1.0  0.39767  0.58533  0.54851  1.0000
  H   H435      1.0  0.52829  0.66220  0.61757  1.0000
  H   H436      1.0  0.20201  0.78294  0.64332  1.0000
  H   H437      1.0  0.22198  0.77328  0.62693  1.0000
  H   H438      1.0  0.20051  0.74608  0.64365  1.0000
  H   H439      1.0  0.17615  0.81131  0.63832  1.0000
  H   H440      1.0  0.15971  0.78461  0.65700  1.0000
  H   H441      1.0  0.14131  0.80549  0.64828  1.0000
  H   H442      1.0  0.30943  0.74660  0.57546  1.0000
  H   H443      1.0  0.46979  0.60605  0.49953  1.0000
  H   H444      1.0  0.48147  0.77196  0.47047  1.0000
  H   H445      1.0  0.25425  0.64314  0.59676  1.0000
  C   C285      1.0  0.54210  0.01625  0.50683  1.0000
  H   H446      1.0  0.14411  0.73846  0.58729  1.0000
  S   S87       1.0  0.33955  0.71369  0.67957  1.0000
  N   N19       1.0  0.46135  0.84019  0.60508  1.0000
  C   C286      1.0  0.45457  0.81644  0.59070  1.0000
  C   C287      1.0  0.43819  0.85188  0.60272  1.0000
  C   C288      1.0  0.46014  0.82772  0.62458  1.0000
  C   C289      1.0  0.49269  0.86467  0.60236  1.0000
  C   C290      1.0  0.47441  0.79989  0.59214  1.0000
  C   C291      1.0  0.43770  0.86739  0.58384  1.0000
  C   C292      1.0  0.43095  0.79988  0.62938  1.0000
  C   C293      1.0  0.50145  0.89363  0.61334  1.0000
  H   H447      1.0  0.43060  0.79951  0.59080  1.0000
  H   H448      1.0  0.45739  0.82629  0.57647  1.0000
  H   H449      1.0  0.44085  0.86763  0.61411  1.0000
  H   H450      1.0  0.41512  0.83343  0.60398  1.0000
  H   H451      1.0  0.47891  0.82177  0.62738  1.0000
  H   H452      1.0  0.46349  0.84481  0.63519  1.0000
  H   H453      1.0  0.50984  0.85685  0.60666  1.0000
  H   H454      1.0  0.49646  0.87092  0.58735  1.0000
  H   H455      1.0  0.47124  0.78674  0.60527  1.0000
  H   H456      1.0  0.46791  0.78390  0.58041  1.0000
  H   H457      1.0  0.49860  0.81531  0.59077  1.0000
  H   H458      1.0  0.42155  0.87712  0.58432  1.0000
  H   H459      1.0  0.45981  0.88592  0.58058  1.0000
  H   H460      1.0  0.42968  0.85124  0.57219  1.0000
  H   H461      1.0  0.43351  0.79282  0.64395  1.0000
  H   H462      1.0  0.42662  0.78060  0.62042  1.0000
  H   H463      1.0  0.41115  0.80458  0.62886  1.0000
  H   H464      1.0  0.48835  0.90570  0.60846  1.0000
  H   H465      1.0  0.52544  0.90889  0.61105  1.0000
  H   H466      1.0  0.49941  0.88956  0.62860  1.0000
  H   H467      1.0  0.11781  0.75353  0.59155  1.0000
  N   N20       1.0  0.33076  0.54452  0.61415  1.0000
  C   C294      1.0  0.31584  0.57779  0.63467  1.0000
  N   N21       1.0  0.24228  0.65139  0.49777  1.0000
  C   C295      1.0  0.24946  0.65680  0.47733  1.0000
  C   C296      1.0  0.22711  0.61806  0.50080  1.0000
  C   C297      1.0  0.27184  0.66500  0.50890  1.0000
  C   C298      1.0  0.22256  0.66600  0.50231  1.0000
  C   C299      1.0  0.26840  0.68962  0.47143  1.0000
  C   C300      1.0  0.19775  0.60077  0.48905  1.0000
  C   C301      1.0  0.27123  0.65758  0.52994  1.0000
  C   C302      1.0  0.20304  0.65411  0.51969  1.0000
  H   H468      1.0  0.26156  0.64393  0.47299  1.0000
  H   H469      1.0  0.22853  0.64866  0.46831  1.0000
  H   H470      1.0  0.22149  0.61211  0.51551  1.0000
  H   H471      1.0  0.24279  0.60836  0.49793  1.0000
  H   H472      1.0  0.28813  0.65813  0.50296  1.0000
  H   H473      1.0  0.28231  0.68985  0.50792  1.0000
  H   H474      1.0  0.23626  0.69055  0.50391  1.0000
  H   H475      1.0  0.20640  0.66344  0.49036  1.0000
  H   H476      1.0  0.29197  0.69856  0.47704  1.0000
  H   H477      1.0  0.26941  0.69075  0.45595  1.0000
  H   H478      1.0  0.25837  0.70432  0.47553  1.0000
  H   H479      1.0  0.18159  0.61027  0.49010  1.0000
  H   H480      1.0  0.20237  0.59979  0.47418  1.0000
  H   H481      1.0  0.18659  0.57732  0.49415  1.0000
  H   H482      1.0  0.25867  0.66693  0.53762  1.0000
  H   H483      1.0  0.29468  0.66845  0.53587  1.0000
  H   H484      1.0  0.26278  0.63335  0.53288  1.0000
  H   H485      1.0  0.20201  0.67308  0.52676  1.0000
  H   H486      1.0  0.21092  0.64268  0.53042  1.0000
  H   H487      1.0  0.17932  0.63911  0.51547  1.0000
  N   N22       1.0  0.43634  0.58912  0.52083  1.0000
  H   H488      1.0  0.45259  0.57385  0.54544  1.0000
  C   C303      1.0  0.53866  0.68031  0.60694  1.0000
  C   C304      1.0  0.41038  0.57562  0.50672  1.0000
  C   C305      1.0  0.43075  0.56997  0.53826  1.0000
  H   H489      1.0  0.33056  0.56404  0.58684  1.0000
  C   C306      1.0  0.27400  0.64268  0.59055  1.0000
  C   C307      1.0  0.48305  0.81796  0.48846  1.0000
  C   C308      1.0  0.06366  0.57390  0.57490  1.0000
  C   C309      1.0  0.06204  0.63424  0.62338  1.0000
  C   C310      1.0  0.16248  0.53783  0.44860  1.0000
  H   H490      1.0  0.28542  0.67991  0.57188  1.0000
  H   H491      1.0  0.46996  0.85093  0.47585  1.0000
  C   C311      1.0  0.51221  0.96163  0.51230  1.0000
  H   H492      1.0  0.20340  0.55031  0.43438  1.0000
  H   H493      1.0  0.50939  0.80572  0.51821  1.0000
  S   S88       1.0  0.42239  0.73439  0.69295  1.0000
  H   H494      1.0  0.52229  0.76606  0.45597  1.0000
  H   H495      1.0  0.52478  0.67180  0.59381  1.0000
  H   H496      1.0  0.13163  0.53439  0.58864  1.0000
  H   H497      1.0  0.46054  0.76270  0.50850  1.0000
  H   H498      1.0  0.37904  0.57441  0.58872  1.0000
  S   S89       1.0  0.44523  0.68238  0.69128  1.0000
  H   H499      1.0  0.31569  0.67130  0.57767  1.0000
  H   H500      1.0  0.34520  0.74265  0.60139  1.0000
  C   C312      1.0  0.44517  0.97121  0.48569  1.0000
  H   H501      1.0  0.50886  0.68856  0.63620  1.0000
  C   C313      1.0  0.32701  0.73944  0.57300  1.0000
  C   C314      1.0  0.53852  0.72809  0.59633  1.0000
  Fe  Fe44      1.0  0.44007  0.71551  0.67132  1.0000
  C   C315      1.0  0.33355  0.66361  0.45400  1.0000
  H   H502      1.0  0.41856  0.76344  0.44957  1.0000
  H   H503      1.0  0.37473  0.71553  0.43642  1.0000
  C   C316      1.0  0.42114  0.74601  0.44177  1.0000
  H   H504      1.0  0.39990  0.69941  0.43580  1.0000
  H   H505      1.0  0.26543  0.62746  0.57839  1.0000
  C   C317      1.0  0.47004  0.63847  0.53778  1.0000
  H   H506      1.0  0.53272  0.57555  0.52515  1.0000
  H   H507      1.0  0.44643  0.55178  0.49305  1.0000
  C   C318      1.0  0.54120  0.99420  0.53794  1.0000
  C   C319      1.0  0.20232  0.57756  0.57314  1.0000
  H   H508      1.0  0.52538  0.94633  0.48709  1.0000
  H   H509      1.0  0.29998  0.66969  0.62274  1.0000
  C   C320      1.0  0.47960  0.83603  0.47143  1.0000
  C   C321      1.0  0.46204  0.56068  0.50539  1.0000
  C   C322      1.0  0.45459  0.99978  0.51393  1.0000
  H   H510      1.0  0.48372  0.82986  0.50148  1.0000
  C   C323      1.0  0.38533  0.56801  0.60256  1.0000
  H   H511      1.0  0.46345  0.02103  0.52094  1.0000
  H   H512      1.0  0.51857  0.00398  0.55999  1.0000
  H   H513      1.0  0.21473  0.57673  0.58581  1.0000
  H   H514      1.0  0.48612  0.92999  0.49081  1.0000
  H   H515      1.0  0.36370  0.56475  0.50002  1.0000
  H   H516      1.0  0.52995  0.78988  0.50748  1.0000
  H   H517      1.0  0.33409  0.67287  0.43975  1.0000
  C   C324      1.0  0.33449  0.72508  0.59057  1.0000
  H   H518      1.0  0.42659  0.58692  0.56536  1.0000
  H   H519      1.0  0.48127  0.74592  0.49718  1.0000
  C   C325      1.0  0.52744  0.77866  0.46921  1.0000
  C   C326      1.0  0.38015  0.57433  0.51196  1.0000
  H   H520      1.0  0.51062  0.94241  0.52119  1.0000
  H   H521      1.0  0.50112  0.85092  0.46514  1.0000
  H   H522      1.0  0.51642  0.62266  0.58067  1.0000
  H   H523      1.0  0.27204  0.53220  0.58171  1.0000
  Fe  Fe45      1.0  0.23390  0.53258  0.52869  1.0000
  C   C327      1.0  0.54260  0.61699  0.53876  1.0000
  H   H524      1.0  0.46431  0.82090  0.46042  1.0000
  S   S90       1.0  0.38278  0.60382  0.67285  1.0000
  S   S91       1.0  0.31250  0.65683  0.37030  1.0000
  C   C328      1.0  0.45726  0.99897  0.49465  1.0000
  H   H525      1.0  0.34921  0.59288  0.61373  1.0000
  H   H526      1.0  0.54287  0.97575  0.54615  1.0000
  C   C329      1.0  0.51251  0.82671  0.66120  1.0000
  H   H527      1.0  0.10413  0.73606  0.65814  1.0000
  C   C330      1.0  0.43941  0.97303  0.52407  1.0000
  H   H528      1.0  0.43681  0.97383  0.53891  1.0000
  H   H529      1.0  0.46034  0.67518  0.62036  1.0000
  H   H530      1.0  0.41979  0.54585  0.53459  1.0000
  H   H531      1.0  0.27096  0.70782  0.58992  1.0000
  H   H532      1.0  0.40392  0.56195  0.60055  1.0000
  H   H533      1.0  0.26571  0.68657  0.61073  1.0000
  C   C331      1.0  0.50722  0.95120  0.49190  1.0000
  H   H534      1.0  0.48381  0.60001  0.52171  1.0000
  H   H535      1.0  0.46117  0.79762  0.48905  1.0000
  N   N23       1.0  0.30844  0.69818  0.59831  1.0000
  H   H536      1.0  0.39475  0.58754  0.61199  1.0000
  H   H537      1.0  0.37047  0.55898  0.52390  1.0000
  H   H538      1.0  0.29509  0.57316  0.62621  1.0000
  C   C332      1.0  0.53441  0.82076  0.63316  1.0000
  H   H539      1.0  0.44293  0.74592  0.44580  1.0000
  C   C333      1.0  0.29171  0.73361  0.61458  1.0000
  C   C334      1.0  0.50433  0.79107  0.47110  1.0000
  S   S92       1.0  0.27462  0.55344  0.51155  1.0000
  C   C335      1.0  0.28304  0.70535  0.60285  1.0000
  H   H540      1.0  0.49219  0.96502  0.51512  1.0000
  C   C336      1.0  0.34392  0.67811  0.61399  1.0000
  Fe  Fe46      1.0  0.37670  0.69953  0.68356  1.0000
  C   C337      1.0  0.47978  0.68010  0.61148  1.0000
  H   H541      1.0  0.30541  0.75434  0.60676  1.0000
  C   C338      1.0  0.41183  0.57447  0.55331  1.0000
  H   H542      1.0  0.27078  0.73491  0.61807  1.0000
  S   S93       1.0  0.24519  0.57606  0.46556  1.0000
  H   H543      1.0  0.10980  0.70607  0.66867  1.0000
  H   H544      1.0  0.31029  0.56382  0.64756  1.0000
  H   H545      1.0  0.53176  0.74565  0.60004  1.0000
  C   C339      1.0  0.17934  0.53402  0.43221  1.0000
  C   C340      1.0  0.31909  0.68824  0.61602  1.0000
  H   H546      1.0  0.50644  0.72032  0.62627  1.0000
  H   H547      1.0  0.27099  0.53860  0.45193  1.0000
  H   H548      1.0  0.35846  0.57784  0.63442  1.0000
  C   C341      1.0  0.53717  0.63036  0.55407  1.0000
  H   H549      1.0  0.48543  0.75197  0.52171  1.0000
  C   C342      1.0  0.20731  0.56738  0.55635  1.0000
  H   H550      1.0  0.49336  0.97561  0.54484  1.0000
  C   C343      1.0  0.51395  0.99727  0.54511  1.0000
  C   C344      1.0  0.46390  0.59063  0.51187  1.0000
  C   C345      1.0  0.31602  0.54417  0.59518  1.0000
  H   H551      1.0  0.49127  0.64550  0.53039  1.0000
  H   H552      1.0  0.44571  0.63374  0.51139  1.0000
  H   H553      1.0  0.45575  0.54372  0.51676  1.0000
  N   N24       1.0  0.50874  0.80971  0.48813  1.0000
  H   H554      1.0  0.28693  0.56694  0.59408  1.0000
  H   H555      1.0  0.28430  0.63251  0.60075  1.0000
  N   N25       1.0  0.53808  0.70875  0.61299  1.0000
  H   H556      1.0  0.32522  0.60131  0.63941  1.0000
  H   H557      1.0  0.48601  0.02078  0.42814  1.0000
  H   H558      1.0  0.52819  0.87195  0.49860  1.0000
  H   H559      1.0  0.34729  0.66847  0.62757  1.0000
  H   H560      1.0  0.47070  0.62573  0.55055  1.0000
  H   H561      1.0  0.47788  0.76692  0.37783  1.0000
  H   H562      1.0  0.20442  0.54573  0.39765  1.0000
  H   H563      1.0  0.42308  0.62218  0.53081  1.0000
  C   C346      1.0  0.44242  0.62083  0.52472  1.0000
  H   H564      1.0  0.50535  0.80424  0.45813  1.0000
  H   H565      1.0  0.06859  0.57284  0.56006  1.0000
  H   H566      1.0  0.51964  0.01617  0.50644  1.0000
  H   H567      1.0  0.17113  0.54214  0.41960  1.0000
  Fe  Fe47      1.0  0.45846  0.53601  0.61191  1.0000
  S   S94       1.0  0.53925  0.65766  0.50025  1.0000
  H   H568      1.0  0.10632  0.53597  0.54167  1.0000
  S   S95       1.0  0.49322  0.52906  0.54951  1.0000
  C   C347      1.0  0.05831  0.64272  0.60504  1.0000
  H   H569      1.0  0.54242  0.84721  0.47301  1.0000
  H   H570      1.0  0.50966  0.01454  0.53733  1.0000
  C   C348      1.0  0.54401  0.86199  0.50121  1.0000
  H   H571      1.0  0.40526  0.55209  0.50376  1.0000
  H   H572      1.0  0.48460  0.56449  0.50097  1.0000
  S   S96       1.0  0.43508  0.53045  0.58380  1.0000
  C   C349      1.0  0.28482  0.54388  0.59456  1.0000
  C   C350      1.0  0.53866  0.83709  0.48724  1.0000
  N   N26       1.0  0.54088  0.98909  0.51723  1.0000
  H   H573      1.0  0.54617  0.75052  0.64344  1.0000
  C   C351      1.0  0.35889  0.54091  0.61117  1.0000
  H   H574      1.0  0.36770  0.53541  0.62455  1.0000
  H   H575      1.0  0.54278  0.85390  0.51583  1.0000
  H   H576      1.0  0.53832  0.02841  0.47772  1.0000
  H   H577      1.0  0.36236  0.61461  0.93930  1.0000
  C   C352      1.0  0.26985  0.55008  0.90797  1.0000
  S   S97       1.0  0.46190  0.83870  0.00471  1.0000
  H   H578      1.0  0.05607  0.56583  0.93579  1.0000
  H   H579      1.0  0.43449  0.61159  0.86730  1.0000
  S   S98       1.0  0.48089  0.57927  0.99323  1.0000
  Fe  Fe48      1.0  0.21467  0.63718  0.99629  1.0000
  S   S99       1.0  0.19351  0.65222  0.01802  1.0000
  H   H580      1.0  0.45386  0.55922  0.84306  1.0000
  Fe  Fe49      1.0  0.24271  0.69766  0.97730  1.0000
  S   S100      1.0  0.22364  0.71781  0.99750  1.0000
  S   S101      1.0  0.27817  0.72625  0.95710  1.0000
  C   C353      1.0  0.50571  0.64472  0.03104  1.0000
  H   H581      1.0  0.46292  0.98630  0.02581  1.0000
  Fe  Fe50      1.0  0.18080  0.67457  0.99412  1.0000
  S   S102      1.0  0.13369  0.67163  0.99321  1.0000
  S   S103      1.0  0.25967  0.67631  0.99966  1.0000
  S   S104      1.0  0.19891  0.65656  0.97198  1.0000
  C   C354      1.0  0.42862  0.63094  0.80234  1.0000
  N   N27       1.0  0.29695  0.58301  0.93706  1.0000
  H   H582      1.0  0.12652  0.61077  0.99218  1.0000
  H   H583      1.0  0.30562  0.81101  0.00654  1.0000
  Fe  Fe51      1.0  0.42322  0.69829  0.71231  1.0000
  S   S105      1.0  0.44185  0.71184  0.74217  1.0000
  H   H584      1.0  0.54838  0.77396  0.98952  1.0000
  H   H585      1.0  0.33042  0.56732  0.94370  1.0000
  Fe  Fe52      1.0  0.40901  0.66547  0.88612  1.0000
  S   S106      1.0  0.39393  0.69389  0.90193  1.0000
  S   S107      1.0  0.43255  0.64245  0.90266  1.0000
  Fe  Fe53      1.0  0.38634  0.67922  0.84821  1.0000
  S   S108      1.0  0.36912  0.70879  0.86128  1.0000
  S   S109      1.0  0.37439  0.66190  0.81828  1.0000
  Fe  Fe54      1.0  0.41276  0.72666  0.87852  1.0000
  S   S110      1.0  0.43755  0.77542  0.88607  1.0000
  Fe  Fe55      1.0  0.35204  0.67380  0.88379  1.0000
  S   S111      1.0  0.30649  0.65367  0.89651  1.0000
  S   S112      1.0  0.43148  0.69993  0.86376  1.0000
  S   S113      1.0  0.36564  0.64256  0.86967  1.0000
  C   C355      1.0  0.42272  0.69772  0.76319  1.0000
  C   C356      1.0  0.39559  0.67164  0.76358  1.0000
  C   C357      1.0  0.38101  0.66127  0.78054  1.0000
  C   C358      1.0  0.39336  0.67677  0.79731  1.0000
  C   C359      1.0  0.42056  0.70277  0.79695  1.0000
  C   C360      1.0  0.43517  0.71312  0.77997  1.0000
  H   H586      1.0  0.38609  0.65924  0.75086  1.0000
  H   H587      1.0  0.36014  0.64094  0.78071  1.0000
  H   H588      1.0  0.43042  0.71486  0.80974  1.0000
  H   H589      1.0  0.45623  0.73325  0.77982  1.0000
  C   C361      1.0  0.28612  0.70615  0.94026  1.0000
  C   C362      1.0  0.26725  0.67585  0.93747  1.0000
  C   C363      1.0  0.27343  0.66026  0.92369  1.0000
  C   C364      1.0  0.29910  0.67454  0.91309  1.0000
  C   C365      1.0  0.31834  0.70476  0.91608  1.0000
  C   C366      1.0  0.31157  0.72064  0.92946  1.0000
  H   H590      1.0  0.24743  0.66458  0.94559  1.0000
  H   H591      1.0  0.25814  0.63712  0.92114  1.0000
  H   H592      1.0  0.33795  0.71600  0.90774  1.0000
  H   H593      1.0  0.32590  0.74421  0.93135  1.0000
  C   C367      1.0  0.39504  0.59955  0.83602  1.0000
  H   H594      1.0  0.53093  0.69878  0.97542  1.0000
  H   H595      1.0  0.26946  0.59215  0.01724  1.0000
  H   H596      1.0  0.35677  0.84297  0.96696  1.0000
  C   C368      1.0  0.26256  0.58335  0.96288  1.0000
  C   C369      1.0  0.44764  0.57601  0.84879  1.0000
  H   H597      1.0  0.32121  0.62035  0.95583  1.0000
  H   H598      1.0  0.34989  0.62631  0.91773  1.0000
  C   C370      1.0  0.36516  0.56101  0.91535  1.0000
  C   C371      1.0  0.38168  0.58883  0.90664  1.0000
  C   C372      1.0  0.41060  0.60793  0.91358  1.0000
  C   C373      1.0  0.42274  0.59912  0.92927  1.0000
  C   C374      1.0  0.40587  0.57174  0.93829  1.0000
  H   H599      1.0  0.38693  0.58041  0.86475  1.0000
  H   H600      1.0  0.37225  0.59526  0.89444  1.0000
  H   H601      1.0  0.44521  0.61361  0.93460  1.0000
  H   H602      1.0  0.41539  0.56539  0.95052  1.0000
  Fe  Fe56      1.0  0.50961  0.85815  0.99578  1.0000
  H   H603      1.0  0.32635  0.83568  0.98889  1.0000
  H   H604      1.0  0.25882  0.59282  0.93357  1.0000
  H   H605      1.0  0.38103  0.86188  0.99667  1.0000
  H   H606      1.0  0.40414  0.62362  0.79995  1.0000
  H   H607      1.0  0.23995  0.54449  0.00899  1.0000
  C   C375      1.0  0.51603  0.80534  0.92956  1.0000
  C   C376      1.0  0.50152  0.82321  0.92518  1.0000
  C   C377      1.0  0.47802  0.81412  0.91147  1.0000
  C   C378      1.0  0.46830  0.78675  0.90237  1.0000
  C   C379      1.0  0.48267  0.76872  0.90678  1.0000
  C   C380      1.0  0.50675  0.77821  0.92016  1.0000
  H   H608      1.0  0.36748  0.82374  0.95118  1.0000
  H   H609      1.0  0.46722  0.82831  0.90797  1.0000
  H   H610      1.0  0.47542  0.74764  0.89976  1.0000
  H   H611      1.0  0.47793  0.67270  0.85234  1.0000
  C   C381      1.0  0.10474  0.60991  0.99435  1.0000
  C   C382      1.0  0.10201  0.63643  0.99538  1.0000
  H   H612      1.0  0.34318  0.66555  0.73592  1.0000
  C   C383      1.0  0.37357  0.85072  0.01027  1.0000
  H   H613      1.0  0.29966  0.57815  0.00087  1.0000
  H   H614      1.0  0.27571  0.60708  0.96688  1.0000
  H   H615      1.0  0.42676  0.64120  0.85986  1.0000
  H   H616      1.0  0.42781  0.56373  0.85732  1.0000
  H   H617      1.0  0.30859  0.63014  0.93435  1.0000
  H   H618      1.0  0.35599  0.85619  0.01558  1.0000
  H   H619      1.0  0.07579  0.54525  0.02637  1.0000
  C   C384      1.0  0.43947  0.62875  0.85613  1.0000
  C   C385      1.0  0.20794  0.58183  0.02176  1.0000
  H   H620      1.0  0.36919  0.79025  0.97930  1.0000
  H   H621      1.0  0.30801  0.76634  0.01403  1.0000
  C   C386      1.0  0.34128  0.75171  0.00838  1.0000
  C   C387      1.0  0.48054  0.60079  0.01185  1.0000
  H   H622      1.0  0.34313  0.54592  0.90972  1.0000
  H   H623      1.0  0.54080  0.75650  0.95411  1.0000
  C   C388      1.0  0.30848  0.56441  0.94872  1.0000
  H   H624      1.0  0.31269  0.53429  0.00878  1.0000
  H   H625      1.0  0.52453  0.71533  0.03101  1.0000
  N   N28       1.0  0.42900  0.61503  0.83707  1.0000
  C   C389      1.0  0.07922  0.58222  0.99588  1.0000
  C   C390      1.0  0.31576  0.81175  0.99288  1.0000
  H   H626      1.0  0.33180  0.60151  0.01443  1.0000
  H   H627      1.0  0.33515  0.78184  0.96712  1.0000
  H   H628      1.0  0.31415  0.57242  0.96338  1.0000
  H   H629      1.0  0.45341  0.94892  0.03366  1.0000
  C   C391      1.0  0.37697  0.55264  0.93140  1.0000
  C   C392      1.0  0.37382  0.74024  0.77496  1.0000
  C   C393      1.0  0.35014  0.62690  0.93321  1.0000
  H   H630      1.0  0.37236  0.73294  0.78984  1.0000
  C   C394      1.0  0.35195  0.79853  0.97692  1.0000
  H   H631      1.0  0.51804  0.76439  0.92327  1.0000
  C   C395      1.0  0.32177  0.76748  0.00206  1.0000
  N   N29       1.0  0.34561  0.72148  0.74292  1.0000
  C   C396      1.0  0.31965  0.69416  0.73459  1.0000
  C   C397      1.0  0.33726  0.74694  0.74058  1.0000
  C   C398      1.0  0.34863  0.71534  0.76346  1.0000
  C   C399      1.0  0.37379  0.72700  0.73302  1.0000
  C   C400      1.0  0.32073  0.66409  0.73821  1.0000
  C   C401      1.0  0.33121  0.75444  0.72023  1.0000
  H   H632      1.0  0.46389  0.65242  0.82273  1.0000
  C   C402      1.0  0.39984  0.75911  0.73365  1.0000
  H   H633      1.0  0.29779  0.69154  0.73976  1.0000
  H   H634      1.0  0.31794  0.69642  0.71911  1.0000
  H   H635      1.0  0.35459  0.76785  0.74682  1.0000
  H   H636      1.0  0.31668  0.74208  0.74838  1.0000
  H   H637      1.0  0.32704  0.70949  0.77035  1.0000
  H   H638      1.0  0.35334  0.69576  0.76561  1.0000
  H   H639      1.0  0.38295  0.71155  0.73842  1.0000
  H   H640      1.0  0.36834  0.72163  0.71792  1.0000
  N   N30       1.0  0.29490  0.57072  0.03074  1.0000
  H   H641      1.0  0.34677  0.56116  0.02050  1.0000
  H   H642      1.0  0.31753  0.57544  0.91308  1.0000
  H   H643      1.0  0.30966  0.73706  0.71427  1.0000
  H   H644      1.0  0.32925  0.77571  0.71992  1.0000
  H   H645      1.0  0.34961  0.75738  0.71102  1.0000
  H   H646      1.0  0.36347  0.65067  0.93713  1.0000
  H   H647      1.0  0.46681  0.59059  0.85808  1.0000
  H   H648      1.0  0.35394  0.74935  0.99677  1.0000
  H   H649      1.0  0.42159  0.75782  0.73525  1.0000
  H   H650      1.0  0.39976  0.77322  0.74514  1.0000
  H   H651      1.0  0.40084  0.77083  0.72011  1.0000
  N   N31       1.0  0.41542  0.75923  0.95503  1.0000
  C   C403      1.0  0.42127  0.79041  0.94868  1.0000
  C   C404      1.0  0.42646  0.76133  0.97516  1.0000
  C   C405      1.0  0.38192  0.73948  0.95319  1.0000
  C   C406      1.0  0.43223  0.74866  0.94255  1.0000
  C   C407      1.0  0.40532  0.79272  0.93007  1.0000
  C   C408      1.0  0.46071  0.77966  0.97860  1.0000
  C   C409      1.0  0.36895  0.71027  0.96473  1.0000
  C   C410      1.0  0.43347  0.71910  0.94782  1.0000
  H   H652      1.0  0.41458  0.80175  0.95940  1.0000
  H   H653      1.0  0.44574  0.80480  0.94697  1.0000
  H   H654      1.0  0.42060  0.73912  0.98157  1.0000
  H   H655      1.0  0.41515  0.77127  0.98376  1.0000
  H   H656      1.0  0.36924  0.75179  0.95738  1.0000
  H   H657      1.0  0.37496  0.73322  0.93831  1.0000
  H   H658      1.0  0.42270  0.74592  0.92798  1.0000
  H   H659      1.0  0.45579  0.76594  0.94111  1.0000
  H   H660      1.0  0.41467  0.81651  0.92559  1.0000
  H   H661      1.0  0.40882  0.78037  0.91865  1.0000
  H   H662      1.0  0.38082  0.78475  0.93157  1.0000
  H   H663      1.0  0.46606  0.78013  0.99386  1.0000
  H   H664      1.0  0.47365  0.76966  0.97184  1.0000
  H   H665      1.0  0.46883  0.80319  0.97394  1.0000
  H   H666      1.0  0.38028  0.69608  0.96256  1.0000
  H   H667      1.0  0.34487  0.69702  0.96034  1.0000
  H   H668      1.0  0.36945  0.71477  0.97984  1.0000
  H   H669      1.0  0.41422  0.69981  0.94125  1.0000
  H   H670      1.0  0.43458  0.71511  0.96300  1.0000
  H   H671      1.0  0.45454  0.71988  0.94262  1.0000
  C   C411      1.0  0.37948  0.57396  0.85007  1.0000
  S   S114      1.0  0.21142  0.59101  0.99799  1.0000
  H   H672      1.0  0.38210  0.55389  0.84643  1.0000
  H   H673      1.0  0.39636  0.74383  0.77070  1.0000
  C   C412      1.0  0.28970  0.79609  0.97842  1.0000
  H   H674      1.0  0.08160  0.56189  0.99464  1.0000
  H   H675      1.0  0.26836  0.56869  0.97238  1.0000
  Fe  Fe57      1.0  0.23779  0.69339  0.01957  1.0000
  H   H676      1.0  0.38282  0.81280  0.00815  1.0000
  H   H677      1.0  0.27475  0.77286  0.98263  1.0000
  S   S115      1.0  0.52330  0.87723  0.96731  1.0000
  H   H678      1.0  0.51644  0.72457  0.97999  1.0000
  H   H679      1.0  0.38633  0.58955  0.82205  1.0000
  C   C413      1.0  0.25050  0.52949  0.01241  1.0000
  C   C414      1.0  0.47325  0.65045  0.85842  1.0000
  H   H680      1.0  0.50884  0.84439  0.93203  1.0000
  H   H681      1.0  0.07118  0.65537  0.99875  1.0000
  H   H682      1.0  0.47978  0.65389  0.87354  1.0000
  C   C415      1.0  0.07345  0.63491  0.99795  1.0000
  H   H683      1.0  0.30546  0.75299  0.99124  1.0000
  H   H684      1.0  0.23859  0.57768  0.96499  1.0000
  H   H685      1.0  0.50452  0.94378  0.00635  1.0000
  H   H686      1.0  0.50500  0.70587  0.00890  1.0000
  N   N32       1.0  0.33837  0.79928  0.99512  1.0000
  C   C416      1.0  0.31815  0.61547  0.94063  1.0000
  S   S116      1.0  0.37623  0.66464  0.70412  1.0000
  H   H687      1.0  0.52575  0.74475  0.01581  1.0000
  C   C417      1.0  0.50514  0.62838  0.01539  1.0000
  H   H688      1.0  0.43457  0.61338  0.79773  1.0000
  H   H689      1.0  0.39313  0.86056  0.02036  1.0000
  C   C418      1.0  0.26601  0.57809  0.94224  1.0000
  H   H690      1.0  0.24862  0.55519  0.93901  1.0000
  C   C419      1.0  0.43892  0.64015  0.82283  1.0000
  H   H691      1.0  0.43113  0.65703  0.82646  1.0000
  C   C420      1.0  0.19436  0.55203  0.02768  1.0000
  H   H692      1.0  0.35477  0.80863  0.02399  1.0000
  H   H693      1.0  0.51004  0.84257  0.03039  1.0000
  H   H694      1.0  0.37184  0.76142  0.77455  1.0000
  C   C421      1.0  0.52570  0.72256  0.01613  1.0000
  H   H695      1.0  0.38599  0.61604  0.83784  1.0000
  H   H696      1.0  0.27550  0.80809  0.97746  1.0000
  H   H697      1.0  0.48769  0.64192  0.85197  1.0000
  C   C422      1.0  0.44187  0.59388  0.83242  1.0000
  H   H698      1.0  0.52392  0.63677  0.00626  1.0000
  H   H699      1.0  0.35493  0.56730  0.84915  1.0000
  H   H700      1.0  0.31403  0.65569  0.75259  1.0000
  H   H701      1.0  0.29780  0.79636  0.96425  1.0000
  H   H702      1.0  0.52741  0.55982  0.99703  1.0000
  H   H703      1.0  0.46394  0.60604  0.82572  1.0000
  C   C423      1.0  0.36260  0.81663  0.00966  1.0000
  H   H704      1.0  0.42706  0.57740  0.82181  1.0000
  C   C424      1.0  0.45625  0.58992  0.02367  1.0000
  S   S117      1.0  0.39442  0.54608  0.99069  1.0000
  H   H705      1.0  0.43741  0.56844  0.02122  1.0000
  H   H706      1.0  0.49026  0.90470  0.00950  1.0000
  C   C425      1.0  0.36801  0.82835  0.96630  1.0000
  H   H707      1.0  0.39186  0.84062  0.97137  1.0000
  H   H708      1.0  0.35684  0.76296  0.02038  1.0000
  H   H709      1.0  0.29770  0.59677  0.90807  1.0000
  C   C426      1.0  0.29694  0.57740  0.91646  1.0000
  Fe  Fe58      1.0  0.43608  0.53942  0.99148  1.0000
  C   C427      1.0  0.31345  0.57834  0.01360  1.0000
  H   H710      1.0  0.05185  0.56571  0.96074  1.0000
  H   H711      1.0  0.18642  0.53427  0.01755  1.0000
  H   H712      1.0  0.44002  0.65073  0.79311  1.0000
  H   H713      1.0  0.24931  0.55367  0.90709  1.0000
  H   H714      1.0  0.33990  0.56480  0.99623  1.0000
  H   H715      1.0  0.12354  0.54412  0.01788  1.0000
  H   H716      1.0  0.27474  0.54724  0.89340  1.0000
  H   H717      1.0  0.30442  0.64710  0.72844  1.0000
  H   H718      1.0  0.32614  0.72878  0.01323  1.0000
  C   C428      1.0  0.52156  0.53647  0.00140  1.0000
  S   S118      1.0  0.53259  0.82868  0.99584  1.0000
  C   C429      1.0  0.32878  0.55823  0.00982  1.0000
  H   H719      1.0  0.50254  0.55743  0.02763  1.0000
  H   H720      1.0  0.53952  0.58644  0.02662  1.0000
  S   S119      1.0  0.54556  0.81617  0.94678  1.0000
  C   C430      1.0  0.46448  0.83730  0.02911  1.0000
  C   C431      1.0  0.54092  0.73444  0.95532  1.0000
  C   C432      1.0  0.05073  0.58063  0.99863  1.0000
  C   C433      1.0  0.53691  0.72308  0.97565  1.0000
  H   H721      1.0  0.52129  0.71899  0.94660  1.0000
  Fe  Fe59      1.0  0.54918  0.85016  0.96815  1.0000
  C   C434      1.0  0.28865  0.53039  0.94933  1.0000
  H   H722      1.0  0.46531  0.92076  0.01117  1.0000
  H   H723      1.0  0.23070  0.62765  0.03060  1.0000
  C   C435      1.0  0.54268  0.53591  0.01777  1.0000
  H   H724      1.0  0.50701  0.98282  0.01985  1.0000
  C   C436      1.0  0.48882  0.92473  0.01463  1.0000
  C   C437      1.0  0.27085  0.53890  0.03032  1.0000
  H   H725      1.0  0.11598  0.59464  0.03171  1.0000
  H   H726      1.0  0.41930  0.83107  0.03260  1.0000
  H   H727      1.0  0.32021  0.63443  0.02791  1.0000
  H   H728      1.0  0.52479  0.66586  0.03390  1.0000
  S   S120      1.0  0.54785  0.89580  0.01067  1.0000
  C   C438      1.0  0.27995  0.59114  0.03117  1.0000
  H   H729      1.0  0.26520  0.52902  0.91549  1.0000
  H   H730      1.0  0.82932  0.37370  0.34558  1.0000
  S   S121      1.0  0.63689  0.21486  0.07700  1.0000
  H   H731      1.0  0.74844  0.27188  0.34551  1.0000
  C   C439      1.0  0.01664  0.36524  0.06862  1.0000
  S   S122      1.0  0.63744  0.45711  0.10865  1.0000
  S   S123      1.0  0.72497  0.48641  0.10862  1.0000
  Fe  Fe60      1.0  0.69960  0.32452  0.21596  1.0000
  S   S124      1.0  0.68742  0.34979  0.23691  1.0000
  S   S125      1.0  0.67410  0.27691  0.20603  1.0000
  Fe  Fe61      1.0  0.75960  0.37641  0.20797  1.0000
  S   S126      1.0  0.75343  0.40602  0.22843  1.0000
  S   S127      1.0  0.79412  0.39441  0.18580  1.0000
  Fe  Fe62      1.0  0.73532  0.36626  0.24801  1.0000
  S   S128      1.0  0.75201  0.37815  0.27852  1.0000
  Fe  Fe63      1.0  0.70650  0.38799  0.21633  1.0000
  S   S129      1.0  0.68681  0.41961  0.20788  1.0000
  S   S130      1.0  0.74642  0.33819  0.22839  1.0000
  S   S131      1.0  0.71359  0.36102  0.19458  1.0000
  C   C440      1.0  0.65156  0.40825  0.07019  1.0000
  C   C441      1.0  0.60221  0.40988  0.08630  1.0000
  Fe  Fe64      1.0  0.74179  0.51866  0.08464  1.0000
  S   S132      1.0  0.68951  0.33617  0.35715  1.0000
  H   H732      1.0  0.70339  0.31655  0.13571  1.0000
  Fe  Fe65      1.0  0.88796  0.34288  0.13452  1.0000
  S   S133      1.0  0.92074  0.33246  0.11904  1.0000
  S   S134      1.0  0.87122  0.32875  0.16357  1.0000
  Fe  Fe66      1.0  0.87595  0.37602  0.10246  1.0000
  S   S135      1.0  0.90758  0.36914  0.08425  1.0000
  S   S136      1.0  0.85012  0.40111  0.09228  1.0000
  Fe  Fe67      1.0  0.88668  0.32220  0.09496  1.0000
  S   S137      1.0  0.87625  0.28587  0.07367  1.0000
  Fe  Fe68      1.0  0.93949  0.38040  0.10919  1.0000
  S   S138      1.0  0.98585  0.41595  0.10144  1.0000
  S   S139      1.0  0.85257  0.32830  0.11136  1.0000
  S   S140      1.0  0.90942  0.39153  0.12657  1.0000
  C   C442      1.0  0.02123  0.41651  0.10679  1.0000
  S   S141      1.0  0.55408  0.14879  0.08287  1.0000
  C   C443      1.0  0.02428  0.39468  0.11808  1.0000
  C   C444      1.0  0.00359  0.49798  0.08927  1.0000
  H   H733      1.0  0.00475  0.37728  0.12437  1.0000
  C   C445      1.0  0.83939  0.26971  0.06344  1.0000
  C   C446      1.0  0.81905  0.28096  0.06718  1.0000
  H   H734      1.0  0.67861  0.44482  0.08797  1.0000
  C   C447      1.0  0.84516  0.46330  0.15380  1.0000
  H   H735      1.0  0.82578  0.29974  0.07637  1.0000
  H   H736      1.0  0.98727  0.38507  0.04299  1.0000
  H   H737      1.0  0.59430  0.30595  0.09458  1.0000
  C   C448      1.0  0.85452  0.40385  0.06816  1.0000
  C   C449      1.0  0.86087  0.43083  0.05891  1.0000
  H   H738      1.0  0.71932  0.34964  0.14941  1.0000
  H   H739      1.0  0.85146  0.35975  0.06585  1.0000
  H   H740      1.0  0.85898  0.44864  0.06596  1.0000
  H   H741      1.0  0.76150  0.41161  0.12516  1.0000
  C   C450      1.0  0.81463  0.37498  0.18016  1.0000
  C   C451      1.0  0.81877  0.35493  0.19262  1.0000
  C   C452      1.0  0.83630  0.34074  0.18760  1.0000
  C   C453      1.0  0.84921  0.34624  0.17004  1.0000
  C   C454      1.0  0.84427  0.36567  0.15753  1.0000
  C   C455      1.0  0.82735  0.38016  0.16263  1.0000
  H   H742      1.0  0.80907  0.35085  0.20621  1.0000
  H   H743      1.0  0.83998  0.32563  0.19733  1.0000
  H   H744      1.0  0.85336  0.36950  0.14382  1.0000
  H   H745      1.0  0.82387  0.39515  0.15279  1.0000
  C   C456      1.0  0.73389  0.36607  0.30013  1.0000
  C   C457      1.0  0.74878  0.38148  0.31653  1.0000
  C   C458      1.0  0.73543  0.37293  0.33402  1.0000
  C   C459      1.0  0.70714  0.34847  0.33541  1.0000
  C   C460      1.0  0.69208  0.33331  0.31897  1.0000
  C   C461      1.0  0.70532  0.34203  0.30144  1.0000
  H   H746      1.0  0.77071  0.40039  0.31565  1.0000
  H   H747      1.0  0.74686  0.38539  0.34641  1.0000
  H   H748      1.0  0.67008  0.31448  0.31984  1.0000
  H   H749      1.0  0.69353  0.32991  0.28899  1.0000
  C   C462      1.0  0.74672  0.49326  0.16806  1.0000
  C   C463      1.0  0.75746  0.47456  0.17718  1.0000
  C   C464      1.0  0.73919  0.45197  0.18938  1.0000
  C   C465      1.0  0.71056  0.44878  0.19323  1.0000
  C   C466      1.0  0.70020  0.46813  0.18456  1.0000
  C   C467      1.0  0.71793  0.48985  0.17167  1.0000
  H   H750      1.0  0.77977  0.47720  0.17459  1.0000
  H   H751      1.0  0.74739  0.43705  0.19574  1.0000
  H   H752      1.0  0.67823  0.46605  0.18757  1.0000
  H   H753      1.0  0.70961  0.50441  0.16484  1.0000
  C   C468      1.0  0.63193  0.21046  0.05277  1.0000
  N   N33       1.0  0.94677  0.48582  0.08974  1.0000
  H   H754      1.0  0.99913  0.32634  0.09698  1.0000
  C   C469      1.0  0.80180  0.38362  0.36362  1.0000
  H   H755      1.0  0.60573  0.35490  0.15088  1.0000
  C   C470      1.0  0.97888  0.32442  0.04898  1.0000
  H   H756      1.0  0.73008  0.42294  0.15050  1.0000
  C   C471      1.0  0.59936  0.25075  0.16014  1.0000
  C   C472      1.0  0.61093  0.27897  0.16841  1.0000
  C   C473      1.0  0.63422  0.28751  0.18230  1.0000
  C   C474      1.0  0.64536  0.26740  0.18840  1.0000
  C   C475      1.0  0.63335  0.23897  0.18038  1.0000
  C   C476      1.0  0.61070  0.23078  0.16613  1.0000
  H   H757      1.0  0.60157  0.29403  0.16414  1.0000
  H   H758      1.0  0.64306  0.30924  0.18865  1.0000
  H   H759      1.0  0.64160  0.22317  0.18519  1.0000
  H   H760      1.0  0.60154  0.20877  0.16011  1.0000
  H   H761      1.0  0.65395  0.09743  0.08981  1.0000
  C   C477      1.0  0.65605  0.42928  0.08383  1.0000
  C   C478      1.0  0.63147  0.43026  0.09186  1.0000
  Fe  Fe69      1.0  0.55093  0.13887  0.11358  1.0000
  N   N34       1.0  0.79124  0.33120  0.35165  1.0000
  C   C479      1.0  0.80479  0.36450  0.34801  1.0000
  C   C480      1.0  0.80322  0.31800  0.33747  1.0000
  C   C481      1.0  0.61367  0.41222  0.15073  1.0000
  C   C482      1.0  0.62872  0.36080  0.17799  1.0000
  C   C483      1.0  0.94180  0.44578  0.06598  1.0000
  H   H762      1.0  0.66064  0.43632  0.14549  1.0000
  H   H763      1.0  0.96368  0.49281  0.06167  1.0000
  H   H764      1.0  0.76918  0.46312  0.12863  1.0000
  H   H765      1.0  0.74208  0.29898  0.19487  1.0000
  H   H766      1.0  0.67532  0.17978  0.05851  1.0000
  H   H767      1.0  0.79542  0.29372  0.33970  1.0000
  H   H768      1.0  0.82823  0.32786  0.33905  1.0000
  C   C484      1.0  0.59767  0.38957  0.07201  1.0000
  H   H769      1.0  0.61370  0.15233  0.06696  1.0000
  H   H770      1.0  0.76845  0.28428  0.19988  1.0000
  H   H771      1.0  0.61074  0.33918  0.18280  1.0000
  H   H772      1.0  0.00680  0.47899  0.08399  1.0000
  H   H773      1.0  0.80498  0.31117  0.30780  1.0000
  C   C485      1.0  0.81498  0.45293  0.14252  1.0000
  H   H774      1.0  0.61353  0.43344  0.15475  1.0000
  H   H775      1.0  0.92422  0.51385  0.08448  1.0000
  C   C486      1.0  0.73842  0.28517  0.35164  1.0000
  H   H776      1.0  0.67790  0.10349  0.06238  1.0000
  H   H777      1.0  0.60522  0.40821  0.13600  1.0000
  H   H778      1.0  0.63533  0.10037  0.11696  1.0000
  C   C487      1.0  0.64613  0.41581  0.15340  1.0000
  H   H779      1.0  0.57170  0.30497  0.13166  1.0000
  H   H780      1.0  0.77422  0.27669  0.06215  1.0000
  N   N35       1.0  0.69575  0.42524  0.27760  1.0000
  C   C488      1.0  0.71522  0.43069  0.26099  1.0000
  C   C489      1.0  0.67264  0.39293  0.27688  1.0000
  C   C490      1.0  0.71586  0.43104  0.29504  1.0000
  C   C491      1.0  0.68174  0.44649  0.27605  1.0000
  C   C492      1.0  0.74333  0.46120  0.26019  1.0000
  C   C493      1.0  0.64911  0.38461  0.26047  1.0000
  C   C494      1.0  0.70080  0.41733  0.31357  1.0000
  C   C495      1.0  0.65744  0.44218  0.29003  1.0000
  H   H781      1.0  0.72337  0.41331  0.26042  1.0000
  H   H782      1.0  0.70224  0.42895  0.24765  1.0000
  H   H783      1.0  0.65952  0.38569  0.28967  1.0000
  H   H784      1.0  0.68400  0.37813  0.27637  1.0000
  H   H785      1.0  0.73277  0.42242  0.29336  1.0000
  H   H786      1.0  0.72918  0.45546  0.29738  1.0000
  H   H787      1.0  0.69927  0.46990  0.27787  1.0000
  H   H788      1.0  0.67212  0.44657  0.26167  1.0000
  H   H789      1.0  0.73757  0.48019  0.25985  1.0000
  H   H790      1.0  0.75991  0.46380  0.27179  1.0000
  H   H791      1.0  0.75482  0.46254  0.24702  1.0000
  H   H792      1.0  0.65936  0.38894  0.24665  1.0000
  H   H793      1.0  0.63397  0.36027  0.26119  1.0000
  H   H794      1.0  0.63480  0.39632  0.26125  1.0000
  H   H795      1.0  0.69166  0.39267  0.31372  1.0000
  H   H796      1.0  0.68308  0.42374  0.31701  1.0000
  H   H797      1.0  0.71816  0.42540  0.32515  1.0000
  H   H798      1.0  0.66755  0.45666  0.30240  1.0000
  H   H799      1.0  0.64439  0.41889  0.29477  1.0000
  H   H800      1.0  0.64054  0.44848  0.28312  1.0000
  H   H801      1.0  0.65998  0.17194  0.09108  1.0000
  H   H802      1.0  0.77047  0.31089  0.31378  1.0000
  C   C496      1.0  0.94600  0.51557  0.09068  1.0000
  C   C497      1.0  0.62899  0.36103  0.15646  1.0000
  C   C498      1.0  0.83063  0.47502  0.09062  1.0000
  H   H803      1.0  0.80806  0.42926  0.13889  1.0000
  C   C499      1.0  0.79756  0.51561  0.05572  1.0000
  H   H804      1.0  0.81946  0.45405  0.08248  1.0000
  H   H805      1.0  0.67118  0.27324  0.14708  1.0000
  H   H806      1.0  0.67792  0.14840  0.09560  1.0000
  S   S142      1.0  0.61793  0.36646  0.04476  1.0000
  H   H807      1.0  0.71665  0.27866  0.34369  1.0000
  H   H808      1.0  0.74683  0.26710  0.13357  1.0000
  H   H809      1.0  0.58313  0.41057  0.09252  1.0000
  H   H810      1.0  0.98805  0.30943  0.05524  1.0000
  C   C500      1.0  0.97422  0.48639  0.10011  1.0000
  C   C501      1.0  0.76738  0.42632  0.11260  1.0000
  H   H811      1.0  0.65869  0.36766  0.10340  1.0000
  H   H812      1.0  0.61173  0.11382  0.12705  1.0000
  C   C502      1.0  0.96584  0.33515  0.07935  1.0000
  H   H813      1.0  0.66090  0.40827  0.11963  1.0000
  H   H814      1.0  0.70630  0.18737  0.07421  1.0000
  C   C503      1.0  0.78983  0.26792  0.05902  1.0000
  C   C504      1.0  0.83039  0.24563  0.05111  1.0000
  H   H815      1.0  0.77996  0.30535  0.16979  1.0000
  H   H816      1.0  0.74253  0.34262  0.13414  1.0000
  H   H817      1.0  0.83299  0.44470  0.11166  1.0000
  H   H818      1.0  0.85284  0.48810  0.08435  1.0000
  N   N36       1.0  0.81518  0.47114  0.12526  1.0000
  H   H819      1.0  0.66174  0.23485  0.14503  1.0000
  H   H820      1.0  0.92428  0.47797  0.06248  1.0000
  H   H821      1.0  0.68672  0.26009  0.12886  1.0000
  H   H822      1.0  0.74601  0.42156  0.10462  1.0000
  H   H823      1.0  0.64827  0.14011  0.12069  1.0000
  H   H824      1.0  0.93569  0.46933  0.12847  1.0000
  C   C505      1.0  0.61862  0.13334  0.06391  1.0000
  H   H825      1.0  0.60841  0.14012  0.09823  1.0000
  C   C506      1.0  0.75749  0.31915  0.34968  1.0000
  H   H826      1.0  0.68547  0.37444  0.15383  1.0000
  H   H827      1.0  0.70967  0.24019  0.15626  1.0000
  H   H828      1.0  0.61777  0.07882  0.07950  1.0000
  H   H829      1.0  0.59782  0.39445  0.15982  1.0000
  H   H830      1.0  0.79669  0.30589  0.14040  1.0000
  H   H831      1.0  0.57731  0.32773  0.10280  1.0000
  H   H832      1.0  0.85948  0.48229  0.11540  1.0000
  H   H833      1.0  0.01893  0.37457  0.08278  1.0000
  H   H834      1.0  0.70755  0.44161  0.14426  1.0000
  S   S143      1.0  0.59306  0.18056  0.12146  1.0000
  H   H835      1.0  0.00559  0.51374  0.07772  1.0000
  H   H836      1.0  0.75044  0.32616  0.33621  1.0000
  H   H837      1.0  0.69153  0.15377  0.06134  1.0000
  H   H838      1.0  0.58345  0.18856  0.05238  1.0000
  H   H839      1.0  0.66783  0.47102  0.05351  1.0000
  H   H840      1.0  0.73325  0.29271  0.12564  1.0000
  C   C507      1.0  0.68505  0.16901  0.06861  1.0000
  H   H841      1.0  0.78056  0.47211  0.10560  1.0000
  Fe  Fe70      1.0  0.74409  0.52649  0.12688  1.0000
  C   C508      1.0  0.91609  0.46800  0.11974  1.0000
  C   C509      1.0  0.91899  0.46304  0.09892  1.0000
  C   C510      1.0  0.55074  0.30600  0.13532  1.0000
  C   C511      1.0  0.83547  0.46799  0.11136  1.0000
  H   H842      1.0  0.68656  0.40141  0.16920  1.0000
  C   C512      1.0  0.78070  0.24374  0.04684  1.0000
  C   C513      1.0  0.62244  0.38915  0.06379  1.0000
  C   C514      1.0  0.80517  0.50206  0.04132  1.0000
  H   H843      1.0  0.63265  0.14093  0.05152  1.0000
  H   H844      1.0  0.67958  0.23154  0.04861  1.0000
  H   H845      1.0  0.91778  0.44035  0.09832  1.0000
  H   H846      1.0  0.89831  0.46161  0.09132  1.0000
  C   C515      1.0  0.68248  0.39514  0.15424  1.0000
  H   H847      1.0  0.67075  0.40773  0.06398  1.0000
  H   H848      1.0  0.57359  0.31739  0.07843  1.0000
  H   H849      1.0  0.65023  0.36270  0.18447  1.0000
  H   H850      1.0  0.95879  0.44134  0.07420  1.0000
  C   C516      1.0  0.58870  0.10716  0.05736  1.0000
  C   C517      1.0  0.87237  0.43584  0.04102  1.0000
  H   H851      1.0  0.96115  0.30657  0.10364  1.0000
  Fe  Fe71      1.0  0.56293  0.20287  0.12344  1.0000
  H   H852      1.0  0.59182  0.08754  0.05331  1.0000
  C   C518      1.0  0.04685  0.43897  0.09871  1.0000
  H   H853      1.0  0.71532  0.31096  0.17103  1.0000
  H   H854      1.0  0.70835  0.41384  0.12897  1.0000
  C   C519      1.0  0.65246  0.36175  0.11817  1.0000
  H   H855      1.0  0.95447  0.30919  0.04662  1.0000
  H   H856      1.0  0.80457  0.34573  0.31245  1.0000
  H   H857      1.0  0.91235  0.48790  0.12190  1.0000
  H   H858      1.0  0.73049  0.25920  0.19359  1.0000
  H   H859      1.0  0.62365  0.38206  0.12221  1.0000
  H   H860      1.0  0.96951  0.46337  0.10485  1.0000
  Fe  Fe72      1.0  0.68410  0.49438  0.10654  1.0000
  H   H861      1.0  0.67144  0.35892  0.12504  1.0000
  C   C520      1.0  0.97560  0.31455  0.09136  1.0000
  H   H862      1.0  0.69705  0.25904  0.17165  1.0000
  H   H863      1.0  0.62388  0.37859  0.18350  1.0000
  H   H864      1.0  0.79803  0.45232  0.15240  1.0000
  Fe  Fe73      1.0  0.59323  0.19200  0.09109  1.0000
  C   C521      1.0  0.64702  0.38677  0.12680  1.0000
  H   H865      1.0  0.96674  0.35283  0.08883  1.0000
  H   H866      1.0  0.94506  0.44379  0.05094  1.0000
  H   H867      1.0  0.02687  0.34945  0.07011  1.0000
  H   H868      1.0  0.78441  0.33489  0.13961  1.0000
  C   C522      1.0  0.80112  0.23269  0.04276  1.0000
  N   N37       1.0  0.63472  0.12700  0.08056  1.0000
  C   C523      1.0  0.61506  0.12172  0.09708  1.0000
  H   H869      1.0  0.91904  0.42817  0.06891  1.0000
  H   H870      1.0  0.78434  0.31601  0.11872  1.0000
  C   C524      1.0  0.63933  0.09948  0.07817  1.0000
  H   H871      1.0  0.75364  0.33347  0.16664  1.0000
  H   H872      1.0  0.03278  0.41131  0.05811  1.0000
  H   H873      1.0  0.78125  0.42028  0.10356  1.0000
  N   N38       1.0  0.65113  0.38964  0.14771  1.0000
  C   C525      1.0  0.78297  0.45960  0.11802  1.0000
  H   H874      1.0  0.59358  0.10098  0.09536  1.0000
  S   S144      1.0  0.76955  0.52051  0.15217  1.0000
  C   C526      1.0  0.66420  0.15401  0.08490  1.0000
  H   H875      1.0  0.57969  0.11445  0.04476  1.0000
  C   C527      1.0  0.79513  0.32194  0.31682  1.0000
  S   S145      1.0  0.74386  0.22903  0.03675  1.0000
  S   S146      1.0  0.69871  0.52331  0.08099  1.0000
  C   C528      1.0  0.85706  0.38093  0.05887  1.0000
  H   H876      1.0  0.79465  0.36959  0.33504  1.0000
  H   H877      1.0  0.84272  0.44661  0.16499  1.0000
  C   C529      1.0  0.94063  0.35636  0.04479  1.0000
  S   S147      1.0  0.57040  0.24102  0.14263  1.0000
  C   C530      1.0  0.62888  0.11890  0.11638  1.0000
  C   C531      1.0  0.65350  0.09688  0.05999  1.0000
  H   H878      1.0  0.57511  0.37446  0.06727  1.0000
  C   C532      1.0  0.94432  0.47704  0.06956  1.0000
  H   H879      1.0  0.97231  0.29434  0.08371  1.0000
  H   H880      1.0  0.89599  0.44848  0.12495  1.0000
  H   H881      1.0  0.93411  0.37434  0.04064  1.0000
  N   N39       1.0  0.73577  0.28826  0.15593  1.0000
  C   C533      1.0  0.75782  0.28530  0.17012  1.0000
  C   C534      1.0  0.74756  0.28910  0.13680  1.0000
  C   C535      1.0  0.70625  0.26061  0.15760  1.0000
  C   C536      1.0  0.73239  0.31599  0.16024  1.0000
  C   C537      1.0  0.74879  0.28172  0.19069  1.0000
  C   C538      1.0  0.78010  0.31298  0.13390  1.0000
  C   C539      1.0  0.68051  0.25765  0.14364  1.0000
  C   C540      1.0  0.72381  0.33166  0.14377  1.0000
  H   H882      1.0  0.76232  0.26608  0.16675  1.0000
  C   C541      1.0  0.70832  0.41986  0.14371  1.0000
  H   H883      1.0  0.86364  0.46504  0.14505  1.0000
  H   H884      1.0  0.80763  0.40643  0.35810  1.0000
  H   H885      1.0  0.65294  0.42129  0.16832  1.0000
  H   H886      1.0  0.63370  0.34218  0.15261  1.0000
  H   H887      1.0  0.97927  0.49975  0.11309  1.0000
  N   N40       1.0  0.98382  0.34909  0.06227  1.0000
  C   C542      1.0  0.60318  0.19535  0.04424  1.0000
  H   H888      1.0  0.81454  0.50446  0.14349  1.0000
  H   H889      1.0  0.85137  0.48466  0.16105  1.0000
  H   H890      1.0  0.84604  0.23687  0.04808  1.0000
  H   H891      1.0  0.63196  0.34006  0.11862  1.0000
  C   C543      1.0  0.97266  0.37063  0.05399  1.0000
  H   H892      1.0  0.85089  0.51245  0.13605  1.0000
  C   C544      1.0  0.82549  0.52565  0.11655  1.0000
  C   C545      1.0  0.82684  0.50317  0.13125  1.0000
  H   H893      1.0  0.81789  0.48807  0.08806  1.0000
  H   H894      1.0  0.92337  0.34111  0.05427  1.0000
  H   H895      1.0  0.71332  0.52613  0.03996  1.0000
  H   H896      1.0  0.65056  0.10983  0.04805  1.0000
  H   H897      1.0  0.74916  0.32921  0.36018  1.0000
  H   H898      1.0  0.02304  0.50974  0.09917  1.0000
  H   H899      1.0  0.55180  0.32814  0.13182  1.0000
  C   C546      1.0  0.83550  0.51054  0.03756  1.0000
  H   H900      1.0  0.94165  0.32146  0.07556  1.0000
  H   H901      1.0  0.66398  0.50256  0.04426  1.0000
  S   S148      1.0  0.56616  0.21703  0.09333  1.0000
  H   H902      1.0  0.97341  0.38649  0.06484  1.0000
  S   S149      1.0  0.75900  0.50403  0.05988  1.0000
  H   H903      1.0  0.80243  0.51962  0.11081  1.0000
  H   H904      1.0  0.73346  0.27861  0.36648  1.0000
  C   C547      1.0  0.86873  0.38599  0.04102  1.0000
  H   H905      1.0  0.62114  0.46869  0.06236  1.0000
  H   H906      1.0  0.94730  0.52253  0.10540  1.0000
  H   H907      1.0  0.57130  0.10052  0.06796  1.0000
  H   H908      1.0  0.64258  0.07332  0.05526  1.0000
  H   H909      1.0  0.57494  0.52153  0.05873  1.0000
  C   C548      1.0  0.65731  0.21977  0.04210  1.0000
  C   C549      1.0  0.57384  0.30964  0.09311  1.0000
  H   H910      1.0  0.03697  0.38634  0.04186  1.0000
  C   C550      1.0  0.03772  0.39189  0.05674  1.0000
  C   C551      1.0  0.65575  0.47816  0.04246  1.0000
  H   H911      1.0  0.55382  0.26506  0.10498  1.0000
  C   C552      1.0  0.62240  0.46437  0.04738  1.0000
  H   H912      1.0  0.61065  0.43985  0.04567  1.0000
  H   H913      1.0  0.04466  0.45583  0.08989  1.0000
  H   H914      1.0  0.61027  0.47526  0.03939  1.0000
  H   H915      1.0  0.54963  0.30340  0.15075  1.0000
  H   H916      1.0  0.78600  0.49918  0.50674  1.0000
  S   S150      1.0  0.65431  0.41040  0.58942  1.0000
  S   S151      1.0  0.60819  0.32346  0.59642  1.0000
  Fe  Fe74      1.0  0.72834  0.21202  0.59747  1.0000
  S   S152      1.0  0.75988  0.19099  0.60194  1.0000
  S   S153      1.0  0.70258  0.21961  0.62004  1.0000
  Fe  Fe75      1.0  0.73345  0.21479  0.55528  1.0000
  S   S154      1.0  0.76573  0.19491  0.55640  1.0000
  S   S155      1.0  0.71578  0.22326  0.52756  1.0000
  Fe  Fe76      1.0  0.73484  0.16250  0.57714  1.0000
  S   S156      1.0  0.71791  0.11421  0.56874  1.0000
  Fe  Fe77      1.0  0.78727  0.22525  0.58061  1.0000
  S   S157      1.0  0.83717  0.25446  0.58419  1.0000
  S   S158      1.0  0.70134  0.18101  0.57450  1.0000
  S   S159      1.0  0.75723  0.24802  0.57787  1.0000
  C   C553      1.0  0.62034  0.30207  0.68842  1.0000
  S   S160      1.0  0.61478  0.09633  0.50723  1.0000
  Fe  Fe78      1.0  0.70134  0.30535  0.42338  1.0000
  S   S161      1.0  0.68724  0.26175  0.43937  1.0000
  Fe  Fe79      1.0  0.76175  0.35780  0.41442  1.0000
  S   S162      1.0  0.81113  0.36885  0.41572  1.0000
  Fe  Fe80      1.0  0.70982  0.36949  0.42611  1.0000
  S   S163      1.0  0.69656  0.39143  0.44885  1.0000
  S   S164      1.0  0.73406  0.34488  0.43962  1.0000
  S   S165      1.0  0.69272  0.50514  0.50595  1.0000
  C   C554      1.0  0.56059  0.35835  0.51082  1.0000
  C   C555      1.0  0.57028  0.07432  0.56727  1.0000
  Fe  Fe81      1.0  0.57561  0.10660  0.50264  1.0000
  S   S166      1.0  0.72336  0.35563  0.68472  1.0000
  C   C556      1.0  0.81771  0.44518  0.68976  1.0000
  H   H917      1.0  0.77880  0.37458  0.36888  1.0000
  S   S167      1.0  0.78036  0.32566  0.67501  1.0000
  S   S168      1.0  0.85130  0.50306  0.62486  1.0000
  H   H918      1.0  0.88150  0.16141  0.59710  1.0000
  H   H919      1.0  0.85744  0.33026  0.45681  1.0000
  Fe  Fe82      1.0  0.93684  0.35841  0.51150  1.0000
  S   S169      1.0  0.91394  0.38069  0.52615  1.0000
  S   S170      1.0  0.90932  0.30845  0.51067  1.0000
  Fe  Fe83      1.0  0.98850  0.41751  0.50004  1.0000
  S   S171      1.0  0.96813  0.44407  0.51338  1.0000
  S   S172      1.0  0.03281  0.44728  0.48661  1.0000
  Fe  Fe84      1.0  0.95997  0.41175  0.53707  1.0000
  S   S173      1.0  0.96880  0.42822  0.56662  1.0000
  Fe  Fe85      1.0  0.92375  0.41065  0.50103  1.0000
  S   S174      1.0  0.88487  0.42072  0.49180  1.0000
  S   S175      1.0  0.98267  0.38681  0.52474  1.0000
  S   S176      1.0  0.94441  0.38670  0.48542  1.0000
  H   H920      1.0  0.59774  0.27321  0.62656  1.0000
  H   H921      1.0  0.60143  0.19859  0.60039  1.0000
  N   N41       1.0  0.59880  0.10249  0.57143  1.0000
  C   C557      1.0  0.83904  0.50510  0.67900  1.0000
  S   S177      1.0  0.57789  0.15195  0.50606  1.0000
  C   C558      1.0  0.94128  0.43950  0.57156  1.0000
  C   C559      1.0  0.92136  0.44014  0.55730  1.0000
  C   C560      1.0  0.89845  0.44786  0.56121  1.0000
  C   C561      1.0  0.89602  0.45600  0.57927  1.0000
  C   C562      1.0  0.91646  0.45631  0.59352  1.0000
  C   C563      1.0  0.93903  0.44785  0.58967  1.0000
  H   H922      1.0  0.92340  0.43459  0.54319  1.0000
  H   H923      1.0  0.88274  0.44771  0.55015  1.0000
  H   H924      1.0  0.91433  0.46220  0.60758  1.0000
  H   H925      1.0  0.95434  0.44725  0.60075  1.0000
  C   C564      1.0  0.79891  0.45915  0.69062  1.0000
  S   S178      1.0  0.58031  0.35614  0.56588  1.0000
  C   C565      1.0  0.84742  0.46137  0.68418  1.0000
  C   C566      1.0  0.85805  0.49127  0.67864  1.0000
  C   C567      1.0  0.65066  0.27415  0.63426  1.0000
  C   C568      1.0  0.80973  0.48922  0.68534  1.0000
  H   H926      1.0  0.56256  0.39418  0.64957  1.0000
  H   H927      1.0  0.86194  0.45049  0.68368  1.0000
  C   C569      1.0  0.63069  0.23628  0.66836  1.0000
  C   C570      1.0  0.83136  0.38314  0.43696  1.0000
  C   C571      1.0  0.81931  0.39321  0.45082  1.0000
  C   C572      1.0  0.83605  0.40492  0.46753  1.0000
  C   C573      1.0  0.86465  0.40603  0.47064  1.0000
  C   C574      1.0  0.87650  0.39554  0.45691  1.0000
  C   C575      1.0  0.86002  0.38443  0.44003  1.0000
  H   H928      1.0  0.79727  0.39227  0.44856  1.0000
  H   H929      1.0  0.82677  0.41297  0.47812  1.0000
  H   H930      1.0  0.89860  0.39651  0.45912  1.0000
  H   H931      1.0  0.86951  0.37675  0.42935  1.0000
  C   C576      1.0  0.69519  0.42603  0.44836  1.0000
  C   C577      1.0  0.68604  0.43418  0.46449  1.0000
  C   C578      1.0  0.68435  0.46128  0.46533  1.0000
  C   C579      1.0  0.69301  0.48130  0.45032  1.0000
  C   C580      1.0  0.70227  0.47328  0.43404  1.0000
  C   C581      1.0  0.70333  0.44560  0.43302  1.0000
  H   H932      1.0  0.68043  0.41950  0.47647  1.0000
  H   H933      1.0  0.67604  0.46649  0.47756  1.0000
  H   H934      1.0  0.70882  0.48857  0.42226  1.0000
  H   H935      1.0  0.71050  0.43952  0.42049  1.0000
  C   C582      1.0  0.58945  0.19663  0.45069  1.0000
  C   C583      1.0  0.61323  0.19150  0.45813  1.0000
  C   C584      1.0  0.64300  0.21128  0.45412  1.0000
  C   C585      1.0  0.64930  0.23661  0.44285  1.0000
  C   C586      1.0  0.62548  0.24159  0.43514  1.0000
  C   C587      1.0  0.59557  0.22147  0.43894  1.0000
  H   H936      1.0  0.60862  0.17224  0.46697  1.0000
  H   H937      1.0  0.66129  0.20711  0.45998  1.0000
  H   H938      1.0  0.63011  0.26099  0.42636  1.0000
  H   H939      1.0  0.81779  0.38615  0.37558  1.0000
  C   C588      1.0  0.70462  0.08178  0.58295  1.0000
  H   H940      1.0  0.59211  0.39076  0.48289  1.0000
  H   H941      1.0  0.76106  0.47036  0.65865  1.0000
  H   H942      1.0  0.71819  0.10441  0.60933  1.0000
  H   H943      1.0  0.01954  0.49273  0.54653  1.0000
  C   C589      1.0  0.85643  0.26978  0.56352  1.0000
  C   C590      1.0  0.88348  0.29613  0.56440  1.0000
  C   C591      1.0  0.89944  0.30848  0.54817  1.0000
  C   C592      1.0  0.88908  0.29387  0.53107  1.0000
  C   C593      1.0  0.86229  0.26726  0.53023  1.0000
  C   C594      1.0  0.84571  0.25556  0.54633  1.0000
  H   H944      1.0  0.89222  0.30705  0.57765  1.0000
  H   H945      1.0  0.92028  0.32885  0.54899  1.0000
  H   H946      1.0  0.85434  0.25565  0.51711  1.0000
  H   H947      1.0  0.82519  0.23504  0.54549  1.0000
  C   C595      1.0  0.72483  0.24855  0.63552  1.0000
  C   C596      1.0  0.71189  0.25318  0.65128  1.0000
  C   C597      1.0  0.72862  0.27705  0.66334  1.0000
  C   C598      1.0  0.75877  0.29586  0.65999  1.0000
  C   C599      1.0  0.77202  0.29079  0.64449  1.0000
  C   C600      1.0  0.75503  0.26731  0.63218  1.0000
  H   H948      1.0  0.68899  0.23806  0.65431  1.0000
  H   H949      1.0  0.74784  0.48047  0.46381  1.0000
  H   H950      1.0  0.79546  0.30499  0.64207  1.0000
  H   H951      1.0  0.76534  0.26360  0.62022  1.0000
  C   C601      1.0  0.69177  0.18768  0.51880  1.0000
  C   C602      1.0  0.67065  0.18431  0.50429  1.0000
  C   C603      1.0  0.64783  0.15582  0.49994  1.0000
  C   C604      1.0  0.64667  0.13071  0.50966  1.0000
  C   C605      1.0  0.66954  0.13378  0.52277  1.0000
  C   C606      1.0  0.69189  0.16226  0.52744  1.0000
  H   H952      1.0  0.67121  0.20364  0.49687  1.0000
  H   H953      1.0  0.63088  0.15323  0.48922  1.0000
  H   H954      1.0  0.66924  0.11437  0.53002  1.0000
  H   H955      1.0  0.70876  0.16434  0.53805  1.0000
  C   C607      1.0  0.64625  0.43567  0.57568  1.0000
  C   C608      1.0  0.61658  0.43176  0.57361  1.0000
  C   C609      1.0  0.60929  0.44978  0.56113  1.0000
  C   C610      1.0  0.63158  0.47175  0.55065  1.0000
  C   C611      1.0  0.66152  0.47656  0.55325  1.0000
  C   C612      1.0  0.66888  0.45856  0.56582  1.0000
  H   H956      1.0  0.59916  0.41483  0.58167  1.0000
  H   H957      1.0  0.58637  0.44649  0.55953  1.0000
  C   C613      1.0  0.69693  0.39885  0.62909  1.0000
  H   H958      1.0  0.69192  0.46190  0.56753  1.0000
  C   C614      1.0  0.57957  0.29794  0.65874  1.0000
  H   H959      1.0  0.79939  0.41320  0.64912  1.0000
  H   H960      1.0  0.68875  0.05270  0.55911  1.0000
  H   H961      1.0  0.64614  0.22050  0.63268  1.0000
  C   C615      1.0  0.63082  0.31915  0.67212  1.0000
  C   C616      1.0  0.61033  0.31711  0.65721  1.0000
  H   H962      1.0  0.62763  0.45068  0.50243  1.0000
  C   C617      1.0  0.76091  0.42239  0.64361  1.0000
  H   H963      1.0  0.65461  0.33348  0.67094  1.0000
  H   H964      1.0  0.61834  0.32984  0.64450  1.0000
  C   C618      1.0  0.60622  0.43128  0.49815  1.0000
  H   H965      1.0  0.64992  0.07529  0.56034  1.0000
  H   H966      1.0  0.79618  0.08568  0.56638  1.0000
  C   C619      1.0  0.71650  0.43024  0.63715  1.0000
  H   H967      1.0  0.64776  0.29305  0.64012  1.0000
  C   C620      1.0  0.77146  0.44657  0.47326  1.0000
  H   H968      1.0  0.70654  0.44479  0.63151  1.0000
  H   H969      1.0  0.71259  0.42888  0.65243  1.0000
  H   H970      1.0  0.73394  0.49240  0.63667  1.0000
  H   H971      1.0  0.63752  0.16621  0.57208  1.0000
  H   H972      1.0  0.61705  0.22248  0.53966  1.0000
  C   C621      1.0  0.56930  0.28163  0.67519  1.0000
  C   C622      1.0  0.56156  0.23279  0.56471  1.0000
  H   H973      1.0  0.60162  0.22906  0.51194  1.0000
  H   H974      1.0  0.64534  0.12051  0.56295  1.0000
  H   H975      1.0  0.65144  0.23389  0.55293  1.0000
  H   H976      1.0  0.63041  0.23619  0.59682  1.0000
  H   H977      1.0  0.55756  0.03686  0.51449  1.0000
  N   N42       1.0  0.61864  0.38759  0.50732  1.0000
  C   C623      1.0  0.58956  0.28366  0.68992  1.0000
  C   C624      1.0  0.64540  0.40958  0.51874  1.0000
  C   C625      1.0  0.62775  0.36548  0.49916  1.0000
  C   C626      1.0  0.63981  0.24123  0.54177  1.0000
  S   S179      1.0  0.55218  0.17308  0.45676  1.0000
  H   H978      1.0  0.80584  0.29494  0.39103  1.0000
  H   H979      1.0  0.75390  0.47294  0.58994  1.0000
  H   H980      1.0  0.65837  0.22753  0.51958  1.0000
  H   H981      1.0  0.65296  0.28959  0.60480  1.0000
  H   H982      1.0  0.80946  0.12916  0.62489  1.0000
  S   S180      1.0  0.57402  0.36314  0.61043  1.0000
  H   H983      1.0  0.64897  0.37736  0.49159  1.0000
  H   H984      1.0  0.63258  0.35223  0.51041  1.0000
  H   H985      1.0  0.64075  0.38113  0.54385  1.0000
  C   C627      1.0  0.75807  0.49800  0.63587  1.0000
  H   H986      1.0  0.77008  0.13799  0.59312  1.0000
  H   H987      1.0  0.56758  0.06947  0.55203  1.0000
  H   H988      1.0  0.61185  0.05184  0.56524  1.0000
  C   C628      1.0  0.74278  0.46162  0.50424  1.0000
  H   H989      1.0  0.82695  0.47722  0.48659  1.0000
  H   H990      1.0  0.70207  0.05744  0.62803  1.0000
  H   H991      1.0  0.67026  0.38423  0.52861  1.0000
  N   N43       1.0  0.82162  0.30679  0.48807  1.0000
  C   C629      1.0  0.84311  0.33176  0.50058  1.0000
  C   C630      1.0  0.84012  0.29470  0.47837  1.0000
  C   C631      1.0  0.79985  0.28277  0.50047  1.0000
  C   C632      1.0  0.80540  0.31908  0.47466  1.0000
  C   C633      1.0  0.82880  0.34587  0.51329  1.0000
  C   C634      1.0  0.86545  0.31744  0.46647  1.0000
  C   C635      1.0  0.77648  0.25418  0.49085  1.0000
  C   C636      1.0  0.79173  0.30187  0.45626  1.0000
  H   H992      1.0  0.85704  0.32403  0.50979  1.0000
  H   H993      1.0  0.85937  0.35062  0.49220  1.0000
  H   H994      1.0  0.82624  0.27588  0.46907  1.0000
  H   H995      1.0  0.81238  0.27586  0.51137  1.0000
  H   H996      1.0  0.78632  0.29120  0.50815  1.0000
  H   H997      1.0  0.78700  0.32124  0.48172  1.0000
  H   H998      1.0  0.82114  0.34211  0.47031  1.0000
  H   H999      1.0  0.81342  0.35309  0.50538  1.0000
  H   H1000     1.0  0.81712  0.33069  0.52496  1.0000
  H   H1001     1.0  0.84697  0.36624  0.51976  1.0000
  H   H1002     1.0  0.88460  0.33300  0.47540  1.0000
  H   H1003     1.0  0.87452  0.30538  0.45793  1.0000
  H   H1004     1.0  0.75955  0.25849  0.48232  1.0000
  H   H1005     1.0  0.76386  0.23777  0.50179  1.0000
  H   H1006     1.0  0.78667  0.24305  0.48251  1.0000
  H   H1007     1.0  0.76996  0.30249  0.45276  1.0000
  H   H1008     1.0  0.78692  0.27811  0.45650  1.0000
  H   H1009     1.0  0.80625  0.31340  0.44440  1.0000
  N   N44       1.0  0.64766  0.26206  0.50786  1.0000
  H   H1010     1.0  0.77073  0.51819  0.64455  1.0000
  N   N45       1.0  0.78442  0.47833  0.48014  1.0000
  C   C637      1.0  0.66895  0.27035  0.49195  1.0000
  C   C638      1.0  0.64302  0.28841  0.51361  1.0000
  H   H1011     1.0  0.66425  0.42339  0.50955  1.0000
  C   C639      1.0  0.77117  0.52330  0.47638  1.0000
  C   C640      1.0  0.70297  0.28619  0.49689  1.0000
  C   C641      1.0  0.66919  0.31356  0.52449  1.0000
  C   C642      1.0  0.81814  0.49155  0.47886  1.0000
  C   C643      1.0  0.77162  0.49538  0.46793  1.0000
  H   H1012     1.0  0.80727  0.16428  0.62023  1.0000
  H   H1013     1.0  0.78125  0.46120  0.61180  1.0000
  H   H1014     1.0  0.56469  0.20561  0.61809  1.0000
  H   H1015     1.0  0.66423  0.28476  0.48147  1.0000
  H   H1016     1.0  0.63813  0.29948  0.50112  1.0000
  H   H1017     1.0  0.62241  0.28103  0.52185  1.0000
  H   H1018     1.0  0.61519  0.17515  0.55524  1.0000
  N   N46       1.0  0.62101  0.24637  0.63346  1.0000
  H   H1019     1.0  0.72982  0.46996  0.49485  1.0000
  C   C644      1.0  0.86022  0.14690  0.60398  1.0000
  H   H1020     1.0  0.57121  0.05459  0.57427  1.0000
  H   H1021     1.0  0.63794  0.26083  0.54717  1.0000
  H   H1022     1.0  0.71523  0.29370  0.48370  1.0000
  H   H1023     1.0  0.66557  0.25009  0.48415  1.0000
  H   H1024     1.0  0.70964  0.30613  0.50559  1.0000
  H   H1025     1.0  0.68323  0.33169  0.51485  1.0000
  H   H1026     1.0  0.68380  0.30610  0.53294  1.0000
  H   H1027     1.0  0.65976  0.32310  0.53470  1.0000
  H   H1028     1.0  0.63860  0.21975  0.66456  1.0000
  H   H1029     1.0  0.58821  0.21888  0.65353  1.0000
  C   C645      1.0  0.79475  0.43106  0.64233  1.0000
  H   H1030     1.0  0.78765  0.33032  0.38172  1.0000
  H   H1031     1.0  0.04694  0.40046  0.50292  1.0000
  H   H1032     1.0  0.65007  0.25797  0.67200  1.0000
  H   H1033     1.0  0.60516  0.25800  0.60691  1.0000
  C   C646      1.0  0.59267  0.37206  0.52002  1.0000
  Fe  Fe86      1.0  0.56827  0.31620  0.61310  1.0000
  C   C647      1.0  0.70804  0.08305  0.60242  1.0000
  H   H1034     1.0  0.80917  0.45176  0.65002  1.0000
  H   H1035     1.0  0.75578  0.41988  0.65873  1.0000
  H   H1036     1.0  0.84664  0.12907  0.57646  1.0000
  H   H1037     1.0  0.83296  0.52624  0.50080  1.0000
  C   C648      1.0  0.79593  0.13977  0.61833  1.0000
  H   H1038     1.0  0.55920  0.44877  0.52984  1.0000
  H   H1039     1.0  0.72274  0.43714  0.59089  1.0000
  C   C649      1.0  0.56463  0.24771  0.54754  1.0000
  C   C650      1.0  0.62378  0.09994  0.56174  1.0000
  H   H1040     1.0  0.79041  0.48227  0.64255  1.0000
  H   H1041     1.0  0.56685  0.24527  0.57752  1.0000
  H   H1042     1.0  0.55940  0.24279  0.51768  1.0000
  Fe  Fe87      1.0  0.61075  0.36899  0.59144  1.0000
  H   H1043     1.0  0.66726  0.27100  0.64380  1.0000
  H   H1044     1.0  0.62040  0.21845  0.49568  1.0000
  N   N47       1.0  0.81266  0.14193  0.58430  1.0000
  C   C651      1.0  0.79869  0.13111  0.56508  1.0000
  C   C652      1.0  0.82694  0.17563  0.58366  1.0000
  H   H1045     1.0  0.78731  0.46480  0.50886  1.0000
  C   C653      1.0  0.83493  0.12967  0.58921  1.0000
  C   C654      1.0  0.78183  0.09690  0.56255  1.0000
  H   H1046     1.0  0.63991  0.20663  0.60226  1.0000
  C   C655      1.0  0.62472  0.21988  0.62678  1.0000
  H   H1047     1.0  0.69930  0.38126  0.63781  1.0000
  H   H1048     1.0  0.81607  0.13914  0.55436  1.0000
  C   C656      1.0  0.56596  0.22774  0.62109  1.0000
  H   H1049     1.0  0.83717  0.18573  0.59731  1.0000
  H   H1050     1.0  0.80949  0.18354  0.58061  1.0000
  H   H1051     1.0  0.82371  0.52219  0.58119  1.0000
  H   H1052     1.0  0.73968  0.46658  0.51878  1.0000
  H   H1053     1.0  0.82296  0.10604  0.59410  1.0000
  Fe  Fe88      1.0  0.70781  0.34339  0.38760  1.0000
  H   H1054     1.0  0.61577  0.32942  0.47956  1.0000
  H   H1055     1.0  0.76086  0.08663  0.57037  1.0000
  H   H1056     1.0  0.60652  0.19879  0.63219  1.0000
  C   C657      1.0  0.62243  0.15780  0.55961  1.0000
  H   H1057     1.0  0.58163  0.12245  0.54963  1.0000
  H   H1058     1.0  0.63945  0.12120  0.61411  1.0000
  H   H1059     1.0  0.73315  0.43699  0.50312  1.0000
  H   H1060     1.0  0.59747  0.35209  0.47376  1.0000
  H   H1061     1.0  0.77571  0.10584  0.59807  1.0000
  H   H1062     1.0  0.63409  0.15042  0.60185  1.0000
  H   H1063     1.0  0.61550  0.25633  0.47250  1.0000
  Fe  Fe89      1.0  0.88146  0.50352  0.60271  1.0000
  N   N48       1.0  0.84765  0.35437  0.60347  1.0000
  C   C658      1.0  0.85224  0.36906  0.62228  1.0000
  C   C659      1.0  0.85321  0.32724  0.60649  1.0000
  C   C660      1.0  0.81527  0.34451  0.59707  1.0000
  C   C661      1.0  0.86882  0.37679  0.59000  1.0000
  C   C662      1.0  0.84465  0.39577  0.62309  1.0000
  C   C663      1.0  0.88499  0.33343  0.61413  1.0000
  C   C664      1.0  0.80534  0.32868  0.57808  1.0000
  C   C665      1.0  0.87638  0.36451  0.57242  1.0000
  H   H1064     1.0  0.83875  0.35253  0.63303  1.0000
  H   H1065     1.0  0.87613  0.37780  0.62741  1.0000
  H   H1066     1.0  0.84921  0.31429  0.59360  1.0000
  H   H1067     1.0  0.83679  0.31119  0.61631  1.0000
  H   H1068     1.0  0.79993  0.32934  0.60771  1.0000
  H   H1069     1.0  0.81008  0.36391  0.59559  1.0000
  H   H1070     1.0  0.85996  0.39279  0.58510  1.0000
  H   H1071     1.0  0.89082  0.39066  0.59731  1.0000
  H   H1072     1.0  0.82000  0.38838  0.62233  1.0000
  H   H1073     1.0  0.85297  0.40702  0.63678  1.0000
  H   H1074     1.0  0.88822  0.33950  0.62911  1.0000
  H   H1075     1.0  0.88773  0.31265  0.61317  1.0000
  H   H1076     1.0  0.90295  0.35097  0.60601  1.0000
  H   H1077     1.0  0.78068  0.32074  0.57589  1.0000
  H   H1078     1.0  0.80940  0.30873  0.57733  1.0000
  H   H1079     1.0  0.81603  0.34433  0.56641  1.0000
  H   H1080     1.0  0.87545  0.37805  0.56007  1.0000
  H   H1081     1.0  0.86128  0.34110  0.56889  1.0000
  H   H1082     1.0  0.89993  0.36744  0.57359  1.0000
  H   H1083     1.0  0.81808  0.29279  0.36842  1.0000
  H   H1084     1.0  0.86485  0.21456  0.57263  1.0000
  H   H1085     1.0  0.84110  0.18988  0.55496  1.0000
  C   C666      1.0  0.61187  0.40503  0.49182  1.0000
  Fe  Fe90      1.0  0.75418  0.33659  0.69588  1.0000
  H   H1086     1.0  0.58534  0.32542  0.49325  1.0000
  H   H1087     1.0  0.63965  0.42570  0.52590  1.0000
  H   H1088     1.0  0.60403  0.25768  0.65776  1.0000
  H   H1089     1.0  0.65370  0.13143  0.59191  1.0000
  H   H1090     1.0  0.68192  0.26295  0.52851  1.0000
  H   H1091     1.0  0.63066  0.41436  0.48205  1.0000
  H   H1092     1.0  0.59055  0.42500  0.50976  1.0000
  H   H1093     1.0  0.76575  0.50463  0.62146  1.0000
  H   H1094     1.0  0.58663  0.10953  0.59879  1.0000
  H   H1095     1.0  0.77489  0.13130  0.62617  1.0000
  S   S181      1.0  0.86635  0.46419  0.58392  1.0000
  H   H1096     1.0  0.80213  0.44739  0.45160  1.0000
  H   H1097     1.0  0.61844  0.09738  0.54646  1.0000
  C   C667      1.0  0.69127  0.05385  0.57419  1.0000
  H   H1098     1.0  0.59416  0.26396  0.48964  1.0000
  H   H1099     1.0  0.02828  0.52739  0.62654  1.0000
  C   C668      1.0  0.63076  0.07401  0.56829  1.0000
  H   H1100     1.0  0.75395  0.42369  0.60838  1.0000
  C   C669      1.0  0.77825  0.44254  0.45302  1.0000
  C   C670      1.0  0.65828  0.24857  0.52398  1.0000
  C   C671      1.0  0.60485  0.34207  0.48571  1.0000
  H   H1101     1.0  0.70186  0.39698  0.61442  1.0000
  C   C672      1.0  0.65828  0.39610  0.53435  1.0000
  H   H1102     1.0  0.77179  0.45595  0.44281  1.0000
  H   H1103     1.0  0.67285  0.39412  0.62926  1.0000
  S   S182      1.0  0.92409  0.52394  0.62036  1.0000
  H   H1104     1.0  0.77931  0.43289  0.48249  1.0000
  C   C673      1.0  0.85139  0.19059  0.56915  1.0000
  C   C674      1.0  0.78744  0.13064  0.59776  1.0000
  H   H1105     1.0  0.63772  0.07562  0.58332  1.0000
  C   C675      1.0  0.83656  0.52367  0.48596  1.0000
  C   C676      1.0  0.62388  0.21571  0.60537  1.0000
  H   H1106     1.0  0.02238  0.48693  0.57095  1.0000
  C   C677      1.0  0.59419  0.12851  0.56339  1.0000
  H   H1107     1.0  0.74915  0.39955  0.63772  1.0000
  H   H1108     1.0  0.85563  0.41278  0.61213  1.0000
  H   H1109     1.0  0.63497  0.15550  0.54784  1.0000
  H   H1110     1.0  0.74651  0.43556  0.47376  1.0000
  C   C678      1.0  0.63445  0.12861  0.60015  1.0000
  C   C679      1.0  0.75702  0.44569  0.61356  1.0000
  H   H1111     1.0  0.77473  0.09209  0.54759  1.0000
  S   S183      1.0  0.67516  0.32884  0.41119  1.0000
  S   S184      1.0  0.73099  0.31631  0.39892  1.0000
  H   H1112     1.0  0.82450  0.49230  0.46413  1.0000
  H   H1113     1.0  0.60050  0.08296  0.59879  1.0000
  H   H1114     1.0  0.68728  0.30636  0.61837  1.0000
  H   H1115     1.0  0.76466  0.41879  0.44905  1.0000
  C   C680      1.0  0.77667  0.47684  0.50038  1.0000
  C   C681      1.0  0.79804  0.52785  0.55768  1.0000
  H   H1116     1.0  0.85085  0.28510  0.48881  1.0000
  H   H1117     1.0  0.78359  0.50237  0.45459  1.0000
  C   C682      1.0  0.69883  0.05644  0.61298  1.0000
  N   N49       1.0  0.74978  0.44310  0.63395  1.0000
  H   H1118     1.0  0.59525  0.35386  0.52805  1.0000
  S   S185      1.0  0.62149  0.49208  0.53380  1.0000
  C   C683      1.0  0.59856  0.25273  0.62158  1.0000
  S   S186      1.0  0.74065  0.38612  0.40177  1.0000
  H   H1119     1.0  0.67903  0.49396  0.54552  1.0000
  H   H1120     1.0  0.71842  0.28054  0.67544  1.0000
  H   H1121     1.0  0.85504  0.16022  0.61392  1.0000
  H   H1122     1.0  0.78264  0.14041  0.56082  1.0000
  C   C684      1.0  0.66683  0.28499  0.61579  1.0000
  H   H1123     1.0  0.71077  0.27056  0.50374  1.0000
  Fe  Fe91      1.0  0.66242  0.52151  0.51820  1.0000
  H   H1124     1.0  0.80175  0.43317  0.62770  1.0000
  H   H1125     1.0  0.86718  0.18051  0.56888  1.0000
  H   H1126     1.0  0.67519  0.41448  0.54304  1.0000
  C   C685      1.0  0.60158  0.24752  0.48487  1.0000
  S   S187      1.0  0.69320  0.51656  0.45205  1.0000
  H   H1127     1.0  0.77836  0.27674  0.37298  1.0000
  H   H1128     1.0  0.58005  0.13419  0.57256  1.0000
  H   H1129     1.0  0.59285  0.38816  0.53051  1.0000
  H   H1130     1.0  0.61817  0.22814  0.68141  1.0000
  C   C686      1.0  0.73846  0.45603  0.59973  1.0000
  H   H1131     1.0  0.55490  0.22672  0.63437  1.0000
  H   H1132     1.0  0.58076  0.22765  0.48037  1.0000
  H   H1133     1.0  0.67488  0.26910  0.61083  1.0000
  C   C687      1.0  0.76564  0.47295  0.64347  1.0000
  H   H1134     1.0  0.86520  0.13060  0.61250  1.0000
  H   H1135     1.0  0.72560  0.46639  0.60602  1.0000
  S   S188      1.0  0.55322  0.29158  0.64012  1.0000
  C   C688      1.0  0.02500  0.50426  0.56022  1.0000
  C   C689      1.0  0.60394  0.10476  0.59238  1.0000
  C   C690      1.0  0.60956  0.23986  0.65305  1.0000
  H   H1136     1.0  0.57723  0.22557  0.43314  1.0000
  C   C691      1.0  0.61781  0.23804  0.50069  1.0000
  Fe  Fe92      1.0  0.57510  0.31003  0.57188  1.0000
  H   H1137     1.0  0.79538  0.50025  0.68602  1.0000
  S   S189      1.0  0.57872  0.28683  0.54625  1.0000
  H   H1138     1.0  0.74844  0.51795  0.48127  1.0000
  H   H1139     1.0  0.03248  0.43149  0.55044  1.0000
  H   H1140     1.0  0.80441  0.51522  0.54835  1.0000
  H   H1141     1.0  0.55031  0.37391  0.51171  1.0000
  H   H1142     1.0  0.99775  0.49911  0.59909  1.0000
  H   H1143     1.0  0.56788  0.50717  0.52134  1.0000
  H   H1144     1.0  0.96145  0.51428  0.58864  1.0000
  H   H1145     1.0  0.98017  0.49796  0.56278  1.0000
  Fe  Fe93      1.0  0.89412  0.52735  0.64176  1.0000
  C   C692      1.0  0.01577  0.52219  0.59688  1.0000
  C   C693      1.0  0.00280  0.51752  0.56285  1.0000
  H   H1146     1.0  0.59631  0.43906  0.48623  1.0000
  H   H1147     1.0  0.84718  0.52822  0.67470  1.0000
  H   H1148     1.0  0.57598  0.03971  0.48596  1.0000
  H   H1149     1.0  0.04863  0.52135  0.56009  1.0000
  S   S190      1.0  0.89495  0.51106  0.67114  1.0000
  H   H1150     1.0  0.56005  0.48445  0.54926  1.0000
  C   C694      1.0  0.55761  0.23143  0.53096  1.0000
  S   S191      1.0  0.76199  0.43967  0.69842  1.0000
  C   C695      1.0  0.80118  0.32635  0.37121  1.0000
  H   H1151     1.0  0.82494  0.34293  0.37437  1.0000
  H   H1152     1.0  0.03625  0.51926  0.59496  1.0000
  H   H1153     1.0  0.55877  0.35098  0.49626  1.0000
  H   H1154     1.0  0.80946  0.42188  0.69318  1.0000
  H   H1155     1.0  0.56132  0.47877  0.50427  1.0000
  C   C696      1.0  0.80052  0.29577  0.37584  1.0000
  H   H1156     1.0  0.55256  0.23288  0.60997  1.0000
  C   C697      1.0  0.55183  0.49262  0.51049  1.0000
  C   C698      1.0  0.55188  0.20171  0.56521  1.0000
  H   H1157     1.0  0.54975  0.45595  0.57585  1.0000
  H   H1158     1.0  0.55004  0.50748  0.49918  1.0000
  H   H1159     1.0  0.54953  0.19021  0.57849  1.0000
  H   H1160     1.0  0.60176  0.03061  0.51438  1.0000
  H   H1161     1.0  0.73383  0.42125  0.98817  1.0000
  C   C699      1.0  0.66923  0.24496  0.83249  1.0000
  H   H1162     1.0  0.95237  0.50245  0.92718  1.0000
  S   S192      1.0  0.88088  0.48999  0.00091  1.0000
  H   H1163     1.0  0.79430  0.21410  0.03335  1.0000
  S   S193      1.0  0.89608  0.42174  0.01141  1.0000
  Fe  Fe94      1.0  0.66344  0.17296  0.99190  1.0000
  S   S194      1.0  0.67637  0.15681  0.01871  1.0000
  S   S195      1.0  0.62284  0.18160  0.99238  1.0000
  Fe  Fe95      1.0  0.71894  0.17906  0.97324  1.0000
  S   S196      1.0  0.73688  0.16413  0.99874  1.0000
  S   S197      1.0  0.74622  0.19820  0.94797  1.0000
  Fe  Fe96      1.0  0.68872  0.12851  0.00061  1.0000
  S   S198      1.0  0.67916  0.08105  0.00946  1.0000
  Fe  Fe97      1.0  0.72271  0.19363  0.01448  1.0000
  H   H1164     1.0  0.65843  0.20690  0.85155  1.0000
  S   S199      1.0  0.67192  0.14176  0.97388  1.0000
  S   S200      1.0  0.70874  0.21127  0.98864  1.0000
  C   C700      1.0  0.76995  0.31632  0.01682  1.0000
  Fe  Fe98      1.0  0.74604  0.34749  0.73715  1.0000
  H   H1165     1.0  0.84479  0.28019  0.01501  1.0000
  S   S201      1.0  0.76252  0.34367  0.76698  1.0000
  H   H1166     1.0  0.84763  0.40713  0.74208  1.0000
  Fe  Fe99      1.0  0.91354  0.47085  0.00585  1.0000
  S   S202      1.0  0.71507  0.36780  0.72878  1.0000
  H   H1167     1.0  0.98020  0.31657  0.01943  1.0000
  Fe  Fe100     1.0  0.71396  0.37156  0.91108  1.0000
  S   S203      1.0  0.73431  0.34220  0.92207  1.0000
  S   S204      1.0  0.69633  0.39026  0.93317  1.0000
  Fe  Fe101     1.0  0.73277  0.36974  0.87100  1.0000
  S   S205      1.0  0.75495  0.34029  0.87926  1.0000
  S   S206      1.0  0.72641  0.38447  0.84137  1.0000
  Fe  Fe102     1.0  0.71428  0.31541  0.89632  1.0000
  S   S207      1.0  0.68673  0.26570  0.89820  1.0000
  Fe  Fe103     1.0  0.77314  0.37024  0.90441  1.0000
  S   S208      1.0  0.81805  0.38335  0.91951  1.0000
  S   S209      1.0  0.69050  0.34253  0.88650  1.0000
  S   S210      1.0  0.75426  0.40176  0.89496  1.0000
  H   H1168     1.0  0.79310  0.46265  0.92848  1.0000
  C   C701      1.0  0.75299  0.35625  0.78737  1.0000
  C   C702      1.0  0.73188  0.36765  0.78683  1.0000
  C   C703      1.0  0.72449  0.37681  0.80344  1.0000
  C   C704      1.0  0.73769  0.37418  0.82077  1.0000
  C   C705      1.0  0.75903  0.36306  0.82129  1.0000
  C   C706      1.0  0.76669  0.35425  0.80464  1.0000
  H   H1169     1.0  0.72090  0.36896  0.77368  1.0000
  H   H1170     1.0  0.70796  0.38539  0.80290  1.0000
  H   H1171     1.0  0.76963  0.36129  0.83450  1.0000
  H   H1172     1.0  0.78316  0.34558  0.80518  1.0000
  H   H1173     1.0  0.61632  0.25795  0.96437  1.0000
  H   H1174     1.0  0.68540  0.28856  0.85925  1.0000
  C   C707      1.0  0.66458  0.23108  0.85231  1.0000
  H   H1175     1.0  0.60398  0.24197  0.93308  1.0000
  H   H1176     1.0  0.60043  0.45262  0.01213  1.0000
  C   C708      1.0  0.72995  0.21701  0.93397  1.0000
  C   C709      1.0  0.69865  0.20509  0.93164  1.0000
  C   C710      1.0  0.68565  0.21979  0.92020  1.0000
  C   C711      1.0  0.70380  0.24716  0.91173  1.0000
  C   C712      1.0  0.73510  0.25953  0.91441  1.0000
  C   C713      1.0  0.74818  0.24415  0.92524  1.0000
  H   H1177     1.0  0.68446  0.18416  0.93833  1.0000
  H   H1178     1.0  0.66145  0.21013  0.91815  1.0000
  H   H1179     1.0  0.74924  0.28069  0.90792  1.0000
  H   H1180     1.0  0.77240  0.25348  0.92705  1.0000
  H   H1181     1.0  0.81454  0.36911  0.96847  1.0000
  C   C714      1.0  0.69114  0.28892  0.81181  1.0000
  H   H1182     1.0  0.76999  0.45137  0.99474  1.0000
  H   H1183     1.0  0.70260  0.31944  0.84418  1.0000
  H   H1184     1.0  0.64662  0.23406  0.85927  1.0000
  H   H1185     1.0  0.68577  0.43171  0.00636  1.0000
  H   H1186     1.0  0.84208  0.37285  0.98643  1.0000
  C   C715      1.0  0.87013  0.47914  0.94078  1.0000
  C   C716      1.0  0.85224  0.47357  0.92425  1.0000
  C   C717      1.0  0.83587  0.44419  0.91763  1.0000
  C   C718      1.0  0.83804  0.42043  0.92726  1.0000
  C   C719      1.0  0.85661  0.42619  0.94346  1.0000
  C   C720      1.0  0.87216  0.45531  0.95037  1.0000
  H   H1187     1.0  0.85063  0.49189  0.91671  1.0000
  H   H1188     1.0  0.82197  0.43998  0.90493  1.0000
  H   H1189     1.0  0.85863  0.40800  0.95089  1.0000
  H   H1190     1.0  0.88546  0.45909  0.96323  1.0000
  C   C721      1.0  0.99341  0.33403  0.02988  1.0000
  N   N50       1.0  0.69214  0.27714  0.83134  1.0000
  S   S211      1.0  0.64436  0.30135  0.70704  1.0000
  H   H1191     1.0  0.73700  0.45644  0.99470  1.0000
  C   C722      1.0  0.68652  0.08579  0.95337  1.0000
  H   H1192     1.0  0.65911  0.02920  0.93896  1.0000
  C   C723      1.0  0.72366  0.28166  0.83698  1.0000
  C   C724      1.0  0.83361  0.44229  0.74343  1.0000
  C   C725      1.0  0.60202  0.33544  0.95513  1.0000
  C   C726      1.0  0.62314  0.36050  0.96473  1.0000
  C   C727      1.0  0.65197  0.37704  0.95784  1.0000
  C   C728      1.0  0.66007  0.36845  0.94141  1.0000
  C   C729      1.0  0.63931  0.34291  0.93203  1.0000
  C   C730      1.0  0.61031  0.32646  0.93888  1.0000
  H   H1193     1.0  0.61718  0.36726  0.97739  1.0000
  H   H1194     1.0  0.66798  0.39665  0.96522  1.0000
  H   H1195     1.0  0.64538  0.33618  0.91932  1.0000
  H   H1196     1.0  0.59409  0.30708  0.93138  1.0000
  C   C731      1.0  0.70419  0.27790  0.79643  1.0000
  H   H1197     1.0  0.70325  0.31368  0.81151  1.0000
  H   H1198     1.0  0.64686  0.24206  0.82680  1.0000
  H   H1199     1.0  0.67428  0.23057  0.82318  1.0000
  H   H1200     1.0  0.72898  0.28679  0.79829  1.0000
  H   H1201     1.0  0.69319  0.25324  0.79541  1.0000
  H   H1202     1.0  0.70014  0.28679  0.78273  1.0000
  N   N51       1.0  0.77923  0.46213  0.95681  1.0000
  C   C732      1.0  0.77282  0.45965  0.93592  1.0000
  C   C733      1.0  0.79153  0.44021  0.96227  1.0000
  C   C734      1.0  0.80316  0.49342  0.96069  1.0000
  C   C735      1.0  0.75055  0.45592  0.96632  1.0000
  H   H1203     1.0  0.73756  0.11433  0.97537  1.0000
  C   C736      1.0  0.77086  0.40733  0.95739  1.0000
  H   H1204     1.0  0.70137  0.05665  0.92290  1.0000
  C   C737      1.0  0.74838  0.44567  0.98704  1.0000
  H   H1205     1.0  0.75529  0.43702  0.93211  1.0000
  H   H1206     1.0  0.79763  0.44076  0.97733  1.0000
  H   H1207     1.0  0.81308  0.44641  0.95541  1.0000
  H   H1208     1.0  0.75328  0.45248  0.74578  1.0000
  H   H1209     1.0  0.74457  0.11754  0.93932  1.0000
  Fe  Fe104     1.0  0.91097  0.51553  0.97795  1.0000
  H   H1210     1.0  0.73098  0.43804  0.95875  1.0000
  H   H1211     1.0  0.75668  0.10167  0.92171  1.0000
  N   N52       1.0  0.66263  0.47140  0.02338  1.0000
  H   H1212     1.0  0.74743  0.40022  0.96143  1.0000
  H   H1213     1.0  0.77113  0.40332  0.94226  1.0000
  H   H1214     1.0  0.77943  0.39278  0.96490  1.0000
  H   H1215     1.0  0.72712  0.24899  0.81785  1.0000
  S   S212      1.0  0.56530  0.31506  0.96323  1.0000
  H   H1216     1.0  0.79621  0.50207  0.98959  1.0000
  H   H1217     1.0  0.66758  0.28327  0.80702  1.0000
  H   H1218     1.0  0.72052  0.23661  0.84175  1.0000
  S   S213      1.0  0.57926  0.38039  0.99952  1.0000
  C   C738      1.0  0.61656  0.46283  0.00094  1.0000
  C   C739      1.0  0.68485  0.29586  0.84448  1.0000
  C   C740      1.0  0.73200  0.25629  0.83253  1.0000
  H   H1219     1.0  0.84897  0.47000  0.77466  1.0000
  H   H1220     1.0  0.85854  0.34489  0.00347  1.0000
  H   H1221     1.0  0.62747  0.42559  0.02241  1.0000
  C   C741      1.0  0.65442  0.29678  0.84076  1.0000
  H   H1222     1.0  0.74067  0.30271  0.83076  1.0000
  H   H1223     1.0  0.65381  0.30819  0.82735  1.0000
  H   H1224     1.0  0.63510  0.27431  0.84126  1.0000
  H   H1225     1.0  0.60783  0.47594  0.99196  1.0000
  H   H1226     1.0  0.61604  0.44487  0.99205  1.0000
  H   H1227     1.0  0.68536  0.24095  0.86133  1.0000
  H   H1228     1.0  0.72991  0.30934  0.95936  1.0000
  H   H1229     1.0  0.64878  0.50459  0.01277  1.0000
  H   H1230     1.0  0.75977  0.31713  0.00290  1.0000
  H   H1231     1.0  0.70300  0.48292  0.00801  1.0000
  H   H1232     1.0  0.80267  0.49020  0.74962  1.0000
  H   H1233     1.0  0.72819  0.28507  0.85235  1.0000
  H   H1234     1.0  0.75656  0.26431  0.83532  1.0000
  H   H1235     1.0  0.81308  0.39524  0.75331  1.0000
  H   H1236     1.0  0.79531  0.26735  0.01090  1.0000
  H   H1237     1.0  0.70394  0.35184  0.96672  1.0000
  H   H1238     1.0  0.82648  0.43784  0.72840  1.0000
  H   H1239     1.0  0.75439  0.47471  0.91209  1.0000
  H   H1240     1.0  0.65143  0.31013  0.85187  1.0000
  H   H1241     1.0  0.84849  0.41945  0.76523  1.0000
  Fe  Fe105     1.0  0.57646  0.35727  0.02705  1.0000
  H   H1242     1.0  0.62656  0.06962  0.98459  1.0000
  H   H1243     1.0  0.75494  0.09508  0.98823  1.0000
  C   C742      1.0  0.62659  0.04851  0.98830  1.0000
  H   H1244     1.0  0.78654  0.42912  0.78992  1.0000
  C   C743      1.0  0.81563  0.48036  0.74261  1.0000
  H   H1245     1.0  0.85946  0.50108  0.72935  1.0000
  H   H1246     1.0  0.81281  0.41513  0.78453  1.0000
  H   H1247     1.0  0.84096  0.49983  0.02650  1.0000
  H   H1248     1.0  0.85081  0.31020  0.03080  1.0000
  C   C744      1.0  0.84531  0.32051  0.00098  1.0000
  H   H1249     1.0  0.80513  0.47455  0.72829  1.0000
  H   H1250     1.0  0.85733  0.45976  0.74362  1.0000
  C   C745      1.0  0.84752  0.50602  0.74046  1.0000
  H   H1251     1.0  0.85361  0.31650  0.98770  1.0000
  S   S214      1.0  0.88874  0.51560  0.94982  1.0000
  H   H1252     1.0  0.77579  0.42220  0.73610  1.0000
  C   C746      1.0  0.60004  0.18777  0.02526  1.0000
  C   C747      1.0  0.78149  0.42926  0.75092  1.0000
  N   N53       1.0  0.81367  0.45282  0.75296  1.0000
  H   H1253     1.0  0.77780  0.40854  0.75874  1.0000
  H   H1254     1.0  0.78586  0.23930  0.98211  1.0000
  H   H1255     1.0  0.70435  0.05864  0.98214  1.0000
  H   H1256     1.0  0.67413  0.21819  0.01556  1.0000
  H   H1257     1.0  0.82341  0.49831  0.95254  1.0000
  C   C748      1.0  0.82403  0.46074  0.77311  1.0000
  H   H1258     1.0  0.64828  0.40336  0.00301  1.0000
  H   H1259     1.0  0.68855  0.28181  0.99279  1.0000
  C   C749      1.0  0.75757  0.43873  0.75689  1.0000
  H   H1260     1.0  0.81891  0.47895  0.77783  1.0000
  Fe  Fe106     1.0  0.69434  0.33019  0.70825  1.0000
  C   C750      1.0  0.81394  0.50114  0.98120  1.0000
  C   C751      1.0  0.83539  0.41441  0.75173  1.0000
  C   C752      1.0  0.64891  0.48358  0.00815  1.0000
  C   C753      1.0  0.85523  0.30473  0.01675  1.0000
  C   C754      1.0  0.65418  0.21200  0.02331  1.0000
  H   H1261     1.0  0.80475  0.36686  0.99231  1.0000
  H   H1262     1.0  0.78751  0.48484  0.03305  1.0000
  H   H1263     1.0  0.63466  0.27842  0.93151  1.0000
  C   C755      1.0  0.62834  0.25533  0.93658  1.0000
  C   C756      1.0  0.64228  0.26861  0.99788  1.0000
  H   H1264     1.0  0.64798  0.30782  0.96388  1.0000
  H   H1265     1.0  0.68110  0.24433  0.95566  1.0000
  S   S215      1.0  0.55382  0.31165  0.01515  1.0000
  H   H1266     1.0  0.74180  0.48065  0.93373  1.0000
  C   C757      1.0  0.63394  0.25374  0.95788  1.0000
  H   H1267     1.0  0.62877  0.23010  0.96144  1.0000
  H   H1268     1.0  0.64884  0.26846  0.01292  1.0000
  H   H1269     1.0  0.64033  0.24540  0.92874  1.0000
  H   H1270     1.0  0.72904  0.05032  0.96906  1.0000
  H   H1271     1.0  0.81788  0.34656  0.01910  1.0000
  H   H1272     1.0  0.71122  0.32613  0.98109  1.0000
  H   H1273     1.0  0.68166  0.33629  0.98627  1.0000
  H   H1274     1.0  0.63917  0.28899  0.99510  1.0000
  N   N54       1.0  0.66494  0.27482  0.96549  1.0000
  C   C758      1.0  0.62567  0.19536  0.01495  1.0000
  C   C759      1.0  0.79352  0.27877  0.99771  1.0000
  H   H1275     1.0  0.62055  0.24849  0.99559  1.0000
  H   H1276     1.0  0.92806  0.51795  0.91874  1.0000
  C   C760      1.0  0.80657  0.32672  0.98167  1.0000
  H   H1277     1.0  0.76400  0.45122  0.77018  1.0000
  H   H1278     1.0  0.81763  0.32273  0.96962  1.0000
  H   H1279     1.0  0.70402  0.10925  0.95321  1.0000
  H   H1280     1.0  0.67566  0.31350  0.94743  1.0000
  C   C761      1.0  0.66953  0.30650  0.96214  1.0000
  H   H1281     1.0  0.66493  0.24440  0.98747  1.0000
  C   C762      1.0  0.66661  0.26729  0.98591  1.0000
  H   H1282     1.0  0.79600  0.27166  0.96768  1.0000
  C   C763      1.0  0.80071  0.26372  0.98150  1.0000
  H   H1283     1.0  0.57793  0.17466  0.01894  1.0000
  H   H1284     1.0  0.68712  0.27486  0.94018  1.0000
  H   H1285     1.0  0.74624  0.47594  0.96547  1.0000
  C   C764      1.0  0.68735  0.26870  0.95521  1.0000
  N   N55       1.0  0.81211  0.31208  0.99918  1.0000
  C   C765      1.0  0.69299  0.33090  0.97501  1.0000
  C   C766      1.0  0.72051  0.28501  0.96202  1.0000
  H   H1286     1.0  0.82420  0.26669  0.98250  1.0000
  C   C767      1.0  0.66202  0.42785  0.00457  1.0000
  H   H1287     1.0  0.78232  0.31656  0.97732  1.0000
  H   H1288     1.0  0.58617  0.24232  0.02217  1.0000
  C   C768      1.0  0.56132  0.23305  0.02038  1.0000
  H   H1289     1.0  0.76915  0.27292  0.99595  1.0000
  S   S216      1.0  0.72331  0.30804  0.71796  1.0000
  S   S217      1.0  0.94339  0.50605  0.02601  1.0000
  S   S218      1.0  0.78003  0.37380  0.71591  1.0000
  C   C769      1.0  0.64911  0.04787  0.00054  1.0000
  H   H1290     1.0  0.72411  0.28001  0.97681  1.0000
  C   C770      1.0  0.80328  0.32247  0.01634  1.0000
  H   H1291     1.0  0.73380  0.27701  0.95376  1.0000
  H   H1292     1.0  0.77980  0.50462  0.92637  1.0000
  S   S219      1.0  0.94155  0.49358  0.98155  1.0000
  H   H1293     1.0  0.56737  0.24130  0.99116  1.0000
  C   C771      1.0  0.81775  0.36081  0.98255  1.0000
  H   H1294     1.0  0.82234  0.48591  0.98779  1.0000
  C   C772      1.0  0.76163  0.48142  0.92684  1.0000
  H   H1295     1.0  0.64088  0.06393  0.94042  1.0000
  C   C773      1.0  0.69645  0.48641  0.02201  1.0000
  H   H1296     1.0  0.87994  0.31269  0.01643  1.0000
  C   C774      1.0  0.81060  0.43547  0.78784  1.0000
  C   C775      1.0  0.73637  0.10044  0.92830  1.0000
  H   H1297     1.0  0.65910  0.43888  0.99153  1.0000
  H   H1298     1.0  0.66280  0.49016  0.99555  1.0000
  H   H1299     1.0  0.65818  0.03012  0.96359  1.0000
  C   C776      1.0  0.74484  0.09652  0.97428  1.0000
  H   H1300     1.0  0.99310  0.35466  0.02420  1.0000
  C   C777      1.0  0.71707  0.06793  0.93494  1.0000
  H   H1301     1.0  0.76298  0.10282  0.96424  1.0000
  H   H1302     1.0  0.73592  0.41857  0.75880  1.0000
  C   C778      1.0  0.67333  0.03287  0.95202  1.0000
  H   H1303     1.0  0.86114  0.51103  0.75375  1.0000
  H   H1304     1.0  0.55523  0.25086  0.02421  1.0000
  H   H1305     1.0  0.65910  0.10356  0.93790  1.0000
  H   H1306     1.0  0.82257  0.44351  0.80155  1.0000
  H   H1307     1.0  0.67025  0.08159  0.92377  1.0000
  H   H1308     1.0  0.67578  0.08337  0.96698  1.0000
  N   N56       1.0  0.69947  0.06377  0.95229  1.0000
  C   C779      1.0  0.66290  0.08329  0.93784  1.0000
  H   H1309     1.0  0.80723  0.31122  0.02904  1.0000
  H   H1310     1.0  0.73214  0.05685  0.93672  1.0000
  H   H1311     1.0  0.55761  0.22479  0.96133  1.0000
  Fe  Fe107     1.0  0.74736  0.39122  0.70606  1.0000
  H   H1312     1.0  0.83322  0.52381  0.98170  1.0000
  H   H1313     1.0  0.72405  0.10687  0.91710  1.0000
  C   C780      1.0  0.71861  0.06584  0.96971  1.0000
  H   H1314     1.0  0.75627  0.29413  0.02331  1.0000
  H   H1315     1.0  0.79527  0.51021  0.95605  1.0000
  C   C781      1.0  0.65226  0.43824  0.02196  1.0000
  H   H1316     1.0  0.55683  0.20354  0.99788  1.0000
  H   H1317     1.0  0.01693  0.33688  0.03069  1.0000
  Fe  Fe108     1.0  0.55336  0.33439  0.98794  1.0000
  H   H1318     1.0  0.76829  0.33384  0.02518  1.0000
  H   H1319     1.0  0.70703  0.47637  0.03229  1.0000
  H   H1320     1.0  0.55191  0.21406  0.03039  1.0000
  C   C782      1.0  0.55166  0.22275  0.99998  1.0000
  C   C783      1.0  0.95199  0.52356  0.92230  1.0000
  H   H1321     1.0  0.84570  0.52658  0.73586  1.0000
  H   H1322     1.0  0.93968  0.34417  0.03192  1.0000
  C   C784      1.0  0.87719  0.41377  0.03232  1.0000
  H   H1323     1.0  0.00292  0.52445  0.93301  1.0000
  H   H1324     1.0  0.87263  0.36895  0.03444  1.0000
  C   C785      1.0  0.71230  0.52051  0.02501  1.0000
  H   H1325     1.0  0.99828  0.52704  0.95723  1.0000
  H   H1326     1.0  0.87881  0.45735  0.03443  1.0000
  Fe  Fe109     1.0  0.91242  0.52717  0.01938  1.0000
  H   H1327     1.0  0.58139  0.27047  0.70247  1.0000
  H   H1328     1.0  0.66098  0.43004  0.03429  1.0000
  H   H1329     1.0  0.84127  0.52936  0.10526  1.0000
  C   C786      1.0  0.58012  0.80216  0.04072  1.0000
  C   C787      1.0  0.64393  0.59672  0.15294  1.0000
  H   H1330     1.0  0.60590  0.85826  0.12068  1.0000
  C   C788      1.0  0.58607  0.64576  0.14630  1.0000
  C   C789      1.0  0.64522  0.87005  0.10455  1.0000
  S   S220      1.0  0.71692  0.60480  0.09636  1.0000
  C   C790      1.0  0.82063  0.53781  0.06634  1.0000
  Fe  Fe110     1.0  0.59644  0.71562  0.06975  1.0000
  S   S221      1.0  0.62603  0.75268  0.05078  1.0000
  Fe  Fe111     1.0  0.58533  0.65472  0.08596  1.0000
  H   H1331     1.0  0.63618  0.65997  0.11675  1.0000
  S   S222      1.0  0.59264  0.61294  0.08876  1.0000
  H   H1332     1.0  0.65091  0.86279  0.09147  1.0000
  H   H1333     1.0  0.62131  0.83337  0.12353  1.0000
  S   S223      1.0  0.61389  0.70166  0.09607  1.0000
  H   H1334     1.0  0.59668  0.61689  0.12957  1.0000
  H   H1335     1.0  0.57174  0.87895  0.07716  1.0000
  C   C791      1.0  0.61611  0.78141  0.04423  1.0000
  H   H1336     1.0  0.55649  0.82154  0.11562  1.0000
  H   H1337     1.0  0.99336  0.54849  0.08830  1.0000
  C   C792      1.0  0.56311  0.78263  0.12072  1.0000
  H   H1338     1.0  0.56502  0.56480  0.06189  1.0000
  C   C793      1.0  0.68210  0.60639  0.09316  1.0000
  C   C794      1.0  0.65466  0.58095  0.09498  1.0000
  C   C795      1.0  0.62743  0.58327  0.09307  1.0000
  C   C796      1.0  0.62735  0.61097  0.08933  1.0000
  C   C797      1.0  0.65472  0.63631  0.08714  1.0000
  C   C798      1.0  0.68197  0.63401  0.08913  1.0000
  H   H1339     1.0  0.65448  0.55958  0.09810  1.0000
  H   H1340     1.0  0.60636  0.56356  0.09486  1.0000
  H   H1341     1.0  0.65498  0.65773  0.08412  1.0000
  H   H1342     1.0  0.70311  0.65374  0.08759  1.0000
  H   H1343     1.0  0.69035  0.67465  0.12105  1.0000
  S   S224      1.0  0.70177  0.53217  0.12678  1.0000
  H   H1344     1.0  0.56180  0.63026  0.14744  1.0000
  C   C799      1.0  0.62460  0.79615  0.09987  1.0000
  H   H1345     1.0  0.55689  0.99003  0.05188  1.0000
  C   C800      1.0  0.56355  0.80742  0.10735  1.0000
  N   N57       1.0  0.63754  0.64479  0.14531  1.0000
  H   H1346     1.0  0.56909  0.75709  0.05001  1.0000
  C   C801      1.0  0.63267  0.64031  0.18148  1.0000
  C   C802      1.0  0.65170  0.62477  0.14071  1.0000
  C   C803      1.0  0.64877  0.65891  0.16423  1.0000
  Fe  Fe112     1.0  0.71973  0.56099  0.10133  1.0000
  C   C804      1.0  0.68073  0.68774  0.12806  1.0000
  C   C805      1.0  0.85099  0.54620  0.06264  1.0000
  C   C806      1.0  0.97120  0.54229  0.08104  1.0000
  C   C807      1.0  0.85862  0.53272  0.04818  1.0000
  Fe  Fe113     1.0  0.57156  0.69812  0.10839  1.0000
  H   H1347     1.0  0.68437  0.70705  0.11869  1.0000
  C   C808      1.0  0.58666  0.77805  0.04534  1.0000
  H   H1348     1.0  0.56430  0.76438  0.11294  1.0000
  H   H1349     1.0  0.67669  0.63707  0.14162  1.0000
  H   H1350     1.0  0.67324  0.66536  0.16639  1.0000
  H   H1351     1.0  0.64670  0.68015  0.16488  1.0000
  H   H1352     1.0  0.96656  0.56198  0.08196  1.0000
  H   H1353     1.0  0.58967  0.53367  0.03572  1.0000
  H   H1354     1.0  0.69334  0.69678  0.14141  1.0000
  C   C809      1.0  0.60383  0.80675  0.08849  1.0000
  C   C810      1.0  0.64663  0.66929  0.13066  1.0000
  C   C811      1.0  0.58656  0.84474  0.08314  1.0000
  H   H1355     1.0  0.83296  0.54758  0.12341  1.0000
  H   H1356     1.0  0.61700  0.64842  0.18678  1.0000
  H   H1357     1.0  0.55237  0.95283  0.04993  1.0000
  H   H1358     1.0  0.58112  0.79115  0.13183  1.0000
  H   H1359     1.0  0.64721  0.81484  0.10266  1.0000
  S   S225      1.0  0.55722  0.71663  0.08312  1.0000
  H   H1360     1.0  0.64566  0.61707  0.12606  1.0000
  H   H1361     1.0  0.60833  0.55538  0.05582  1.0000
  C   C812      1.0  0.61560  0.84630  0.11252  1.0000
  S   S226      1.0  0.56804  0.71621  0.13617  1.0000
  H   H1362     1.0  0.59479  0.60846  0.15349  1.0000
  H   H1363     1.0  0.59347  0.65938  0.15913  1.0000
  C   C813      1.0  0.56766  0.55941  0.04736  1.0000
  H   H1364     1.0  0.63820  0.68579  0.13386  1.0000
  N   N58       1.0  0.59291  0.82631  0.09823  1.0000
  H   H1365     1.0  0.66427  0.87413  0.11468  1.0000
  H   H1366     1.0  0.62798  0.77967  0.09142  1.0000
  H   H1367     1.0  0.61541  0.78499  0.11322  1.0000
  S   S227      1.0  0.57114  0.66903  0.05875  1.0000
  H   H1368     1.0  0.61691  0.81835  0.07606  1.0000
  H   H1369     1.0  0.64966  0.64397  0.19304  1.0000
  S   S228      1.0  0.76439  0.55878  0.10313  1.0000
  H   H1370     1.0  0.81510  0.54870  0.07731  1.0000
  H   H1371     1.0  0.58438  0.78661  0.08270  1.0000
  C   C814      1.0  0.60371  0.62747  0.14358  1.0000
  H   H1372     1.0  0.58224  0.58120  0.04062  1.0000
  C   C815      1.0  0.63862  0.80854  0.03796  1.0000
  H   H1373     1.0  0.58913  0.88245  0.09987  1.0000
  H   H1374     1.0  0.58774  0.66049  0.13409  1.0000
  H   H1375     1.0  0.60707  0.85856  0.07526  1.0000
  C   C816      1.0  0.58581  0.54109  0.04932  1.0000
  H   H1376     1.0  0.97205  0.53878  0.06594  1.0000
  H   H1377     1.0  0.65369  0.60257  0.16734  1.0000
  C   C817      1.0  0.57394  0.86599  0.08952  1.0000
  H   H1378     1.0  0.66138  0.81126  0.03700  1.0000
  H   H1379     1.0  0.64386  0.89137  0.10170  1.0000
  H   H1380     1.0  0.86867  0.56348  0.07087  1.0000
  H   H1381     1.0  0.61949  0.58175  0.15297  1.0000
  H   H1382     1.0  0.65451  0.58354  0.14703  1.0000
  H   H1383     1.0  0.57016  0.82989  0.07238  1.0000
  H   H1384     1.0  0.62050  0.61595  0.17945  1.0000
  H   H1385     1.0  0.55106  0.85370  0.09499  1.0000
  H   H1386     1.0  0.55758  0.79984  0.04209  1.0000
  S   S229      1.0  0.89718  0.54395  0.04405  1.0000
  C   C818      1.0  0.60310  0.82971  0.03520  1.0000
  H   H1387     1.0  0.04895  0.58388  0.05991  1.0000
  H   H1388     1.0  0.60773  0.77278  0.53748  1.0000
  H   H1389     1.0  0.60227  0.00936  0.53523  1.0000
  Fe  Fe114     1.0  0.69814  0.58485  0.50568  1.0000
  H   H1390     1.0  0.57240  0.53218  0.58323  1.0000
  S   S230      1.0  0.69900  0.62946  0.51181  1.0000
  H   H1391     1.0  0.93506  0.62463  0.54800  1.0000
  H   H1392     1.0  0.63606  0.59141  0.58026  1.0000
  S   S231      1.0  0.73241  0.57472  0.49186  1.0000
  H   H1393     1.0  0.56607  0.56018  0.54821  1.0000
  S   S232      1.0  0.82079  0.55956  0.61019  1.0000
  Fe  Fe115     1.0  0.92713  0.56795  0.60990  1.0000
  H   H1394     1.0  0.71255  0.77143  0.50162  1.0000
  S   S233      1.0  0.96763  0.60445  0.59635  1.0000
  C   C819      1.0  0.00372  0.61571  0.60705  1.0000
  H   H1395     1.0  0.64109  0.77894  0.50442  1.0000
  H   H1396     1.0  0.55236  0.00144  0.47971  1.0000
  S   S234      1.0  0.90050  0.57321  0.63285  1.0000
  Fe  Fe116     1.0  0.58244  0.69158  0.48878  1.0000
  H   H1397     1.0  0.56933  0.76435  0.57921  1.0000
  S   S235      1.0  0.61078  0.67631  0.47253  1.0000
  Fe  Fe117     1.0  0.57323  0.74356  0.50279  1.0000
  S   S236      1.0  0.58857  0.79327  0.50346  1.0000
  Fe  Fe118     1.0  0.85983  0.54824  0.61397  1.0000
  S   S237      1.0  0.59856  0.71898  0.51482  1.0000
  S   S238      1.0  0.54965  0.66898  0.55469  1.0000
  Fe  Fe119     1.0  0.63994  0.95101  0.60676  1.0000
  C   C820      1.0  0.61403  0.61196  0.55062  1.0000
  S   S239      1.0  0.67558  0.99558  0.61770  1.0000
  Fe  Fe120     1.0  0.62119  0.88820  0.59179  1.0000
  C   C821      1.0  0.61858  0.80757  0.55765  1.0000
  H   H1398     1.0  0.63781  0.74271  0.48192  1.0000
  Fe  Fe121     1.0  0.58316  0.89771  0.62046  1.0000
  Fe  Fe122     1.0  0.58547  0.92164  0.58076  1.0000
  S   S240      1.0  0.63400  0.93282  0.57764  1.0000
  S   S241      1.0  0.63176  0.90720  0.62085  1.0000
  C   C822      1.0  0.59951  0.80882  0.52595  1.0000
  C   C823      1.0  0.60822  0.79413  0.54012  1.0000
  H   H1399     1.0  0.64666  0.59128  0.53073  1.0000
  C   C824      1.0  0.61922  0.83521  0.56137  1.0000
  C   C825      1.0  0.60965  0.84952  0.54737  1.0000
  C   C826      1.0  0.60029  0.83656  0.52960  1.0000
  H   H1400     1.0  0.58273  0.68391  0.61706  1.0000
  H   H1401     1.0  0.66456  0.81464  0.51413  1.0000
  H   H1402     1.0  0.61027  0.87093  0.55012  1.0000
  H   H1403     1.0  0.59384  0.84817  0.51870  1.0000
  C   C827      1.0  0.63886  0.58400  0.56643  1.0000
  H   H1404     1.0  0.67781  0.71931  0.47421  1.0000
  C   C828      1.0  0.65236  0.75883  0.47140  1.0000
  H   H1405     1.0  0.57902  0.56228  0.51844  1.0000
  H   H1406     1.0  0.02643  0.64096  0.58295  1.0000
  C   C829      1.0  0.67160  0.63933  0.50151  1.0000
  C   C830      1.0  0.66321  0.65829  0.51118  1.0000
  C   C831      1.0  0.64280  0.66804  0.50292  1.0000
  C   C832      1.0  0.63180  0.66004  0.48455  1.0000
  C   C833      1.0  0.63992  0.64081  0.47498  1.0000
  C   C834      1.0  0.65927  0.63000  0.48355  1.0000
  H   H1407     1.0  0.67299  0.66592  0.52497  1.0000
  H   H1408     1.0  0.63690  0.68302  0.51037  1.0000
  H   H1409     1.0  0.63160  0.63463  0.46074  1.0000
  H   H1410     1.0  0.66575  0.61557  0.47593  1.0000
  H   H1411     1.0  0.03966  0.56222  0.61455  1.0000
  H   H1412     1.0  0.58309  0.69973  0.59391  1.0000
  C   C835      1.0  0.78261  0.56123  0.58174  1.0000
  C   C836      1.0  0.80234  0.54952  0.58813  1.0000
  S   S242      1.0  0.63304  0.85164  0.58339  1.0000
  H   H1413     1.0  0.86217  0.56961  0.55485  1.0000
  H   H1414     1.0  0.60946  0.56687  0.50429  1.0000
  N   N59       1.0  0.61446  0.58203  0.55235  1.0000
  C   C837      1.0  0.03066  0.56802  0.57678  1.0000
  H   H1415     1.0  0.59737  0.61158  0.53960  1.0000
  H   H1416     1.0  0.56523  0.96261  0.52166  1.0000
  H   H1417     1.0  0.94167  0.54522  0.57190  1.0000
  C   C838      1.0  0.62304  0.57537  0.53369  1.0000
  S   S243      1.0  0.57206  0.87576  0.59260  1.0000
  H   H1418     1.0  0.67116  0.00592  0.57785  1.0000
  H   H1419     1.0  0.88273  0.65298  0.59990  1.0000
  H   H1420     1.0  0.91229  0.64272  0.59471  1.0000
  H   H1421     1.0  0.56154  0.71006  0.63942  1.0000
  H   H1422     1.0  0.88758  0.68230  0.53758  1.0000
  H   H1423     1.0  0.91939  0.66714  0.56416  1.0000
  H   H1424     1.0  0.86070  0.69217  0.54699  1.0000
  H   H1425     1.0  0.94432  0.63974  0.57087  1.0000
  H   H1426     1.0  0.90961  0.65175  0.54151  1.0000
  H   H1427     1.0  0.65090  0.54894  0.55750  1.0000
  C   C839      1.0  0.92510  0.62739  0.56092  1.0000
  N   N60       1.0  0.87431  0.63117  0.56119  1.0000
  C   C840      1.0  0.86518  0.67296  0.54378  1.0000
  H   H1428     1.0  0.84740  0.65942  0.53333  1.0000
  C   C841      1.0  0.85516  0.60926  0.54636  1.0000
  C   C842      1.0  0.86276  0.58335  0.54237  1.0000
  H   H1429     1.0  0.83998  0.64548  0.56641  1.0000
  H   H1430     1.0  0.87723  0.67209  0.57269  1.0000
  H   H1431     1.0  0.88255  0.61966  0.60931  1.0000
  C   C843      1.0  0.68494  0.80312  0.49139  1.0000
  H   H1432     1.0  0.62146  0.62644  0.58022  1.0000
  H   H1433     1.0  0.72399  0.82007  0.44205  1.0000
  C   C844      1.0  0.88788  0.63427  0.59668  1.0000
  H   H1434     1.0  0.91214  0.60489  0.56686  1.0000
  H   H1435     1.0  0.67309  0.78423  0.51977  1.0000
  H   H1436     1.0  0.62051  0.76369  0.45129  1.0000
  H   H1437     1.0  0.67381  0.74623  0.50340  1.0000
  C   C845      1.0  0.70663  0.78934  0.46529  1.0000
  H   H1438     1.0  0.70430  0.83159  0.45744  1.0000
  H   H1439     1.0  0.58571  0.73049  0.62164  1.0000
  C   C846      1.0  0.63453  0.77573  0.46369  1.0000
  H   H1440     1.0  0.64811  0.79906  0.45928  1.0000
  H   H1441     1.0  0.84551  0.56813  0.53221  1.0000
  H   H1442     1.0  0.68415  0.80065  0.44134  1.0000
  C   C847      1.0  0.90713  0.64560  0.55660  1.0000
  H   H1443     1.0  0.88467  0.59137  0.53568  1.0000
  C   C848      1.0  0.66467  0.79431  0.50834  1.0000
  C   C849      1.0  0.02921  0.63395  0.59704  1.0000
  N   N61       1.0  0.68334  0.77747  0.48003  1.0000
  H   H1444     1.0  0.70846  0.81695  0.49676  1.0000
  C   C850      1.0  0.69164  0.75780  0.49314  1.0000
  C   C851      1.0  0.86839  0.61569  0.57999  1.0000
  C   C852      1.0  0.64207  0.55490  0.56977  1.0000
  C   C853      1.0  0.58392  0.55754  0.55681  1.0000
  H   H1445     1.0  0.70593  0.77084  0.45672  1.0000
  H   H1446     1.0  0.85669  0.62054  0.53261  1.0000
  H   H1447     1.0  0.72967  0.80025  0.47202  1.0000
  H   H1448     1.0  0.78814  0.53433  0.48768  1.0000
  H   H1449     1.0  0.83098  0.59932  0.54987  1.0000
  C   C854      1.0  0.86375  0.65516  0.56199  1.0000
  S   S244      1.0  0.59199  0.94283  0.60869  1.0000
  H   H1450     1.0  0.63631  0.62932  0.54620  1.0000
  H   H1451     1.0  0.98093  0.55235  0.59512  1.0000
  C   C855      1.0  0.03654  0.61634  0.63347  1.0000
  H   H1452     1.0  0.02469  0.57730  0.56383  1.0000
  S   S245      1.0  0.65858  0.54617  0.49244  1.0000
  H   H1453     1.0  0.84451  0.60827  0.58345  1.0000
  H   H1454     1.0  0.69856  0.71778  0.49498  1.0000
  H   H1455     1.0  0.71820  0.74215  0.47661  1.0000
  H   H1456     1.0  0.87067  0.59475  0.58010  1.0000
  H   H1457     1.0  0.55753  0.83103  0.48994  1.0000
  H   H1458     1.0  0.62070  0.53575  0.57359  1.0000
  H   H1459     1.0  0.60758  0.64625  0.56473  1.0000
  H   H1460     1.0  0.67911  0.81878  0.48293  1.0000
  C   C856      1.0  0.69671  0.73298  0.48394  1.0000
  Fe  Fe123     1.0  0.73052  0.54675  0.51727  1.0000
  H   H1461     1.0  0.03927  0.60984  0.64770  1.0000
  C   C857      1.0  0.70411  0.81170  0.45095  1.0000
  H   H1462     1.0  0.55728  0.63064  0.52811  1.0000
  H   H1463     1.0  0.66116  0.60154  0.56208  1.0000
  H   H1464     1.0  0.65344  0.74477  0.45996  1.0000
  H   H1465     1.0  0.56636  0.66036  0.59737  1.0000
  C   C858      1.0  0.02126  0.53918  0.61541  1.0000
  C   C859      1.0  0.59857  0.00847  0.51981  1.0000
  H   H1466     1.0  0.77512  0.54028  0.46515  1.0000
  H   H1467     1.0  0.60775  0.59914  0.51248  1.0000
  C   C860      1.0  0.77963  0.54086  0.55098  1.0000
  C   C861      1.0  0.00747  0.60665  0.62523  1.0000
  H   H1468     1.0  0.58963  0.57169  0.58699  1.0000
  S   S246      1.0  0.70010  0.56041  0.53220  1.0000
  H   H1469     1.0  0.75695  0.56695  0.55806  1.0000
  S   S247      1.0  0.88681  0.54693  0.59024  1.0000
  C   C862      1.0  0.56336  0.72491  0.62714  1.0000
  H   H1470     1.0  0.62612  0.79653  0.56840  1.0000
  C   C863      1.0  0.56753  0.98319  0.51396  1.0000
  H   H1471     1.0  0.56708  0.88027  0.49970  1.0000
  H   H1472     1.0  0.77709  0.57465  0.59096  1.0000
  H   H1473     1.0  0.61831  0.77514  0.47400  1.0000
  C   C864      1.0  0.57462  0.55386  0.57742  1.0000
  H   H1474     1.0  0.98796  0.59267  0.63308  1.0000
  S   S248      1.0  0.56100  0.71914  0.47546  1.0000
  H   H1475     1.0  0.00293  0.53046  0.54991  1.0000
  C   C865      1.0  0.60592  0.62372  0.56804  1.0000
  C   C866      1.0  0.60336  0.57600  0.51646  1.0000
  C   C867      1.0  0.96267  0.54542  0.56709  1.0000
  H   H1476     1.0  0.03033  0.58289  0.58785  1.0000
  H   H1477     1.0  0.58224  0.60972  0.57170  1.0000
  H   H1478     1.0  0.58864  0.75058  0.59468  1.0000
  C   C868      1.0  0.56794  0.74336  0.58572  1.0000
  H   H1479     1.0  0.97676  0.56834  0.56193  1.0000
  C   C869      1.0  0.77117  0.55686  0.56316  1.0000
  H   H1480     1.0  0.65867  0.55825  0.58152  1.0000
  C   C870      1.0  0.97812  0.53661  0.58372  1.0000
  H   H1481     1.0  0.55193  0.55301  0.57803  1.0000
  C   C871      1.0  0.68125  0.02730  0.58476  1.0000
  H   H1482     1.0  0.00058  0.53970  0.62014  1.0000
  H   H1483     1.0  0.62243  0.55288  0.53379  1.0000
  N   N62       1.0  0.00764  0.53625  0.58000  1.0000
  H   H1484     1.0  0.58599  0.76519  0.64375  1.0000
  Fe  Fe124     1.0  0.55387  0.68696  0.52545  1.0000
  H   H1485     1.0  0.56135  0.01489  0.54232  1.0000
  C   C872      1.0  0.56533  0.75436  0.63462  1.0000
  S   S249      1.0  0.55686  0.93032  0.55863  1.0000
  H   H1486     1.0  0.56711  0.77052  0.62325  1.0000
  H   H1487     1.0  0.56879  0.97831  0.49919  1.0000
  H   H1488     1.0  0.61651  0.00391  0.51414  1.0000
  C   C873      1.0  0.56971  0.68170  0.60368  1.0000
  H   H1489     1.0  0.58235  0.53567  0.55268  1.0000
  H   H1490     1.0  0.56840  0.72883  0.57445  1.0000
  H   H1491     1.0  0.83231  0.53991  0.47697  1.0000
  Fe  Fe125     1.0  0.69280  0.53329  0.48113  1.0000
  S   S250      1.0  0.77069  0.53964  0.52694  1.0000
  C   C874      1.0  0.80923  0.53202  0.57623  1.0000
  H   H1492     1.0  0.55468  0.87219  0.55491  1.0000
  S   S251      1.0  0.55223  0.87850  0.64461  1.0000
  H   H1493     1.0  0.54975  0.83023  0.62195  1.0000
  C   C875      1.0  0.55289  0.02111  0.48655  1.0000
  H   H1494     1.0  0.55071  0.79668  0.46836  1.0000
  H   H1495     1.0  0.86086  0.52970  0.48505  1.0000
  H   H1496     1.0  0.95583  0.52923  0.55548  1.0000
  C   C876      1.0  0.68538  0.02847  0.60419  1.0000
  H   H1497     1.0  0.96454  0.53142  0.90932  1.0000
  H   H1498     1.0  0.58721  0.02255  0.97089  1.0000
  N   N63       1.0  0.56307  0.73907  0.98928  1.0000
  H   H1499     1.0  0.58689  0.78849  0.96301  1.0000
  S   S252      1.0  0.01971  0.54492  0.00083  1.0000
  H   H1500     1.0  0.63746  0.74893  0.99034  1.0000
  H   H1501     1.0  0.62157  0.76729  0.00412  1.0000
  S   S253      1.0  0.94056  0.55528  0.99572  1.0000
  H   H1502     1.0  0.00707  0.62552  0.94636  1.0000
  H   H1503     1.0  0.98115  0.60271  0.92015  1.0000
  H   H1504     1.0  0.58356  0.98576  0.02595  1.0000
  C   C877      1.0  0.59224  0.79439  0.97792  1.0000
  H   H1505     1.0  0.01333  0.61844  0.90632  1.0000
  H   H1506     1.0  0.00112  0.61937  0.97064  1.0000
  C   C878      1.0  0.96396  0.54720  0.93788  1.0000
  C   C879      1.0  0.56953  0.77143  0.99122  1.0000
  S   S254      1.0  0.59169  0.88727  0.98054  1.0000
  N   N64       1.0  0.99775  0.56370  0.94044  1.0000
  C   C880      1.0  0.00574  0.58346  0.95734  1.0000
  H   H1507     1.0  0.59194  0.81628  0.97957  1.0000
  H   H1508     1.0  0.61313  0.72878  0.00863  1.0000
  C   C881      1.0  0.62615  0.99341  0.99765  1.0000
  C   C882      1.0  0.60401  0.99412  0.98510  1.0000
  C   C883      1.0  0.99628  0.59705  0.91212  1.0000
  H   H1509     1.0  0.62624  0.97229  0.00124  1.0000
  C   C884      1.0  0.00906  0.54058  0.94465  1.0000
  H   H1510     1.0  0.59849  0.74745  0.96994  1.0000
  H   H1511     1.0  0.99663  0.56968  0.97010  1.0000
  H   H1512     1.0  0.03052  0.59542  0.95987  1.0000
  C   C885      1.0  0.58991  0.73543  0.98324  1.0000
  C   C886      1.0  0.64857  0.02017  0.00531  1.0000
  C   C887      1.0  0.60427  0.02178  0.98056  1.0000
  C   C888      1.0  0.68141  0.00646  0.95357  1.0000
  H   H1513     1.0  0.58336  0.71154  0.98020  1.0000
  H   H1514     1.0  0.55159  0.95591  0.01569  1.0000
  H   H1515     1.0  0.66585  0.01941  0.01479  1.0000
  S   S255      1.0  0.57635  0.96143  0.97416  1.0000
  H   H1516     1.0  0.01567  0.56649  0.91323  1.0000
  C   C889      1.0  0.55430  0.72347  0.00796  1.0000
  C   C890      1.0  0.61692  0.74586  0.99748  1.0000
  H   H1517     1.0  0.57861  0.77965  0.00550  1.0000
  C   C891      1.0  0.55871  0.97631  0.02409  1.0000
  C   C892      1.0  0.04343  0.55253  0.94782  1.0000
  H   H1518     1.0  0.02617  0.60627  0.00193  1.0000
  H   H1519     1.0  0.55418  0.99336  0.01623  1.0000
  H   H1520     1.0  0.55109  0.69999  0.00720  1.0000
  C   C893      1.0  0.01276  0.58142  0.92334  1.0000
  H   H1521     1.0  0.61560  0.79807  0.98142  1.0000
  H   H1522     1.0  0.56120  0.73514  0.94913  1.0000
  H   H1523     1.0  0.95396  0.53564  0.95109  1.0000
  H   H1524     1.0  0.56564  0.55126  0.01312  1.0000
  H   H1525     1.0  0.95346  0.56237  0.93507  1.0000
  C   C894      1.0  0.99513  0.60804  0.95688  1.0000
  Fe  Fe126     1.0  0.57217  0.86759  0.00824  1.0000
  H   H1526     1.0  0.69797  0.00808  0.94325  1.0000
  H   H1527     1.0  0.66066  0.98538  0.95083  1.0000
  C   C895      1.0  0.63225  0.83269  0.03375  1.0000
  H   H1528     1.0  0.73608  0.52937  0.02094  1.0000
  H   H1529     1.0  0.97041  0.59918  0.95487  1.0000
  Fe  Fe127     1.0  0.56427  0.91299  0.98213  1.0000
  H   H1530     1.0  0.98365  0.58356  0.89978  1.0000
  H   H1531     1.0  0.68971  0.00426  0.96793  1.0000
  H   H1532     1.0  0.03590  0.59877  0.92716  1.0000
  C   C896      1.0  0.04791  0.60713  0.99969  1.0000
  S   S256      1.0  0.59737  0.86193  0.03385  1.0000
  H   H1533     1.0  0.70168  0.53231  0.01646  1.0000
  H   H1534     1.0  0.57257  0.73430  0.01876  1.0000
  Fe  Fe128     1.0  0.96923  0.53109  0.00117  1.0000
  H   H1535     1.0  0.65019  0.85402  0.02982  1.0000
  H   H1536     1.0  0.04880  0.53328  0.94967  1.0000
