data_image0
_chemical_formula_structural       CFeSFeS2FeSFeHSH2SNSHSCSHCH3FeSHCHCHSHNC3SH9CHC2SCH2C2H2C6H4C2HCH3FeCNC4H13CS2HCHC3HC2H2FeCHFeCSHFe2HSC2HNC8H21CH2C2H2C3SHFeNFeHCH4SHCH2CHCHCHFeH2CHC2HCH2S2CHSH3SH2C4H2CH2CHCHC2H7CNC2HCHSH3S2HCH3C3H4C2H2FeC2H2CHSH3CH3CH2FeCH2CHCH3CH4CH2CHCSH4FeHSFeS2H2FeH2SHSFeH2SHCSH2C2HCFeSHFeSHFeSFeS3HCH2C2H2CSCHC2HCHFeH2C3HC2H2FeH3CSHC6H4C5NH3C3H4CH2SCHC3SFe2CHSHCH2C2SH5NCH2NFeHFeSC2H5SCH3C2H3C2HCH3SH2CHCHSH3CHCHCH3CH4CSHCHCN2H4CH2CH3CNH4CHCNC3SHCH2CH3SH4FeH2FeCSHC3HCHCHCHFeH2CHC3NC8H21C2H4SCH3SH4C3HSH2S3C2H3CH2CH5CHCH2SC2H2C3HC3HCH7CHNH2C2H4CHCH2CH4CH5CH6SCSHCH2C2FeSH2CHSHCHSC3FeHC2HC2HC2HC2HCHC3H2CH2CHSCSC2SHCSHC2SH2CHFeS2FeSHCFeS2HFeS3H2CFeC6H11FeC2H3CFeHCS3C5H5C4HCHCH6CFeH2C3HCH2CHC2SH2SHNHNH4SHFeHFeSH2C3H2C2NC8H23CH3CH5C2HCHSH4FeSH4SHC5H2CHCHC3HC2H4CFeC2HCH2CH3CH2C2HNC7NH18FeH3SC3HCHCHCH12SH5C2HCH2SH2NCH2NHS2HSC4NH7C3H3CH3CHSH2CH2CH6SCNSH2FeSCFeSHFeSFeSHSHSHCHFeSFeSHFeS3FeSFeS3HC6H4C6H4C3HC2HCH4CHC2H5C4HCHC2H3CH3CH2CHCSH3C4HCH4C2H2C2H2SH2NCHCFe2H2SHCHSCH3CHNHC3H3NCH2FeC2H2CHSFeH4C2H2C2H4CH3SH5S2H2C2NC8H9CH10NCH2C2H2CHCH3CH2C3H2CNCHCH2CHCHSHCH3C3H5CHS2H2S2C2H3SH4CH3S2H3C2HCHCH3FeH3FeHCH2C2HCH2CHCH2C3HCH8CH3CSHCSH2S2C3SHCHNHSHC2FeH3C3HNH2SCH5CHC3H2CHFeSH3CHC2H3CFeNH3SH2SC3NC8H14C2H4CH3C2FeCFe2H2CH2CHCH4CHSCH2CH2SFeHSHCSH2CSHS3CH2C3H2CFeC2HCHSHCSHFeH2CFeC3H2SH3CH3C3HCFeCH5CH2CFeH3SHFeHSCH4NSH4C2SCH4C3H2C2HCH6SC2HCNHCH2SHSNHCHCH3Fe2CH2SC2H2FeSCSHCFeH2CHCH5SCHCHCH2SCHCHSCH4C2HC2H2C2SCHCHC3H2C2HSCH2SH2CH5CH3CH3CH8CSC2H3CHCHC2H2CHCH2CHCNH3C2FeHNH7CHCH2C3H3C3NHCHSC2HCHCH4C2H2CFeS2FeSH2SCH4CNHS2HFeSHFeSHFeHFeS4C2SCHCHC3HNHC3H2C3H3C3HCH3C2FeH6CHSHSH4C2H2C2H2CH3CSH4CH3CHSCHFeC5HC2NH2SH6CHCH8FeH2CHCSCHC2H3CHFeHCH2CH3CH2C2H3C2HSH2C2HNHCH3C2HSH4CHCH2C5H2FeH7CHSH5FeS2FeCH2FeSHSFeS2FeS2FeSFeS3H2FeS2HFeHS2FeS2FeS2FeSFeS3CSH3CHSNHCHFeS2FeSHFeCFeS3FeS2FeS2FeSFeS3CHFeS2FeS2FeSFeS3HCHCS2C3H4SCFeSHSH10C2FeHC6H4C6H8C2H2C6H9CH2C4H2CH5SCH5CH5C2H4C6H4C6H5C3H7CH2C6H4C6H4C6H3FeC6H7CH2SCH3CHCHSHNHC2HCHCH5C2H2CH6CSNC8H20NC8H20NC8H21CHCHCH2CSHC2SHCH4CHNC7H15CH4CHCH3FeH5CHCH3FeH2C2H5NH2C7HCH2CH2FeH4CH3CNCH4CH5C2HCFeCSHCH3FeH2NCH7C2H5C4H2FeH2C3NHCHFeC2HC3H3CHC2H5C2HC3H6NCH2SH3C2N2H4CHNHSC2H4CSH3CH6SNCSHCH3CNCFeH3CHC2HSCH4C2H6C2H2C2HCHC3HCH2CH4CH2SHCH2CH2C3HCH2CH4C2HC3H4C2HCHCHSHC2H4CHC3H7CNH2S2H6CHCNCHCH3CSFeS2FeS2FeSFeHS2FeS2C5H2S4H2SHFeSHFeSC2SCHCHC2FeHFeSHCHC2HCH2C2HCH6C6H5C5SCH2CHC2HC3H4C6H5CHCFeC2H2NH7CH2CH3C3HC2SH2CFeHCH2NH5SH4NCH3CH2NCHCH2CH5CHCHC2H3CFeHNC2H4CH2C3SHC4H3SH4CHFeH2FeH4C5H4SC3H2CH2CSNHCHFeSH3SC3HCH2CHCH11FeH5FeCSH2SFeH2SHSHFeCH3CHS2H4NHCH2SH3CH2CHFe2S2CS4CSHFeS2H3FeSFeHSHCH2FeS2FeS2FeCFeS3CHSH4FeCH5S2HFeSCFeS2FeHFeS3CH5C2HNH5SNC2FeC6HCH3C3HCH5C2HC2H2SC6H4S2C2H3CH2CHSC11H4C2H2C6H4SH3C2H2CH2C2NH2CH4CSCH2FeNC8H21NHC3H2CH2FeHNCSCHSHCH2C2H6C2H5CH2C3H8FeH5CH3C3H2SC2H2CH2C2SHSH3NC6HFeH8CNH8C2HCHC2NC8H14C3HCH2CHSCH3C3HCFeHFeHNCH3CHFeC2H3CH9CH5C2H3C2NH3CSCH4C2H2SH4CSCFeC2HCH2NSH2NHC3HCHNCHSH2C2NH8CHCH3CHC2H2CHSHCH4CHCH9CH5CHC2HCHCH2CHSHCHCH2CHCH9C3H4CH2CH7CSCH2C2H2CH10C2HCHCSC2H5C3NH4CHC3H2C3HCH3CH4CFeCH5C3FeH3SCH3SHCFeHSFeHSNHNHS4FeSHCSFeHS2HNHS2CHCHFeH2SC2H3CFeHCHFeH4CH5CHCH3CNHCH3CHCH3SHCHCSCHSC2H6CH4CHFeHC6H4CHC2H2C2H5CH2CH3C6H12SCHC2HCNH3FeHC2SH2CHCHCFeNH2CH9SCH4CHC2H4CFeH2C2H3CH2CH2C2H2FeSCFeHCSH3C7H5CH2CH5C2H2C2HSH2SFeS2FeS2FeSH2S2H6CHFeNH5CHSCH7CH2C2H3C2SFeC2SHFeHFeS2FeS2FeSFeS3CH3SH2CHFeHC2H2CH2C7H8CHC5H3C2FeCH12CSH6C6H7C2H3C8H3C6H4CHFeCH4CHCSHCH2CH4CHCH3C2H5SCH4FeSCH2CH2CSC2H5CH3SCH2C2H6CHNHNC4HCH7C2HSCH4C4H2CH3CHCHCH4CHC2H3C2HCHCNHS3H3CHCHC2H5NHCNC5HCH2CH5C2H9CHNCNHC3H4SHCH2CH8S2H2SHC6FeC2H3CH2C2FeCHSFeCHCSHSH2C2H3C3NHSHCFeCH2SHCHS2CH3CHCSH2NSHCH2FeCHFeC2H2C2SHNH2CH3CHCH13CHCH3CFeSHFeHSFeH3FeHS2FeS2FeS2FeSFeS3FeS2FeS2FeHFeS3C2H3C2H3SFeS2FeS2FeSFeS3FeS2FeS2FeSFeS3C4H2C6H5CH2C6H4SC3H2C6H4CHSH3CH2SC6H4C6H4C6H4C6H6C2H10C6H2C2H5NC8H14CHCH3C3HC2HC2H2NH3C3H5NHCHCH2CH2CH5CHNC8H20NC6HCH9FeSCH2FeNCH4SCHCH3C2HCH7NFeHCHNHC3HSH8CH5NC8H11CSHFeH5CHC3H6C3HC3HC2H6CHC2H9NH3C3H4C2H4CH4SHCHCHCHCH7CFeHFeH4CSH2C2H2C2HCH6C2SCHCH2CSH3CH7CHCHCHSH2CH2CNHFeSHC2H3SHC2HCH2CHSH3CH4SH3SHCHCNH2SH2CH2CHCHC2HCH2CHC3HCHNH2CH3C2HSHCSCNH6CH2CH2C3HC2HCH3CH2NC4H2FeCHCH2SHCS2HCH3S2H5C3NHSH2CH2C2H2C2H2SHSH2SHCHC2H2CSHC4H2C2SH5CH2NHC2HSCHSHC3HCH3SHCH6CHSCHCHCH3SHCH2CH2C4SCHSCHSCNC5HC2H7NH3FeSFeH5SFeSFeHFeC2HFeCFeHNCH2CH5FeC2SFeC2H4CHCHCHSCH2CH2CS2CSH5C2SHCHFeH2CHS2HCH5C2H2CHC2HCH9FeC2H5CH5NC3HCSCFeH2CHCHCSH2CHSFeSNHCH3CH4C2H2CSCFe2HFeH4FeS2FeS2FeHFeS3H4C2HCSHCNH2CSC7H5CH3CH4SH4CH2NHCH3CH8C2H5C2H2C2HCHCHSHC2H4C2HCH3C3HCH2CHC2H2C3FeCH4CH6CH2NCH2C2H3C2HC2H3NH4SH2CHCH5SNH2CFe2S3HC2FeSCSHCH2CSHCHFeCHFeS2H2FeSHSFeSFeSFeS2FeSFeS3FeS2FeS2FeSFeS3H2CFeS2FeSHSH2CHCHC6H5C6H4C6H4NHSHNH3NHC6H4C6H11C7H5CH2CFeC6H5C2H8C3H5C6H6C2HNC6H5CH7C2H7C3H3CH5CH2NHCH4C3FeH9CHC2HCH2CH5C2H8C2H3CH4SH3C2HCH2CH2FeHCH8FeH2CHNHCHS2CH3CH2CSH4CHCHC2H3CH13CH2CH6CHCNCHC2HC2HC2HCHCH9CHNH3CH5FeHCHNHCHCH3C3H2SH2C2HCH3CH4CH10SCSC2HCHSCH2CHCHCSC3HC3SCH5CHC2H4SHCHC2HCH3C2HFeSFeS2FeSFeHS2FeS2FeS2FeSFeCS2H3SH4C6H3CHCHC3H3CH3CHC7H4C5H5C2H5FeCHCNHCSH3SH3CHCHC2H2CHC3NC2H6CH2CHC2SH2CHCH2CH2SHCHC2H2CSHCH2FeH2SH2SHCHCHFeH3NCH2CH5C2H3C2FeSH3SH2C2HC3H2NHC2HNHCH3C2H7NHCH6C3HCH4CH3SHCH3CHSFeC2SHC2H2SH2FeH2CH2CH2C2SFeCHNCFe2SHS2CSFeSFeCFeSHSC4H3C7H6CSHCH2CH3CHC2HCHCH2C5HCH6SH5CH4CH3CSHCH2FeH4SCFeHNH8C2NH2C6H2CH3CH2S3CH5FeCSFeCFeCHCH4SHCH2FeC2H3FeCHS2C2HSH2SHCNH5NCHC4SC4HC2SCHC2HFeCHCH7CH4S3H3FeC2HSHCH3CH2CSHCH3SCSH5CH6CH5CFeC2HCHSH3CHC2H2NHC2H3CH2CH5FeNCH4CHCH3SC2HNH2CH2C2H2CHFeS2FeSFe2SFeS3FeS2FeS2FeSFeS3HFeS2FeS2FeCFeS3FeS2FeS2FeSFeS3CSCHFeHSFeHSH2FeHS2H4SHSCFeSH2FeS2FeS2FeSFeS3C8HCH9CH2CH3C7H4C6H5C6H4C6H4C6H4C6H4FeHCH2C6H4C3FeC2HSH2C6H4C6H4C6H4C6H4N2H2CFeH2CHSCH3CSCH4CH7CH2C2NC5HCNH2CH11CH8CH2S2HCH3CH3SH2C2HCNC8H20NCHC3H5SCH9CFeH3CHNC7H18CHC3H8C2H3C2HSH3SHCHNC8H18CHNC8H20SC4H2CHCHCHCSH2CHC4SHC2HSNHC3HC3FeH3CNH4CH2NH4NHCH4SHCH3CH4CH2CH8CH3CHCH3CSCNH4CH2CHCHCHCH6FeHCHNHCNH3CH2CH2SCH3C2H3CHCH6CH2C2H4C2H4CH3CHCHCH3C2SFeH2SH2FeH6NSH2SHSC2H3CHFeH2CH3CH5SC4HCNHCH3C3H6CH3C2HC2H3CHC2H3CH2FeS2HFeS2CH2SHC2NCH2C2HC3HNCH2FeCH8C3SH3FeH3SC2HC2SC2H6FeCHCH3C2H2SH3C2HCHC3H4CH2CH5FeS5CH2C2H3CFeCSCHS2CHCHSHSFeSHFeS2FeSFeS3H7FeS2FeS2FeCFeS3HC6H9SHCSHC2HSH2SC2HCHC2SCHCH5CHCH4CHC4SC2HC7H5C2H3CNH3C4H5C6H4FeHNH5C2H4CHNCSC3H5C2HCH7CHNH3CNC8H19CHC2HCHFeHSHCH3FeH4FeH5CHC2HCHCHCFeCHSHCHFeHCH3SC2H3C4H4CHC2HNCSCHNCNC8H20CFeH4CH4CH2CH3CHFeH3C2HC2HCFeCSFeNSCFeH3CSH2CH3CHCH3CHCHSC2H5CFeNCSCFeNC3H4SHCH3C2H2CH3SHSCHSFeHFeH3C2H4C2H6C2HCH7CHC2H4CH2S2CFeHCH2NH4C2H4CH8CNH3SH2CHC3HCNH2CSFeHSH2CH2CH3CHCHCH3FeCH4SHC2H5CH2FeH2C2SCHC2H6CH2C3H2CH5C3NCHCSCH3CH2S2CFeHSHC3HFeH3C3H2CHCHCH2C3HSHFeH4CSH3CHFeHSH7SCH2CHCSCFeHCHC2HCS2NHCHCHC3H3CH4NH2CHC2FeH4CH3CH3SCHC2HSCSH8C3H2CHCH4CH2FeHCH3CHC4H2SH3CHC2HC2FeH3C2H2CH2C2S2H3C3FeHC2HCHSCH2C3HCHCH2CH6CH2SH2CH2SHCHSNSHC2HNH3CHCH2C2FeHCNH7C3H
_chemical_formula_sum              "C2688 Fe384 S768 H4608 N192"
_cell_length_a       95.5044
_cell_length_b       96.3249
_cell_length_c       96.138
_cell_angle_alpha    74.1651
_cell_angle_beta     74.1807
_cell_angle_gamma    73.5032

_space_group_name_H-M_alt    "P 1"
_space_group_IT_number       1

loop_
  _space_group_symop_operation_xyz
  'x, y, z'

loop_
  _atom_site_type_symbol
  _atom_site_label
  _atom_site_symmetry_multiplicity
  _atom_site_fract_x
  _atom_site_fract_y
  _atom_site_fract_z
  _atom_site_occupancy
  C   C1        1.0  0.42270  0.20847  0.05621  1.0000
  Fe  Fe1       1.0  0.41533  0.04751  0.20764  1.0000
  S   S1        1.0  0.40343  0.07025  0.21153  1.0000
  Fe  Fe2       1.0  0.39010  0.04400  0.19638  1.0000
  S   S2        1.0  0.37617  0.06636  0.19917  1.0000
  S   S3        1.0  0.38165  0.02833  0.18915  1.0000
  Fe  Fe3       1.0  0.39779  0.07369  0.18948  1.0000
  S   S4        1.0  0.40015  0.09405  0.17167  1.0000
  Fe  Fe4       1.0  0.38339  0.06033  0.22082  1.0000
  H   H1        1.0  0.45020  0.18901  0.03078  1.0000
  S   S5        1.0  0.41117  0.05165  0.18491  1.0000
  H   H2        1.0  0.46907  0.03150  0.20581  1.0000
  H   H3        1.0  0.41057  0.20327  0.03059  1.0000
  S   S6        1.0  0.43362  0.01013  0.10547  1.0000
  N   N1        1.0  0.44632  0.29934  0.00491  1.0000
  S   S7        1.0  0.41973  0.08101  0.10744  1.0000
  H   H4        1.0  0.44209  0.21433  0.01677  1.0000
  S   S8        1.0  0.43556  0.05105  0.08504  1.0000
  C   C2        1.0  0.42625  0.25084  0.04878  1.0000
  S   S9        1.0  0.46202  0.12769  0.02579  1.0000
  H   H5        1.0  0.36245  0.22645  0.05586  1.0000
  C   C3        1.0  0.47216  0.08322  0.02875  1.0000
  H   H6        1.0  0.45768  0.21947  0.02933  1.0000
  H   H7        1.0  0.37170  0.21649  0.07076  1.0000
  H   H8        1.0  0.49690  0.10545  0.07536  1.0000
  Fe  Fe5       1.0  0.40260  0.25324  0.02831  1.0000
  S   S10       1.0  0.38085  0.25158  0.02500  1.0000
  H   H9        1.0  0.48079  0.18396  0.99900  1.0000
  C   C4        1.0  0.44728  0.28788  0.01908  1.0000
  H   H10       1.0  0.46644  0.01785  0.13895  1.0000
  C   C5        1.0  0.46516  0.20847  0.03217  1.0000
  H   H11       1.0  0.45888  0.25142  0.02335  1.0000
  S   S11       1.0  0.41640  0.23851  0.01290  1.0000
  H   H12       1.0  0.38187  0.99932  0.18641  1.0000
  N   N2        1.0  0.45486  0.09512  0.16065  1.0000
  C   C6        1.0  0.47275  0.05245  0.20585  1.0000
  C   C7        1.0  0.47079  0.09852  0.02308  1.0000
  C   C8        1.0  0.43085  0.25201  0.06095  1.0000
  S   S12       1.0  0.40392  0.27422  0.01143  1.0000
  H   H13       1.0  0.43658  0.10843  0.13862  1.0000
  H   H14       1.0  0.35581  0.99157  0.23719  1.0000
  H   H15       1.0  0.48459  0.04874  0.20265  1.0000
  H   H16       1.0  0.47441  0.99538  0.19136  1.0000
  H   H17       1.0  0.45091  0.02490  0.15162  1.0000
  H   H18       1.0  0.46837  0.08332  0.17693  1.0000
  H   H19       1.0  0.49009  0.08268  0.11695  1.0000
  H   H20       1.0  0.45712  0.10058  0.18032  1.0000
  H   H21       1.0  0.46438  0.17629  0.02144  1.0000
  C   C9        1.0  0.47357  0.30212  0.00094  1.0000
  H   H22       1.0  0.44907  0.01829  0.17775  1.0000
  C   C10       1.0  0.46409  0.09481  0.17128  1.0000
  C   C11       1.0  0.47666  0.02350  0.15952  1.0000
  S   S13       1.0  0.44497  0.03992  0.11760  1.0000
  C   C12       1.0  0.45087  0.21291  0.00659  1.0000
  H   H23       1.0  0.45841  0.04313  0.15510  1.0000
  H   H24       1.0  0.42298  0.25235  0.07142  1.0000
  C   C13       1.0  0.46312  0.10855  0.03226  1.0000
  C   C14       1.0  0.44549  0.25326  0.05947  1.0000
  H   H25       1.0  0.45060  0.11092  0.05415  1.0000
  H   H26       1.0  0.45773  0.26818  0.00014  1.0000
  C   C15       1.0  0.40619  0.09032  0.15384  1.0000
  C   C16       1.0  0.39997  0.10023  0.14233  1.0000
  C   C17       1.0  0.40434  0.09729  0.12810  1.0000
  C   C18       1.0  0.41522  0.08460  0.12522  1.0000
  C   C19       1.0  0.42187  0.07490  0.13659  1.0000
  C   C20       1.0  0.41725  0.07771  0.15093  1.0000
  H   H27       1.0  0.39151  0.11005  0.14449  1.0000
  H   H28       1.0  0.39922  0.10484  0.11930  1.0000
  H   H29       1.0  0.43049  0.06524  0.13435  1.0000
  H   H30       1.0  0.42254  0.07032  0.15960  1.0000
  C   C21       1.0  0.45123  0.25129  0.03390  1.0000
  C   C22       1.0  0.40964  0.01191  0.19135  1.0000
  H   H31       1.0  0.47041  0.07495  0.15528  1.0000
  C   C23       1.0  0.49408  0.04557  0.12105  1.0000
  H   H32       1.0  0.47343  0.04641  0.16046  1.0000
  H   H33       1.0  0.46769  0.22710  0.99858  1.0000
  H   H34       1.0  0.48786  0.09211  0.04645  1.0000
  Fe  Fe6       1.0  0.43806  0.06148  0.10215  1.0000
  C   C24       1.0  0.47298  0.20141  0.01858  1.0000
  N   N3        1.0  0.39848  0.20347  0.05313  1.0000
  C   C25       1.0  0.40805  0.19526  0.04127  1.0000
  C   C26       1.0  0.39628  0.19308  0.06808  1.0000
  C   C27       1.0  0.40178  0.18364  0.03813  1.0000
  C   C28       1.0  0.38347  0.18488  0.07197  1.0000
  H   H35       1.0  0.41900  0.18906  0.04408  1.0000
  H   H36       1.0  0.40679  0.18456  0.06939  1.0000
  H   H37       1.0  0.39392  0.19929  0.07702  1.0000
  H   H38       1.0  0.42643  0.21731  0.05867  1.0000
  H   H39       1.0  0.37779  0.23227  0.05778  1.0000
  H   H40       1.0  0.40087  0.17417  0.04768  1.0000
  H   H41       1.0  0.40979  0.17894  0.02888  1.0000
  H   H42       1.0  0.39104  0.18846  0.03447  1.0000
  H   H43       1.0  0.38723  0.17338  0.07808  1.0000
  H   H44       1.0  0.37967  0.18391  0.06248  1.0000
  H   H45       1.0  0.37372  0.19008  0.07972  1.0000
  H   H46       1.0  0.43575  0.09477  0.17909  1.0000
  H   H47       1.0  0.47572  0.29167  0.00921  1.0000
  C   C29       1.0  0.44195  0.06108  0.21495  1.0000
  S   S14       1.0  0.48742  0.03259  0.11644  1.0000
  S   S15       1.0  0.46825  0.02919  0.08800  1.0000
  H   H48       1.0  0.43457  0.06929  0.18417  1.0000
  C   C30       1.0  0.45574  0.18682  0.01961  1.0000
  H   H49       1.0  0.48029  0.19057  0.02261  1.0000
  C   C31       1.0  0.44845  0.04693  0.21192  1.0000
  C   C32       1.0  0.39277  0.99926  0.18777  1.0000
  C   C33       1.0  0.45168  0.00286  0.15070  1.0000
  H   H50       1.0  0.46206  0.07202  0.13641  1.0000
  C   C34       1.0  0.44153  0.08895  0.16981  1.0000
  C   C35       1.0  0.37152  0.30736  0.99941  1.0000
  H   H51       1.0  0.36842  0.02882  0.22486  1.0000
  H   H52       1.0  0.44581  0.08215  0.21494  1.0000
  Fe  Fe7       1.0  0.45949  0.05185  0.07514  1.0000
  C   C36       1.0  0.46390  0.04251  0.20783  1.0000
  H   H53       1.0  0.45917  0.11464  0.14399  1.0000
  Fe  Fe8       1.0  0.39494  0.23858  0.00787  1.0000
  C   C37       1.0  0.41127  0.19189  0.99700  1.0000
  S   S16       1.0  0.36440  0.29142  0.00418  1.0000
  H   H54       1.0  0.48291  0.02592  0.14795  1.0000
  Fe  Fe9       1.0  0.47014  0.13545  0.00126  1.0000
  Fe  Fe10      1.0  0.46822  0.04122  0.10492  1.0000
  H   H55       1.0  0.43375  0.19293  0.01346  1.0000
  S   S17       1.0  0.39581  0.03738  0.21862  1.0000
  C   C38       1.0  0.49424  0.07089  0.12047  1.0000
  C   C39       1.0  0.46577  0.07788  0.04355  1.0000
  H   H56       1.0  0.35314  0.02147  0.21428  1.0000
  N   N4        1.0  0.39041  0.04710  0.13567  1.0000
  C   C40       1.0  0.38769  0.06084  0.12364  1.0000
  C   C41       1.0  0.38113  0.05117  0.15004  1.0000
  C   C42       1.0  0.38489  0.03530  0.13252  1.0000
  C   C43       1.0  0.40695  0.04225  0.13536  1.0000
  C   C44       1.0  0.39475  0.05899  0.10759  1.0000
  C   C45       1.0  0.38546  0.06309  0.15490  1.0000
  C   C46       1.0  0.38633  0.02025  0.14358  1.0000
  C   C47       1.0  0.41191  0.03209  0.14956  1.0000
  H   H57       1.0  0.37549  0.06551  0.12424  1.0000
  H   H58       1.0  0.39211  0.06975  0.12508  1.0000
  H   H59       1.0  0.38128  0.04153  0.15937  1.0000
  H   H60       1.0  0.36910  0.05517  0.14946  1.0000
  H   H61       1.0  0.37292  0.03943  0.13171  1.0000
  H   H62       1.0  0.39115  0.03256  0.12165  1.0000
  H   H63       1.0  0.41284  0.03644  0.12610  1.0000
  H   H64       1.0  0.41179  0.05211  0.13284  1.0000
  H   H65       1.0  0.38871  0.05296  0.10375  1.0000
  H   H66       1.0  0.39399  0.07014  0.10012  1.0000
  H   H67       1.0  0.40675  0.05347  0.10614  1.0000
  H   H68       1.0  0.38293  0.07418  0.14760  1.0000
  H   H69       1.0  0.37882  0.06414  0.16617  1.0000
  H   H70       1.0  0.39735  0.06006  0.15558  1.0000
  H   H71       1.0  0.38031  0.02108  0.15504  1.0000
  H   H72       1.0  0.39819  0.01448  0.14329  1.0000
  H   H73       1.0  0.38125  0.01299  0.14018  1.0000
  H   H74       1.0  0.42091  0.02254  0.14651  1.0000
  H   H75       1.0  0.40313  0.02744  0.15809  1.0000
  H   H76       1.0  0.41688  0.03806  0.15467  1.0000
  H   H77       1.0  0.43287  0.09090  0.16345  1.0000
  C   C48       1.0  0.46637  0.03835  0.16260  1.0000
  H   H78       1.0  0.43010  0.06429  0.21894  1.0000
  H   H79       1.0  0.44782  0.18036  0.00316  1.0000
  C   C49       1.0  0.46623  0.00617  0.19011  1.0000
  C   C50       1.0  0.44994  0.11111  0.15305  1.0000
  H   H80       1.0  0.45821  0.09156  0.12812  1.0000
  H   H81       1.0  0.48647  0.09529  0.15681  1.0000
  C   C51       1.0  0.45693  0.08326  0.13871  1.0000
  C   C52       1.0  0.35442  0.00930  0.21792  1.0000
  C   C53       1.0  0.45985  0.01474  0.15035  1.0000
  S   S18       1.0  0.48657  0.23554  0.01091  1.0000
  H   H82       1.0  0.47824  0.07550  0.02166  1.0000
  Fe  Fe11      1.0  0.38332  0.27149  0.00656  1.0000
  N   N5        1.0  0.46292  0.19932  0.01002  1.0000
  Fe  Fe12      1.0  0.49120  0.24750  0.02546  1.0000
  H   H83       1.0  0.44953  0.23600  0.00693  1.0000
  C   C54       1.0  0.43596  0.11537  0.14630  1.0000
  H   H84       1.0  0.47164  0.01516  0.18941  1.0000
  H   H85       1.0  0.43477  0.12697  0.13984  1.0000
  H   H86       1.0  0.42559  0.11516  0.15504  1.0000
  H   H87       1.0  0.44313  0.99691  0.22431  1.0000
  S   S19       1.0  0.46850  0.05864  0.05067  1.0000
  H   H88       1.0  0.37737  0.20503  0.04737  1.0000
  C   C55       1.0  0.44359  0.18350  0.01401  1.0000
  H   H89       1.0  0.42359  0.19889  0.06569  1.0000
  H   H90       1.0  0.45268  0.08395  0.06399  1.0000
  C   C56       1.0  0.45664  0.10321  0.04703  1.0000
  H   H91       1.0  0.45742  0.00591  0.20039  1.0000
  C   C57       1.0  0.45787  0.08793  0.05264  1.0000
  H   H92       1.0  0.36486  0.00366  0.21131  1.0000
  C   C58       1.0  0.40657  0.21460  0.05378  1.0000
  H   H93       1.0  0.40042  0.22056  0.06287  1.0000
  Fe  Fe13      1.0  0.44442  0.02955  0.09959  1.0000
  H   H94       1.0  0.44750  0.06582  0.16751  1.0000
  H   H95       1.0  0.38283  0.00700  0.22050  1.0000
  C   C59       1.0  0.44477  0.29395  0.03306  1.0000
  H   H96       1.0  0.38627  0.21936  0.03742  1.0000
  C   C60       1.0  0.46458  0.08593  0.14963  1.0000
  C   C61       1.0  0.38398  0.21218  0.04863  1.0000
  H   H97       1.0  0.42227  0.30154  0.01098  1.0000
  C   C62       1.0  0.37351  0.22232  0.05901  1.0000
  H   H98       1.0  0.43320  0.30044  0.03608  1.0000
  H   H99       1.0  0.41182  0.02163  0.19303  1.0000
  S   S20       1.0  0.46142  0.06389  0.09121  1.0000
  S   S21       1.0  0.43766  0.03484  0.21230  1.0000
  C   C63       1.0  0.46635  0.06688  0.20802  1.0000
  H   H100      1.0  0.47392  0.09110  0.14266  1.0000
  S   S22       1.0  0.40770  0.24999  0.05055  1.0000
  H   H101      1.0  0.43053  0.20554  0.04604  1.0000
  H   H102      1.0  0.48484  0.08571  0.23329  1.0000
  H   H103      1.0  0.43293  0.24997  0.02571  1.0000
  S   S23       1.0  0.47356  0.25583  0.04403  1.0000
  H   H104      1.0  0.40706  0.22331  0.04342  1.0000
  H   H105      1.0  0.34504  0.00651  0.21531  1.0000
  C   C64       1.0  0.45089  0.07111  0.21294  1.0000
  C   C65       1.0  0.43646  0.25050  0.03524  1.0000
  C   C66       1.0  0.48865  0.06082  0.11653  1.0000
  C   C67       1.0  0.45571  0.25292  0.04594  1.0000
  H   H106      1.0  0.43896  0.28104  0.02124  1.0000
  H   H107      1.0  0.44887  0.25462  0.06880  1.0000
  C   C68       1.0  0.44904  0.29194  0.99213  1.0000
  H   H108      1.0  0.45823  0.27985  0.01840  1.0000
  H   H109      1.0  0.47578  0.10254  0.01167  1.0000
  C   C69       1.0  0.45893  0.00878  0.17689  1.0000
  H   H110      1.0  0.48093  0.20813  0.01156  1.0000
  C   C70       1.0  0.43054  0.30871  0.00675  1.0000
  H   H111      1.0  0.44500  0.08341  0.14309  1.0000
  C   C71       1.0  0.44478  0.07214  0.17631  1.0000
  C   C72       1.0  0.48638  0.10295  0.07508  1.0000
  H   H112      1.0  0.44644  0.28448  0.04256  1.0000
  H   H113      1.0  0.48882  0.07993  0.08548  1.0000
  H   H114      1.0  0.44949  0.00432  0.13955  1.0000
  H   H115      1.0  0.45385  0.06831  0.18249  1.0000
  H   H116      1.0  0.44737  0.11855  0.16094  1.0000
  H   H117      1.0  0.45897  0.20115  0.04121  1.0000
  H   H118      1.0  0.43962  0.17388  0.02186  1.0000
  C   C73       1.0  0.45685  0.30944  0.00173  1.0000
  N   N6        1.0  0.46911  0.01101  0.16185  1.0000
  C   C74       1.0  0.39565  0.01212  0.18929  1.0000
  C   C75       1.0  0.47790  0.10165  0.16453  1.0000
  H   H119      1.0  0.47386  0.21026  0.03675  1.0000
  C   C76       1.0  0.40875  0.20712  0.99621  1.0000
  H   H120      1.0  0.45296  0.30056  0.03197  1.0000
  S   S24       1.0  0.47777  0.07952  0.20404  1.0000
  H   H121      1.0  0.44507  0.21147  0.99868  1.0000
  H   H122      1.0  0.48528  0.02036  0.16629  1.0000
  H   H123      1.0  0.48170  0.11073  0.06570  1.0000
  S   S25       1.0  0.47396  0.15850  0.99427  1.0000
  S   S26       1.0  0.39272  0.21611  0.00725  1.0000
  H   H124      1.0  0.46298  0.00109  0.11228  1.0000
  C   C77       1.0  0.46140  0.27762  0.99171  1.0000
  H   H125      1.0  0.47815  0.10513  0.08536  1.0000
  H   H126      1.0  0.47217  0.27856  0.99306  1.0000
  H   H127      1.0  0.40427  0.99925  0.23015  1.0000
  C   C78       1.0  0.35398  0.00389  0.23465  1.0000
  C   C79       1.0  0.42090  0.99896  0.19149  1.0000
  C   C80       1.0  0.45572  0.22778  0.99998  1.0000
  H   H128      1.0  0.40322  0.18575  0.00427  1.0000
  H   H129      1.0  0.43153  0.99882  0.19345  1.0000
  H   H130      1.0  0.44093  0.00377  0.15895  1.0000
  H   H131      1.0  0.47781  0.08587  0.07209  1.0000
  C   C81       1.0  0.49121  0.04150  0.23845  1.0000
  C   C82       1.0  0.36351  0.02491  0.23673  1.0000
  H   H132      1.0  0.48328  0.10117  0.17360  1.0000
  H   H133      1.0  0.46028  0.03746  0.17430  1.0000
  Fe  Fe14      1.0  0.41591  0.25938  0.99558  1.0000
  C   C83       1.0  0.48105  0.99700  0.16066  1.0000
  C   C84       1.0  0.47226  0.19425  0.99611  1.0000
  H   H134      1.0  0.48410  0.99581  0.13732  1.0000
  H   H135      1.0  0.46527  0.19149  0.99017  1.0000
  C   C85       1.0  0.46035  0.99161  0.11047  1.0000
  H   H136      1.0  0.48566  0.04481  0.22894  1.0000
  S   S27       1.0  0.49471  0.05998  0.17287  1.0000
  H   H137      1.0  0.45330  0.31697  0.00963  1.0000
  H   H138      1.0  0.48892  0.99556  0.16781  1.0000
  H   H139      1.0  0.48010  0.06485  0.11010  1.0000
  C   C86       1.0  0.48841  0.08671  0.07422  1.0000
  H   H140      1.0  0.47496  0.11347  0.15900  1.0000
  H   H141      1.0  0.47176  0.06713  0.23487  1.0000
  H   H142      1.0  0.46689  0.99492  0.22898  1.0000
  C   C87       1.0  0.42625  0.31963  0.99269  1.0000
  H   H143      1.0  0.49040  0.06574  0.05971  1.0000
  H   H144      1.0  0.42834  0.31554  0.01509  1.0000
  Fe  Fe15      1.0  0.49891  0.06954  0.18963  1.0000
  C   C88       1.0  0.38047  0.00134  0.23236  1.0000
  H   H145      1.0  0.43873  0.28873  0.99201  1.0000
  H   H146      1.0  0.49836  0.06954  0.22927  1.0000
  C   C89       1.0  0.39379  0.00119  0.23864  1.0000
  H   H147      1.0  0.35429  0.31816  0.01523  1.0000
  C   C90       1.0  0.49071  0.99613  0.14505  1.0000
  H   H148      1.0  0.45636  0.31724  0.99090  1.0000
  H   H149      1.0  0.49475  0.05611  0.08631  1.0000
  H   H150      1.0  0.47900  0.30960  0.00356  1.0000
  C   C91       1.0  0.36421  0.31907  0.00662  1.0000
  H   H151      1.0  0.45426  0.99893  0.17869  1.0000
  H   H152      1.0  0.42164  0.99427  0.14946  1.0000
  H   H153      1.0  0.49650  0.00538  0.14034  1.0000
  H   H154      1.0  0.34504  0.04228  0.22901  1.0000
  C   C92       1.0  0.44682  0.99309  0.10661  1.0000
  H   H155      1.0  0.43289  0.01258  0.23953  1.0000
  H   H156      1.0  0.46385  0.03708  0.23945  1.0000
  C   C93       1.0  0.48970  0.07405  0.23824  1.0000
  H   H157      1.0  0.45840  0.99141  0.15315  1.0000
  C   C94       1.0  0.34753  0.03483  0.23956  1.0000
  S   S28       1.0  0.36657  0.06299  0.24186  1.0000
  H   H158      1.0  0.00159  0.28918  0.39043  1.0000
  H   H159      1.0  0.34844  0.99343  0.43845  1.0000
  H   H160      1.0  0.00571  0.16415  0.39300  1.0000
  H   H161      1.0  0.35422  0.00526  0.36443  1.0000
  Fe  Fe16      1.0  0.03503  0.16022  0.42966  1.0000
  H   H162      1.0  0.37225  0.00435  0.26076  1.0000
  S   S29       1.0  0.04515  0.17502  0.40935  1.0000
  Fe  Fe17      1.0  0.02991  0.12969  0.44481  1.0000
  S   S30       1.0  0.01672  0.13675  0.46584  1.0000
  S   S31       1.0  0.03501  0.10596  0.44297  1.0000
  H   H163      1.0  0.33419  0.03311  0.35197  1.0000
  H   H164      1.0  0.01640  0.20066  0.38328  1.0000
  Fe  Fe18      1.0  0.03447  0.14916  0.46222  1.0000
  H   H165      1.0  0.48539  0.01949  0.24700  1.0000
  H   H166      1.0  0.02466  0.19483  0.45823  1.0000
  S   S32       1.0  0.04860  0.14046  0.44233  1.0000
  H   H167      1.0  0.05182  0.19098  0.45925  1.0000
  S   S33       1.0  0.42065  0.01378  0.30980  1.0000
  Fe  Fe19      1.0  0.21654  0.01903  0.40936  1.0000
  H   H168      1.0  0.25887  0.01751  0.44923  1.0000
  H   H169      1.0  0.01998  0.20442  0.42233  1.0000
  S   S34       1.0  0.37992  0.02045  0.30210  1.0000
  H   H170      1.0  0.06665  0.09124  0.42715  1.0000
  C   C95       1.0  0.31827  0.99914  0.46138  1.0000
  S   S35       1.0  0.11976  0.01054  0.46334  1.0000
  H   H171      1.0  0.28506  0.00788  0.44851  1.0000
  H   H172      1.0  0.31049  0.02401  0.34538  1.0000
  C   C96       1.0  0.27977  0.01678  0.38064  1.0000
  C   C97       1.0  0.10826  0.08170  0.44721  1.0000
  H   H173      1.0  0.03949  0.21482  0.45177  1.0000
  C   C98       1.0  0.38221  0.02156  0.34182  1.0000
  Fe  Fe20      1.0  0.03452  0.26260  0.43661  1.0000
  S   S36       1.0  0.05934  0.25988  0.43056  1.0000
  H   H174      1.0  0.37282  0.99698  0.35768  1.0000
  Fe  Fe21      1.0  0.03279  0.25788  0.40746  1.0000
  S   S37       1.0  0.05736  0.25487  0.39869  1.0000
  H   H175      1.0  0.00056  0.20799  0.43054  1.0000
  Fe  Fe22      1.0  0.05921  0.24103  0.42118  1.0000
  S   S38       1.0  0.07410  0.21848  0.42537  1.0000
  Fe  Fe23      1.0  0.05502  0.27402  0.40874  1.0000
  S   S39       1.0  0.06745  0.29148  0.39549  1.0000
  S   S40       1.0  0.03476  0.24234  0.42917  1.0000
  S   S41       1.0  0.03010  0.27829  0.41557  1.0000
  H   H176      1.0  0.45302  0.05510  0.24276  1.0000
  C   C99       1.0  0.36265  0.01630  0.38322  1.0000
  H   H177      1.0  0.34691  0.04220  0.24691  1.0000
  H   H178      1.0  0.46830  0.07138  0.25220  1.0000
  C   C100      1.0  0.30586  0.01230  0.36808  1.0000
  C   C101      1.0  0.08887  0.11580  0.43506  1.0000
  H   H179      1.0  0.35670  0.03812  0.33951  1.0000
  H   H180      1.0  0.36722  0.99194  0.46056  1.0000
  C   C102      1.0  0.00754  0.19362  0.41434  1.0000
  S   S42       1.0  0.45716  0.00634  0.27990  1.0000
  C   C103      1.0  0.05560  0.30904  0.39138  1.0000
  H   H181      1.0  0.13986  0.05707  0.46741  1.0000
  C   C104      1.0  0.46799  0.04337  0.25825  1.0000
  C   C105      1.0  0.34053  0.03414  0.35963  1.0000
  H   H182      1.0  0.47079  0.03187  0.26459  1.0000
  C   C106      1.0  0.09057  0.99485  0.42819  1.0000
  H   H183      1.0  0.44845  0.03856  0.25476  1.0000
  Fe  Fe24      1.0  0.12014  0.03464  0.45768  1.0000
  H   H184      1.0  0.03336  0.32015  0.46510  1.0000
  H   H185      1.0  0.03757  0.30505  0.41000  1.0000
  C   C107      1.0  0.37687  0.03165  0.28490  1.0000
  C   C108      1.0  0.36259  0.04058  0.28424  1.0000
  C   C109      1.0  0.35964  0.05007  0.27096  1.0000
  H   H186      1.0  0.33840  0.02899  0.24473  1.0000
  C   C110      1.0  0.38521  0.04150  0.25864  1.0000
  C   C111      1.0  0.38820  0.03200  0.27205  1.0000
  H   H187      1.0  0.35379  0.04036  0.29411  1.0000
  H   H188      1.0  0.34861  0.05710  0.27065  1.0000
  Fe  Fe25      1.0  0.22550  0.04349  0.41676  1.0000
  H   H189      1.0  0.39928  0.02515  0.27249  1.0000
  H   H190      1.0  0.99910  0.29127  0.48582  1.0000
  H   H191      1.0  0.03501  0.31809  0.43310  1.0000
  C   C112      1.0  0.37379  0.01945  0.36843  1.0000
  S   S43       1.0  0.24020  0.00801  0.40068  1.0000
  H   H192      1.0  0.02679  0.28842  0.38377  1.0000
  C   C113      1.0  0.05315  0.18698  0.41401  1.0000
  C   C114      1.0  0.05194  0.20161  0.40597  1.0000
  C   C115      1.0  0.05817  0.21133  0.40963  1.0000
  C   C116      1.0  0.06617  0.20629  0.42095  1.0000
  C   C117      1.0  0.06757  0.19160  0.42888  1.0000
  C   C118      1.0  0.06077  0.18203  0.42564  1.0000
  H   H193      1.0  0.04598  0.20549  0.39704  1.0000
  H   H194      1.0  0.05699  0.22266  0.40348  1.0000
  H   H195      1.0  0.07376  0.18765  0.43763  1.0000
  H   H196      1.0  0.06172  0.17073  0.43188  1.0000
  C   C119      1.0  0.06366  0.07510  0.47510  1.0000
  C   C120      1.0  0.05975  0.06950  0.46507  1.0000
  C   C121      1.0  0.05052  0.07894  0.45554  1.0000
  C   C122      1.0  0.04543  0.09403  0.45583  1.0000
  C   C123      1.0  0.04922  0.09959  0.46598  1.0000
  N   N7        1.0  0.01233  0.32038  0.46046  1.0000
  H   H197      1.0  0.06381  0.05789  0.46466  1.0000
  H   H198      1.0  0.04757  0.07459  0.44774  1.0000
  H   H199      1.0  0.04546  0.11124  0.46618  1.0000
  C   C124      1.0  0.00724  0.21066  0.38381  1.0000
  C   C125      1.0  0.00907  0.25666  0.46582  1.0000
  C   C126      1.0  0.28697  0.02910  0.35510  1.0000
  H   H200      1.0  0.19361  0.04764  0.43120  1.0000
  H   H201      1.0  0.28437  0.00094  0.35562  1.0000
  H   H202      1.0  0.00116  0.30004  0.42904  1.0000
  H   H203      1.0  0.12953  0.99448  0.42591  1.0000
  C   C127      1.0  0.04015  0.30371  0.35682  1.0000
  H   H204      1.0  0.33892  0.00599  0.26404  1.0000
  H   H205      1.0  0.11268  0.10648  0.42938  1.0000
  S   S44       1.0  0.01742  0.14875  0.43004  1.0000
  C   C128      1.0  0.39043  0.03378  0.34016  1.0000
  H   H206      1.0  0.45098  0.99923  0.32395  1.0000
  C   C129      1.0  0.20416  0.05416  0.44471  1.0000
  C   C130      1.0  0.19463  0.04681  0.44234  1.0000
  C   C131      1.0  0.10058  0.08887  0.46063  1.0000
  S   S45       1.0  0.11395  0.03719  0.48117  1.0000
  Fe  Fe26      1.0  0.09034  0.04347  0.47826  1.0000
  Fe  Fe27      1.0  0.43682  0.99903  0.29517  1.0000
  C   C132      1.0  0.37092  0.05066  0.25815  1.0000
  H   H207      1.0  0.27125  0.01454  0.39044  1.0000
  S   S46       1.0  0.31994  0.00002  0.48917  1.0000
  H   H208      1.0  0.00841  0.18369  0.42356  1.0000
  C   C133      1.0  0.05234  0.29018  0.36186  1.0000
  H   H209      1.0  0.14715  0.01522  0.44297  1.0000
  H   H210      1.0  0.18716  0.99485  0.37905  1.0000
  C   C134      1.0  0.04762  0.21410  0.47723  1.0000
  C   C135      1.0  0.15585  0.02063  0.43602  1.0000
  S   S47       1.0  0.25704  0.03441  0.36699  1.0000
  H   H211      1.0  0.06692  0.22387  0.46662  1.0000
  H   H212      1.0  0.13188  0.01245  0.42442  1.0000
  H   H213      1.0  0.08673  0.07360  0.44074  1.0000
  H   H214      1.0  0.26722  0.00397  0.33166  1.0000
  H   H215      1.0  0.06496  0.21117  0.45702  1.0000
  N   N8        1.0  0.36875  0.02078  0.35445  1.0000
  C   C136      1.0  0.48485  0.99468  0.35772  1.0000
  H   H216      1.0  0.09301  0.12513  0.43596  1.0000
  H   H217      1.0  0.38275  0.04484  0.34001  1.0000
  N   N9        1.0  0.02424  0.30185  0.36219  1.0000
  Fe  Fe28      1.0  0.00562  0.15678  0.45098  1.0000
  H   H218      1.0  0.10554  0.08212  0.47022  1.0000
  Fe  Fe29      1.0  0.24552  0.01267  0.41991  1.0000
  S   S48       1.0  0.09673  0.04266  0.45430  1.0000
  C   C137      1.0  0.00693  0.17510  0.39359  1.0000
  C   C138      1.0  0.00270  0.25239  0.39968  1.0000
  H   H219      1.0  0.07872  0.09088  0.44540  1.0000
  H   H220      1.0  0.00752  0.25690  0.48854  1.0000
  H   H221      1.0  0.10815  0.06970  0.45092  1.0000
  H   H222      1.0  0.00865  0.27615  0.35490  1.0000
  H   H223      1.0  0.00933  0.20710  0.46789  1.0000
  S   S49       1.0  0.24997  0.03499  0.40862  1.0000
  C   C139      1.0  0.30195  0.02203  0.35526  1.0000
  H   H224      1.0  0.38408  0.01051  0.36915  1.0000
  H   H225      1.0  0.01781  0.19129  0.40592  1.0000
  H   H226      1.0  0.12870  0.09341  0.41140  1.0000
  C   C140      1.0  0.26250  0.01856  0.45886  1.0000
  C   C141      1.0  0.18070  0.01922  0.42028  1.0000
  H   H227      1.0  0.48118  0.00829  0.31483  1.0000
  H   H228      1.0  0.29150  0.99172  0.34080  1.0000
  H   H229      1.0  0.39067  0.01082  0.34278  1.0000
  C   C142      1.0  0.10222  0.10454  0.42800  1.0000
  C   C143      1.0  0.04776  0.19003  0.47141  1.0000
  H   H230      1.0  0.05089  0.28710  0.37406  1.0000
  C   C144      1.0  0.20550  0.05312  0.45913  1.0000
  H   H231      1.0  0.12371  0.00954  0.41133  1.0000
  H   H232      1.0  0.46081  0.04978  0.26669  1.0000
  H   H233      1.0  0.00291  0.29558  0.34836  1.0000
  S   S50       1.0  0.01933  0.25835  0.39172  1.0000
  H   H234      1.0  0.45655  0.01426  0.31003  1.0000
  H   H235      1.0  0.47776  0.99251  0.31187  1.0000
  C   C145      1.0  0.27071  0.00795  0.33968  1.0000
  H   H236      1.0  0.18716  0.04004  0.41090  1.0000
  C   C146      1.0  0.15366  0.03600  0.43365  1.0000
  H   H237      1.0  0.16340  0.05484  0.42279  1.0000
  S   S51       1.0  0.21663  0.06170  0.42945  1.0000
  H   H238      1.0  0.37904  0.02346  0.33104  1.0000
  H   H239      1.0  0.02847  0.27805  0.36442  1.0000
  H   H240      1.0  0.02999  0.28829  0.34588  1.0000
  C   C147      1.0  0.00771  0.28709  0.35727  1.0000
  H   H241      1.0  0.00258  0.31505  0.35768  1.0000
  C   C148      1.0  0.45793  0.04364  0.24803  1.0000
  H   H242      1.0  0.36948  0.00395  0.33229  1.0000
  C   C149      1.0  0.47436  0.99486  0.28336  1.0000
  H   H243      1.0  0.08075  0.12091  0.42770  1.0000
  H   H244      1.0  0.21300  0.05870  0.46094  1.0000
  H   H245      1.0  0.05285  0.22946  0.45595  1.0000
  C   C150      1.0  0.19817  0.04375  0.47103  1.0000
  H   H246      1.0  0.47601  0.06464  0.27287  1.0000
  H   H247      1.0  0.10705  0.08349  0.41155  1.0000
  H   H248      1.0  0.37690  0.02977  0.36831  1.0000
  H   H249      1.0  0.32220  0.00929  0.45760  1.0000
  C   C151      1.0  0.01977  0.20646  0.45925  1.0000
  S   S52       1.0  0.13684  0.04683  0.44168  1.0000
  H   H250      1.0  0.22820  0.02637  0.47573  1.0000
  C   C152      1.0  0.11168  0.07994  0.42171  1.0000
  H   H251      1.0  0.05415  0.20807  0.48587  1.0000
  C   C153      1.0  0.14911  0.04945  0.47250  1.0000
  N   N10       1.0  0.25766  0.00733  0.47256  1.0000
  N   N11       1.0  0.10195  0.08834  0.43343  1.0000
  H   H252      1.0  0.49232  0.05577  0.27985  1.0000
  H   H253      1.0  0.04306  0.30666  0.34449  1.0000
  H   H254      1.0  0.13467  0.07699  0.42490  1.0000
  H   H255      1.0  0.08284  0.11148  0.44627  1.0000
  C   C154      1.0  0.16941  0.01223  0.42941  1.0000
  H   H256      1.0  0.06340  0.29310  0.35747  1.0000
  H   H257      1.0  0.33473  0.04482  0.36304  1.0000
  C   C155      1.0  0.27584  0.02640  0.36775  1.0000
  H   H258      1.0  0.10250  0.10783  0.41588  1.0000
  H   H259      1.0  0.47725  0.04628  0.28439  1.0000
  H   H260      1.0  0.28397  0.03653  0.34514  1.0000
  C   C156      1.0  0.35683  0.03476  0.35154  1.0000
  N   N12       1.0  0.48186  0.04920  0.25076  1.0000
  H   H261      1.0  0.45156  0.01179  0.24143  1.0000
  H   H262      1.0  0.35945  0.04415  0.35423  1.0000
  H   H263      1.0  0.36837  0.01465  0.39238  1.0000
  H   H264      1.0  0.05286  0.28044  0.35753  1.0000
  C   C157      1.0  0.27941  0.01780  0.45337  1.0000
  H   H265      1.0  0.12014  0.08220  0.44505  1.0000
  C   C158      1.0  0.47471  0.99954  0.32010  1.0000
  N   N13       1.0  0.36506  0.00836  0.24018  1.0000
  C   C159      1.0  0.00868  0.20667  0.42000  1.0000
  C   C160      1.0  0.18740  0.03742  0.45414  1.0000
  C   C161      1.0  0.07881  0.09073  0.42313  1.0000
  S   S53       1.0  0.19736  0.00873  0.41160  1.0000
  H   H266      1.0  0.35790  0.00661  0.43913  1.0000
  C   C162      1.0  0.24298  0.00477  0.47190  1.0000
  H   H267      1.0  0.39402  0.04202  0.24881  1.0000
  H   H268      1.0  0.48576  0.01272  0.27546  1.0000
  C   C163      1.0  0.28100  0.99555  0.34861  1.0000
  H   H269      1.0  0.35893  0.00594  0.38499  1.0000
  H   H270      1.0  0.34232  0.00762  0.24039  1.0000
  H   H271      1.0  0.08001  0.10189  0.41660  1.0000
  S   S54       1.0  0.32455  0.00288  0.36751  1.0000
  H   H272      1.0  0.25690  0.03007  0.46032  1.0000
  H   H273      1.0  0.18069  0.03113  0.45208  1.0000
  H   H274      1.0  0.10248  0.10016  0.45859  1.0000
  H   H275      1.0  0.23361  0.02493  0.45655  1.0000
  Fe  Fe30      1.0  0.24291  0.03107  0.38986  1.0000
  H   H276      1.0  0.11200  0.06784  0.42563  1.0000
  H   H277      1.0  0.35378  0.99701  0.34379  1.0000
  Fe  Fe31      1.0  0.40285  0.00673  0.30406  1.0000
  C   C164      1.0  0.36361  0.00198  0.25654  1.0000
  S   S55       1.0  0.22168  0.02126  0.42987  1.0000
  H   H278      1.0  0.01130  0.21956  0.38576  1.0000
  C   C165      1.0  0.02337  0.28849  0.35737  1.0000
  C   C166      1.0  0.00405  0.25253  0.48110  1.0000
  C   C167      1.0  0.49531  0.02440  0.24247  1.0000
  H   H279      1.0  0.00725  0.21710  0.41160  1.0000
  C   C168      1.0  0.00553  0.32244  0.44743  1.0000
  H   H280      1.0  0.28493  0.01781  0.46208  1.0000
  C   C169      1.0  0.17851  0.03457  0.41795  1.0000
  H   H281      1.0  0.01784  0.17303  0.39663  1.0000
  C   C170      1.0  0.23074  0.01877  0.46813  1.0000
  H   H282      1.0  0.13364  0.07541  0.40734  1.0000
  Fe  Fe32      1.0  0.09563  0.01876  0.46205  1.0000
  H   H283      1.0  0.29776  0.00228  0.39078  1.0000
  H   H284      1.0  0.01157  0.31379  0.44087  1.0000
  C   C171      1.0  0.14822  0.00172  0.40749  1.0000
  H   H285      1.0  0.39690  0.03104  0.34894  1.0000
  C   C172      1.0  0.08648  0.08561  0.43647  1.0000
  C   C173      1.0  0.16500  0.04295  0.42461  1.0000
  C   C174      1.0  0.12801  0.08171  0.41623  1.0000
  N   N14       1.0  0.10798  0.24294  0.39301  1.0000
  C   C175      1.0  0.10120  0.23331  0.38788  1.0000
  C   C176      1.0  0.11833  0.23283  0.40284  1.0000
  C   C177      1.0  0.11666  0.25170  0.37952  1.0000
  C   C178      1.0  0.09532  0.25311  0.40126  1.0000
  C   C179      1.0  0.09316  0.24098  0.37488  1.0000
  C   C180      1.0  0.11122  0.22244  0.41655  1.0000
  C   C181      1.0  0.13019  0.25621  0.38149  1.0000
  C   C182      1.0  0.09965  0.26338  0.40833  1.0000
  H   H286      1.0  0.10989  0.22366  0.38440  1.0000
  H   H287      1.0  0.09284  0.22844  0.39708  1.0000
  H   H288      1.0  0.12373  0.23916  0.40706  1.0000
  H   H289      1.0  0.12768  0.22568  0.39634  1.0000
  H   H290      1.0  0.12154  0.24519  0.37068  1.0000
  H   H291      1.0  0.10911  0.26195  0.37462  1.0000
  H   H292      1.0  0.08787  0.26055  0.39387  1.0000
  H   H293      1.0  0.08810  0.24659  0.41020  1.0000
  H   H294      1.0  0.08644  0.23365  0.37398  1.0000
  H   H295      1.0  0.08539  0.25169  0.37635  1.0000
  H   H296      1.0  0.10123  0.24275  0.36416  1.0000
  H   H297      1.0  0.11986  0.21593  0.42301  1.0000
  H   H298      1.0  0.10213  0.22863  0.42405  1.0000
  H   H299      1.0  0.10705  0.21428  0.41348  1.0000
  H   H300      1.0  0.12772  0.26150  0.39101  1.0000
  H   H301      1.0  0.13404  0.26427  0.37140  1.0000
  H   H302      1.0  0.13972  0.24648  0.38268  1.0000
  H   H303      1.0  0.10686  0.25722  0.41633  1.0000
  H   H304      1.0  0.08931  0.26959  0.41463  1.0000
  H   H305      1.0  0.10484  0.27184  0.39982  1.0000
  H   H306      1.0  0.08305  0.08265  0.41580  1.0000
  C   C183      1.0  0.18962  0.03547  0.46838  1.0000
  C   C184      1.0  0.04123  0.31270  0.40006  1.0000
  H   H307      1.0  0.04161  0.31304  0.36065  1.0000
  H   H308      1.0  0.01757  0.31672  0.34256  1.0000
  H   H309      1.0  0.15953  0.05342  0.46748  1.0000
  H   H310      1.0  0.39276  0.01171  0.24180  1.0000
  S   S56       1.0  0.21865  0.04193  0.39674  1.0000
  C   C185      1.0  0.24557  0.99144  0.36743  1.0000
  H   H311      1.0  0.08853  0.08910  0.46406  1.0000
  H   H312      1.0  0.17121  0.00034  0.43148  1.0000
  H   H313      1.0  0.39867  0.03451  0.32945  1.0000
  S   S57       1.0  0.02229  0.16989  0.44937  1.0000
  H   H314      1.0  0.26082  0.01341  0.34704  1.0000
  H   H315      1.0  0.16015  0.01276  0.46779  1.0000
  H   H316      1.0  0.35301  0.02584  0.38451  1.0000
  H   H317      1.0  0.33919  0.02537  0.36971  1.0000
  C   C186      1.0  0.31563  0.99257  0.47651  1.0000
  C   C187      1.0  0.05819  0.09009  0.47569  1.0000
  C   C188      1.0  0.06181  0.18280  0.47804  1.0000
  H   H318      1.0  0.00695  0.18219  0.38236  1.0000
  S   S58       1.0  0.08707  0.02021  0.48592  1.0000
  H   H319      1.0  0.16223  0.99361  0.38168  1.0000
  H   H320      1.0  0.28112  0.02760  0.44435  1.0000
  S   S59       1.0  0.18233  0.02199  0.48246  1.0000
  S   S60       1.0  0.02193  0.26790  0.45850  1.0000
  S   S61       1.0  0.08405  0.01053  0.44954  1.0000
  C   C189      1.0  0.03874  0.31480  0.44373  1.0000
  C   C190      1.0  0.44081  0.00858  0.24707  1.0000
  H   H321      1.0  0.06140  0.09443  0.48331  1.0000
  H   H322      1.0  0.27160  0.02633  0.48350  1.0000
  H   H323      1.0  0.00220  0.30471  0.39703  1.0000
  C   C191      1.0  0.00447  0.25109  0.45626  1.0000
  H   H324      1.0  0.15097  0.03865  0.46944  1.0000
  H   H325      1.0  0.27689  0.01667  0.33323  1.0000
  C   C192      1.0  0.48359  0.05370  0.27554  1.0000
  H   H326      1.0  0.00767  0.25486  0.44446  1.0000
  H   H327      1.0  0.49468  0.03452  0.26662  1.0000
  H   H328      1.0  0.35165  0.01651  0.33692  1.0000
  H   H329      1.0  0.42040  0.99759  0.37881  1.0000
  H   H330      1.0  0.14687  0.00922  0.39660  1.0000
  C   C193      1.0  0.01448  0.31562  0.35480  1.0000
  H   H331      1.0  0.04068  0.30261  0.44763  1.0000
  C   C194      1.0  0.00413  0.30033  0.38695  1.0000
  H   H332      1.0  0.04977  0.31765  0.44126  1.0000
  H   H333      1.0  0.01656  0.21278  0.44862  1.0000
  S   S62       1.0  0.07605  0.06386  0.48640  1.0000
  C   C195      1.0  0.03103  0.21338  0.46232  1.0000
  C   C196      1.0  0.02057  0.29951  0.37883  1.0000
  H   H334      1.0  0.43584  0.01462  0.25624  1.0000
  H   H335      1.0  0.24420  0.99969  0.35706  1.0000
  C   C197      1.0  0.05872  0.21989  0.46333  1.0000
  C   C198      1.0  0.29480  0.00978  0.38084  1.0000
  C   C199      1.0  0.06059  0.31944  0.37904  1.0000
  H   H336      1.0  0.45400  0.01473  0.32906  1.0000
  C   C200      1.0  0.36384  0.00698  0.35522  1.0000
  C   C201      1.0  0.16595  0.00088  0.46893  1.0000
  C   C202      1.0  0.13255  0.00432  0.41786  1.0000
  H   H337      1.0  0.15562  0.00608  0.41151  1.0000
  C   C203      1.0  0.35948  0.00626  0.34116  1.0000
  H   H338      1.0  0.99981  0.28749  0.36801  1.0000
  H   H339      1.0  0.00480  0.21483  0.37255  1.0000
  H   H340      1.0  0.00637  0.24474  0.42195  1.0000
  H   H341      1.0  0.02515  0.22474  0.46403  1.0000
  H   H342      1.0  0.01638  0.16624  0.48473  1.0000
  H   H343      1.0  0.13144  0.99713  0.39075  1.0000
  H   H344      1.0  0.08237  0.00377  0.42328  1.0000
  C   C204      1.0  0.45808  0.00734  0.32107  1.0000
  H   H345      1.0  0.46714  0.00782  0.34682  1.0000
  N   N15       1.0  0.03850  0.20471  0.47502  1.0000
  H   H346      1.0  0.02476  0.30724  0.38256  1.0000
  H   H347      1.0  0.04011  0.22401  0.48138  1.0000
  C   C205      1.0  0.49116  0.04655  0.26201  1.0000
  C   C206      1.0  0.48674  0.00111  0.28011  1.0000
  H   H348      1.0  0.16086  0.07044  0.47896  1.0000
  H   H349      1.0  0.07083  0.18885  0.47265  1.0000
  H   H350      1.0  0.07173  0.31675  0.37240  1.0000
  H   H351      1.0  0.24725  0.02420  0.48548  1.0000
  C   C207      1.0  0.01326  0.30462  0.46901  1.0000
  H   H352      1.0  0.37015  0.02781  0.24297  1.0000
  C   C208      1.0  0.02788  0.32318  0.45551  1.0000
  H   H353      1.0  0.01940  0.19539  0.48757  1.0000
  H   H354      1.0  0.31842  0.99735  0.43940  1.0000
  C   C209      1.0  0.47715  0.06549  0.24423  1.0000
  H   H355      1.0  0.48430  0.00379  0.36302  1.0000
  H   H356      1.0  0.17701  0.00388  0.39392  1.0000
  H   H357      1.0  0.48510  0.01001  0.33664  1.0000
  H   H358      1.0  0.04075  0.18173  0.47473  1.0000
  C   C210      1.0  0.47877  0.00148  0.34342  1.0000
  H   H359      1.0  0.01941  0.30198  0.47807  1.0000
  H   H360      1.0  0.34739  0.01936  0.26717  1.0000
  H   H361      1.0  0.34912  0.00120  0.27827  1.0000
  H   H362      1.0  0.06623  0.17141  0.47591  1.0000
  H   H363      1.0  0.23754  0.99627  0.37658  1.0000
  C   C211      1.0  0.34878  0.00762  0.26681  1.0000
  H   H364      1.0  0.19977  0.04233  0.48209  1.0000
  H   H365      1.0  0.49488  0.07440  0.24712  1.0000
  H   H366      1.0  0.02012  0.29679  0.46185  1.0000
  H   H367      1.0  0.26299  0.99740  0.37332  1.0000
  H   H368      1.0  0.13600  0.07671  0.47760  1.0000
  H   H369      1.0  0.22028  0.01533  0.46914  1.0000
  S   S63       1.0  0.04661  0.14849  0.47943  1.0000
  C   C212      1.0  0.09392  0.99545  0.44126  1.0000
  S   S64       1.0  0.26031  0.99656  0.43430  1.0000
  H   H370      1.0  0.23799  0.99820  0.48262  1.0000
  C   C213      1.0  0.18058  0.99304  0.39060  1.0000
  H   H371      1.0  0.17806  0.00055  0.46643  1.0000
  H   H372      1.0  0.24466  0.99804  0.46357  1.0000
  C   C214      1.0  0.35849  0.99454  0.44139  1.0000
  C   C215      1.0  0.02632  0.20242  0.48867  1.0000
  Fe  Fe33      1.0  0.11143  0.01382  0.48676  1.0000
  S   S65       1.0  0.42499  0.99430  0.34928  1.0000
  H   H373      1.0  0.16329  0.99678  0.46050  1.0000
  H   H374      1.0  0.14806  0.99551  0.48716  1.0000
  C   C216      1.0  0.25520  0.01320  0.48628  1.0000
  H   H375      1.0  0.28011  0.99357  0.47291  1.0000
  S   S66       1.0  0.41883  0.99403  0.28765  1.0000
  H   H376      1.0  0.34771  0.99349  0.46400  1.0000
  C   C217      1.0  0.14507  0.04716  0.48953  1.0000
  H   H377      1.0  0.27912  0.00653  0.48809  1.0000
  S   S67       1.0  0.33412  0.99187  0.40797  1.0000
  C   C218      1.0  0.31618  0.99238  0.45108  1.0000
  C   C219      1.0  0.26882  0.99263  0.47296  1.0000
  C   C220      1.0  0.13233  0.07293  0.48976  1.0000
  Fe  Fe34      1.0  0.42154  0.99305  0.32749  1.0000
  H   H378      1.0  0.39505  0.99193  0.24839  1.0000
  C   C221      1.0  0.44274  0.99180  0.25359  1.0000
  C   C222      1.0  0.16047  0.99262  0.48482  1.0000
  H   H379      1.0  0.40145  0.99137  0.40144  1.0000
  C   C223      1.0  0.41209  0.99210  0.37849  1.0000
  C   C224      1.0  0.26905  0.01552  0.48987  1.0000
  H   H380      1.0  0.13514  0.09485  0.48955  1.0000
  C   C225      1.0  0.22983  0.03094  0.53649  1.0000
  C   C226      1.0  0.22834  0.99515  0.56851  1.0000
  H   H381      1.0  0.26047  0.00323  0.52905  1.0000
  C   C227      1.0  0.14269  0.00573  0.53659  1.0000
  C   C228      1.0  0.38978  0.00336  0.72652  1.0000
  H   H382      1.0  0.16361  0.99778  0.49222  1.0000
  C   C229      1.0  0.12476  0.05200  0.51918  1.0000
  H   H383      1.0  0.49754  0.02659  0.70527  1.0000
  C   C230      1.0  0.43205  0.00648  0.64562  1.0000
  C   C231      1.0  0.24612  0.02586  0.55361  1.0000
  C   C232      1.0  0.37352  0.00382  0.68318  1.0000
  H   H384      1.0  0.38887  0.00415  0.69661  1.0000
  H   H385      1.0  0.30385  0.00199  0.59442  1.0000
  C   C233      1.0  0.45297  0.00059  0.58221  1.0000
  H   H386      1.0  0.13875  0.01617  0.50067  1.0000
  H   H387      1.0  0.36904  0.01596  0.68066  1.0000
  C   C234      1.0  0.46046  0.06277  0.70843  1.0000
  H   H388      1.0  0.49232  0.03242  0.72232  1.0000
  S   S68       1.0  0.46941  0.10075  0.68937  1.0000
  C   C235      1.0  0.33388  0.99816  0.69969  1.0000
  S   S69       1.0  0.11882  0.99643  0.50600  1.0000
  C   C236      1.0  0.46815  0.09985  0.73185  1.0000
  C   C237      1.0  0.25291  0.01182  0.53446  1.0000
  S   S70       1.0  0.49302  0.02279  0.59321  1.0000
  H   H389      1.0  0.44576  0.11392  0.65107  1.0000
  C   C238      1.0  0.04035  0.15079  0.50815  1.0000
  S   S71       1.0  0.17915  0.03231  0.51978  1.0000
  H   H390      1.0  0.47043  0.02672  0.64941  1.0000
  C   C239      1.0  0.41674  0.12669  0.66831  1.0000
  C   C240      1.0  0.12798  0.08701  0.49610  1.0000
  S   S72       1.0  0.21301  0.04079  0.53090  1.0000
  H   H391      1.0  0.15493  0.08297  0.50131  1.0000
  H   H392      1.0  0.04278  0.11925  0.51229  1.0000
  C   C241      1.0  0.03145  0.19498  0.50334  1.0000
  H   H393      1.0  0.24836  0.02810  0.56313  1.0000
  Fe  Fe35      1.0  0.39967  0.01261  0.60808  1.0000
  S   S73       1.0  0.37575  0.02437  0.60815  1.0000
  S   S74       1.0  0.41666  0.02621  0.60385  1.0000
  Fe  Fe36      1.0  0.37098  0.00863  0.62980  1.0000
  S   S75       1.0  0.35488  0.01783  0.64875  1.0000
  H   H394      1.0  0.40609  0.12391  0.67538  1.0000
  C   C242      1.0  0.43304  0.12502  0.69274  1.0000
  Fe  Fe37      1.0  0.41476  0.03748  0.69071  1.0000
  S   S76       1.0  0.40997  0.06152  0.68007  1.0000
  S   S77       1.0  0.43374  0.02108  0.68070  1.0000
  H   H395      1.0  0.43919  0.14036  0.66422  1.0000
  Fe  Fe38      1.0  0.38631  0.05923  0.68514  1.0000
  S   S78       1.0  0.37189  0.06761  0.66825  1.0000
  S   S79       1.0  0.39151  0.03485  0.69406  1.0000
  S   S80       1.0  0.41186  0.04089  0.71353  1.0000
  H   H396      1.0  0.45976  0.01896  0.64248  1.0000
  H   H397      1.0  0.02673  0.11290  0.49143  1.0000
  C   C243      1.0  0.35258  0.00429  0.55884  1.0000
  Fe  Fe39      1.0  0.40505  0.06492  0.70335  1.0000
  C   C244      1.0  0.36008  0.03158  0.65383  1.0000
  C   C245      1.0  0.37509  0.03109  0.65306  1.0000
  C   C246      1.0  0.37877  0.04161  0.65833  1.0000
  C   C247      1.0  0.36752  0.05314  0.66352  1.0000
  C   C248      1.0  0.35261  0.05378  0.66391  1.0000
  C   C249      1.0  0.34888  0.04282  0.65946  1.0000
  H   H398      1.0  0.38381  0.02235  0.64886  1.0000
  H   H399      1.0  0.39033  0.04102  0.65802  1.0000
  H   H400      1.0  0.34389  0.06267  0.66785  1.0000
  H   H401      1.0  0.33728  0.04323  0.66015  1.0000
  H   H402      1.0  0.29158  0.99434  0.57703  1.0000
  H   H403      1.0  0.28911  0.02541  0.59456  1.0000
  H   H404      1.0  0.02146  0.19450  0.51246  1.0000
  H   H405      1.0  0.44450  0.12666  0.68770  1.0000
  H   H406      1.0  0.36856  0.00041  0.71341  1.0000
  H   H407      1.0  0.46773  0.06303  0.69721  1.0000
  H   H408      1.0  0.28956  0.04309  0.55371  1.0000
  Fe  Fe40      1.0  0.49816  0.05781  0.66743  1.0000
  C   C250      1.0  0.46201  0.02957  0.64257  1.0000
  C   C251      1.0  0.49695  0.03691  0.63243  1.0000
  H   H409      1.0  0.42465  0.13553  0.69068  1.0000
  H   H410      1.0  0.35467  0.01449  0.55134  1.0000
  H   H411      1.0  0.43033  0.09549  0.71981  1.0000
  C   C252      1.0  0.12712  0.00122  0.51776  1.0000
  Fe  Fe41      1.0  0.48796  0.08832  0.67441  1.0000
  H   H412      1.0  0.35049  0.99746  0.71777  1.0000
  C   C253      1.0  0.35595  0.00059  0.57294  1.0000
  S   S81       1.0  0.41529  0.08115  0.70798  1.0000
  S   S82       1.0  0.21319  0.01382  0.50740  1.0000
  S   S83       1.0  0.37540  0.02885  0.73669  1.0000
  C   C254      1.0  0.04183  0.11329  0.50436  1.0000
  C   C255      1.0  0.46624  0.04268  0.67507  1.0000
  C   C256      1.0  0.45218  0.03969  0.67702  1.0000
  C   C257      1.0  0.45093  0.02509  0.67901  1.0000
  C   C258      1.0  0.46360  0.01353  0.67946  1.0000
  H   H413      1.0  0.32952  0.00844  0.70410  1.0000
  H   H414      1.0  0.46724  0.05393  0.67337  1.0000
  H   H415      1.0  0.44237  0.04864  0.67678  1.0000
  H   H416      1.0  0.45083  0.00847  0.62748  1.0000
  H   H417      1.0  0.42685  0.01826  0.64144  1.0000
  C   C259      1.0  0.47463  0.10102  0.70540  1.0000
  C   C260      1.0  0.46417  0.10010  0.71880  1.0000
  C   C261      1.0  0.49793  0.06334  0.72552  1.0000
  C   C262      1.0  0.31573  0.02713  0.57458  1.0000
  H   H418      1.0  0.39555  0.00869  0.67710  1.0000
  C   C263      1.0  0.02627  0.11834  0.50043  1.0000
  H   H419      1.0  0.45304  0.09933  0.71914  1.0000
  C   C264      1.0  0.30047  0.03637  0.54902  1.0000
  H   H420      1.0  0.41647  0.09785  0.67780  1.0000
  H   H421      1.0  0.34368  0.02256  0.71591  1.0000
  H   H422      1.0  0.49511  0.99400  0.66050  1.0000
  H   H423      1.0  0.45161  0.07318  0.70786  1.0000
  H   H424      1.0  0.00111  0.11452  0.49759  1.0000
  H   H425      1.0  0.24936  0.00637  0.49629  1.0000
  C   C265      1.0  0.44459  0.11660  0.66196  1.0000
  Fe  Fe42      1.0  0.20703  0.99441  0.52459  1.0000
  H   H426      1.0  0.45701  0.01105  0.71297  1.0000
  H   H427      1.0  0.40634  0.14114  0.65041  1.0000
  C   C266      1.0  0.43470  0.01934  0.59421  1.0000
  C   C267      1.0  0.44550  0.02768  0.59083  1.0000
  C   C268      1.0  0.46001  0.02249  0.58314  1.0000
  H   H428      1.0  0.44196  0.08282  0.68350  1.0000
  C   C269      1.0  0.48251  0.10101  0.73146  1.0000
  H   H429      1.0  0.44261  0.03824  0.59401  1.0000
  H   H430      1.0  0.46815  0.02919  0.58016  1.0000
  C   C270      1.0  0.47753  0.01645  0.67793  1.0000
  H   H431      1.0  0.03806  0.20119  0.50614  1.0000
  C   C271      1.0  0.12500  0.99410  0.53271  1.0000
  C   C272      1.0  0.30817  0.00342  0.58225  1.0000
  S   S84       1.0  0.36329  0.01289  0.57813  1.0000
  H   H432      1.0  0.02461  0.30941  0.55112  1.0000
  H   H433      1.0  0.03042  0.29067  0.55927  1.0000
  S   S85       1.0  0.15303  0.00761  0.54833  1.0000
  H   H434      1.0  0.22904  0.00360  0.57403  1.0000
  N   N16       1.0  0.45995  0.03574  0.72361  1.0000
  H   H435      1.0  0.49310  0.05921  0.71864  1.0000
  N   N17       1.0  0.42985  0.11429  0.67194  1.0000
  H   H436      1.0  0.42533  0.10153  0.65884  1.0000
  H   H437      1.0  0.44292  0.02735  0.70815  1.0000
  H   H438      1.0  0.46777  0.99952  0.60891  1.0000
  H   H439      1.0  0.16839  0.05369  0.49045  1.0000
  S   S86       1.0  0.49674  0.03422  0.67241  1.0000
  H   H440      1.0  0.27525  0.01112  0.58728  1.0000
  Fe  Fe43      1.0  0.17552  0.01104  0.53533  1.0000
  H   H441      1.0  0.36136  0.02543  0.70536  1.0000
  Fe  Fe44      1.0  0.20170  0.02596  0.52571  1.0000
  S   S87       1.0  0.18543  0.99699  0.51855  1.0000
  H   H442      1.0  0.00547  0.09762  0.52945  1.0000
  H   H443      1.0  0.22570  0.04276  0.55375  1.0000
  C   C273      1.0  0.42514  0.08796  0.72895  1.0000
  C   C274      1.0  0.27517  0.02283  0.58188  1.0000
  C   C275      1.0  0.48839  0.03340  0.71220  1.0000
  H   H444      1.0  0.05156  0.14418  0.50840  1.0000
  H   H445      1.0  0.41688  0.13706  0.67106  1.0000
  C   C276      1.0  0.34665  0.99484  0.55431  1.0000
  C   C277      1.0  0.44370  0.00032  0.63281  1.0000
  N   N18       1.0  0.38652  0.06713  0.61087  1.0000
  C   C278      1.0  0.38884  0.06123  0.59716  1.0000
  C   C279      1.0  0.37435  0.06070  0.62224  1.0000
  C   C280      1.0  0.40083  0.06138  0.61651  1.0000
  C   C281      1.0  0.38260  0.08385  0.60684  1.0000
  C   C282      1.0  0.40185  0.06515  0.58432  1.0000
  C   C283      1.0  0.35910  0.06454  0.61784  1.0000
  C   C284      1.0  0.40141  0.06686  0.62991  1.0000
  C   C285      1.0  0.37395  0.09210  0.61952  1.0000
  H   H446      1.0  0.39069  0.04894  0.59995  1.0000
  H   H447      1.0  0.37868  0.06532  0.59237  1.0000
  H   H448      1.0  0.37224  0.06396  0.63291  1.0000
  H   H449      1.0  0.37790  0.04838  0.62492  1.0000
  H   H450      1.0  0.40340  0.04904  0.61957  1.0000
  H   H451      1.0  0.41049  0.06439  0.60785  1.0000
  H   H452      1.0  0.39291  0.08812  0.60147  1.0000
  H   H453      1.0  0.37551  0.08769  0.59843  1.0000
  H   H454      1.0  0.40173  0.07712  0.58145  1.0000
  H   H455      1.0  0.41284  0.05851  0.58668  1.0000
  H   H456      1.0  0.40085  0.06217  0.57431  1.0000
  H   H457      1.0  0.35935  0.05807  0.60979  1.0000
  H   H458      1.0  0.35057  0.06133  0.62783  1.0000
  H   H459      1.0  0.35532  0.07651  0.61332  1.0000
  H   H460      1.0  0.41204  0.06088  0.63353  1.0000
  H   H461      1.0  0.39233  0.06453  0.63954  1.0000
  H   H462      1.0  0.40135  0.07883  0.62700  1.0000
  H   H463      1.0  0.37806  0.10227  0.61772  1.0000
  H   H464      1.0  0.37505  0.08587  0.63081  1.0000
  H   H465      1.0  0.36190  0.09604  0.61918  1.0000
  H   H466      1.0  0.00562  0.29422  0.57922  1.0000
  H   H467      1.0  0.01180  0.13679  0.51830  1.0000
  H   H468      1.0  0.03528  0.15222  0.53105  1.0000
  C   C286      1.0  0.03115  0.15530  0.52096  1.0000
  H   H469      1.0  0.00040  0.17485  0.50717  1.0000
  H   H470      1.0  0.32052  0.99958  0.58078  1.0000
  H   H471      1.0  0.46260  0.00229  0.68103  1.0000
  C   C287      1.0  0.23326  0.03414  0.54835  1.0000
  H   H472      1.0  0.43808  0.01235  0.72244  1.0000
  H   H473      1.0  0.45844  0.13121  0.66193  1.0000
  H   H474      1.0  0.00188  0.14347  0.49795  1.0000
  H   H475      1.0  0.41919  0.11014  0.69513  1.0000
  H   H476      1.0  0.45396  0.10855  0.66659  1.0000
  C   C288      1.0  0.13250  0.99660  0.54216  1.0000
  C   C289      1.0  0.25594  0.01464  0.54676  1.0000
  H   H477      1.0  0.44436  0.05914  0.73869  1.0000
  C   C290      1.0  0.01677  0.16411  0.52063  1.0000
  H   H478      1.0  0.44103  0.05345  0.71801  1.0000
  S   S88       1.0  0.19683  0.00612  0.54325  1.0000
  H   H479      1.0  0.12312  0.04941  0.53144  1.0000
  H   H480      1.0  0.48686  0.04480  0.70562  1.0000
  H   H481      1.0  0.26681  0.01540  0.50185  1.0000
  H   H482      1.0  0.03745  0.18333  0.50348  1.0000
  Fe  Fe45      1.0  0.37444  0.00656  0.59781  1.0000
  S   S89       1.0  0.48265  0.07845  0.65839  1.0000
  H   H483      1.0  0.00577  0.29004  0.56263  1.0000
  H   H484      1.0  0.46693  0.06345  0.71603  1.0000
  H   H485      1.0  0.49715  0.10292  0.69458  1.0000
  H   H486      1.0  0.47734  0.01578  0.72225  1.0000
  S   S90       1.0  0.38065  0.06529  0.70738  1.0000
  H   H487      1.0  0.42290  0.00047  0.64992  1.0000
  C   C291      1.0  0.00669  0.29914  0.56719  1.0000
  C   C292      1.0  0.40984  0.06990  0.73818  1.0000
  C   C293      1.0  0.14495  0.01278  0.52158  1.0000
  C   C294      1.0  0.44918  0.02557  0.72917  1.0000
  C   C295      1.0  0.49290  0.10243  0.71796  1.0000
  H   H488      1.0  0.12193  0.06928  0.49082  1.0000
  H   H489      1.0  0.41353  0.00676  0.73926  1.0000
  C   C296      1.0  0.44785  0.13218  0.65861  1.0000
  H   H490      1.0  0.39766  0.00954  0.71895  1.0000
  C   C297      1.0  0.23970  0.01977  0.52950  1.0000
  H   H491      1.0  0.43789  0.03146  0.73423  1.0000
  C   C298      1.0  0.13689  0.01083  0.51225  1.0000
  C   C299      1.0  0.15934  0.06400  0.49059  1.0000
  C   C300      1.0  0.01916  0.08843  0.51099  1.0000
  H   H492      1.0  0.01010  0.09015  0.50511  1.0000
  C   C301      1.0  0.01560  0.09972  0.52092  1.0000
  C   C302      1.0  0.41676  0.07949  0.72629  1.0000
  H   H493      1.0  0.45295  0.01608  0.73804  1.0000
  H   H494      1.0  0.04497  0.10117  0.50861  1.0000
  H   H495      1.0  0.23717  0.01734  0.52026  1.0000
  H   H496      1.0  0.43018  0.99923  0.59258  1.0000
  C   C303      1.0  0.47894  0.03102  0.67532  1.0000
  Fe  Fe46      1.0  0.19018  0.01793  0.50331  1.0000
  C   C304      1.0  0.47438  0.02724  0.71567  1.0000
  C   C305      1.0  0.45310  0.04935  0.71333  1.0000
  H   H497      1.0  0.43866  0.10237  0.69157  1.0000
  C   C306      1.0  0.14031  0.05554  0.51238  1.0000
  H   H498      1.0  0.15309  0.01954  0.51716  1.0000
  H   H499      1.0  0.02469  0.09666  0.52715  1.0000
  C   C307      1.0  0.42701  0.10027  0.67013  1.0000
  H   H500      1.0  0.47310  0.02604  0.70496  1.0000
  H   H501      1.0  0.45289  0.04652  0.70299  1.0000
  H   H502      1.0  0.22997  0.00002  0.55652  1.0000
  C   C308      1.0  0.44680  0.01880  0.71742  1.0000
  H   H503      1.0  0.14874  0.04556  0.51620  1.0000
  H   H504      1.0  0.05965  0.18171  0.49011  1.0000
  C   C309      1.0  0.43006  0.11224  0.68803  1.0000
  C   C310      1.0  0.38924  0.00134  0.68610  1.0000
  H   H505      1.0  0.32818  0.03134  0.58828  1.0000
  N   N19       1.0  0.47185  0.05183  0.62506  1.0000
  C   C311      1.0  0.45792  0.06274  0.63051  1.0000
  C   C312      1.0  0.46783  0.03734  0.62665  1.0000
  C   C313      1.0  0.47846  0.05737  0.60904  1.0000
  C   C314      1.0  0.48320  0.04999  0.63407  1.0000
  C   C315      1.0  0.45941  0.07890  0.62753  1.0000
  C   C316      1.0  0.16334  0.07267  0.49972  1.0000
  C   C317      1.0  0.46817  0.06069  0.59808  1.0000
  N   N20       1.0  0.14412  0.06028  0.49572  1.0000
  H   H506      1.0  0.44848  0.06280  0.62578  1.0000
  H   H507      1.0  0.45406  0.05938  0.64271  1.0000
  H   H508      1.0  0.47750  0.02932  0.62170  1.0000
  H   H509      1.0  0.45896  0.03890  0.62054  1.0000
  H   H510      1.0  0.48244  0.06756  0.60759  1.0000
  H   H511      1.0  0.48858  0.04922  0.60502  1.0000
  H   H512      1.0  0.48748  0.06022  0.63141  1.0000
  H   H513      1.0  0.47786  0.04844  0.64599  1.0000
  H   H514      1.0  0.46127  0.08409  0.61557  1.0000
  H   H515      1.0  0.44884  0.08558  0.63297  1.0000
  H   H516      1.0  0.46846  0.07981  0.63218  1.0000
  H   H517      1.0  0.31498  0.01469  0.55297  1.0000
  H   H518      1.0  0.45133  0.03616  0.64785  1.0000
  H   H519      1.0  0.43764  0.00098  0.62420  1.0000
  H   H520      1.0  0.45767  0.06893  0.60085  1.0000
  H   H521      1.0  0.46566  0.05046  0.59714  1.0000
  H   H522      1.0  0.47416  0.06543  0.58689  1.0000
  H   H523      1.0  0.31257  0.03927  0.57011  1.0000
  Fe  Fe47      1.0  0.38797  0.04082  0.71586  1.0000
  H   H524      1.0  0.34736  0.02453  0.69627  1.0000
  H   H525      1.0  0.43238  0.12194  0.70488  1.0000
  H   H526      1.0  0.40321  0.06344  0.73627  1.0000
  S   S91       1.0  0.00577  0.17007  0.53668  1.0000
  C   C318      1.0  0.35857  0.00282  0.70874  1.0000
  C   C319      1.0  0.02285  0.30127  0.56166  1.0000
  C   C320      1.0  0.01193  0.12506  0.52395  1.0000
  H   H527      1.0  0.29975  0.03553  0.53793  1.0000
  C   C321      1.0  0.41505  0.13073  0.65207  1.0000
  H   H528      1.0  0.34437  0.99768  0.54333  1.0000
  C   C322      1.0  0.34910  0.99838  0.68876  1.0000
  H   H529      1.0  0.00669  0.30095  0.53823  1.0000
  C   C323      1.0  0.03502  0.15466  0.49512  1.0000
  H   H530      1.0  0.02025  0.07708  0.51805  1.0000
  H   H531      1.0  0.02992  0.08851  0.50286  1.0000
  H   H532      1.0  0.30950  0.04221  0.54715  1.0000
  H   H533      1.0  0.43712  0.00615  0.65483  1.0000
  H   H534      1.0  0.02489  0.13027  0.49516  1.0000
  H   H535      1.0  0.28735  0.03948  0.57844  1.0000
  H   H536      1.0  0.48855  0.06755  0.73414  1.0000
  H   H537      1.0  0.47019  0.99487  0.63882  1.0000
  H   H538      1.0  0.32357  0.01376  0.59499  1.0000
  H   H539      1.0  0.15336  0.03738  0.49396  1.0000
  H   H540      1.0  0.49560  0.02733  0.64183  1.0000
  H   H541      1.0  0.48725  0.00742  0.67870  1.0000
  S   S92       1.0  0.48215  0.00195  0.56983  1.0000
  H   H542      1.0  0.41116  0.12219  0.64934  1.0000
  H   H543      1.0  0.44968  0.13688  0.64651  1.0000
  H   H544      1.0  0.02186  0.12134  0.52908  1.0000
  H   H545      1.0  0.26515  0.02957  0.58801  1.0000
  H   H546      1.0  0.34719  0.00925  0.68082  1.0000
  C   C324      1.0  0.01149  0.16811  0.50752  1.0000
  C   C325      1.0  0.30391  0.02059  0.55855  1.0000
  H   H547      1.0  0.12832  0.08484  0.50790  1.0000
  C   C326      1.0  0.43844  0.00576  0.58995  1.0000
  H   H548      1.0  0.47135  0.04542  0.73407  1.0000
  H   H549      1.0  0.16522  0.06566  0.51062  1.0000
  S   S93       1.0  0.39494  0.99796  0.63049  1.0000
  H   H550      1.0  0.44993  0.08706  0.66388  1.0000
  H   H551      1.0  0.27361  0.02514  0.57040  1.0000
  N   N21       1.0  0.30395  0.01951  0.57450  1.0000
  C   C327      1.0  0.48904  0.10213  0.70496  1.0000
  H   H552      1.0  0.12368  0.04205  0.51626  1.0000
  H   H553      1.0  0.30941  0.03053  0.59757  1.0000
  N   N22       1.0  0.01326  0.11579  0.51309  1.0000
  H   H554      1.0  0.43586  0.07671  0.67086  1.0000
  S   S94       1.0  0.31143  0.99779  0.53206  1.0000
  S   S95       1.0  0.27111  0.00366  0.55470  1.0000
  H   H555      1.0  0.29567  0.01496  0.55761  1.0000
  S   S96       1.0  0.39901  0.99632  0.59566  1.0000
  C   C328      1.0  0.46382  0.00889  0.57890  1.0000
  C   C329      1.0  0.28917  0.02727  0.58260  1.0000
  C   C330      1.0  0.31921  0.02545  0.58983  1.0000
  C   C331      1.0  0.43953  0.08608  0.67230  1.0000
  N   N23       1.0  0.36252  0.99628  0.69524  1.0000
  H   H556      1.0  0.48896  0.15013  0.73106  1.0000
  H   H557      1.0  0.17409  0.07584  0.49377  1.0000
  H   H558      1.0  0.02648  0.30440  0.57020  1.0000
  H   H559      1.0  0.11616  0.09257  0.49560  1.0000
  H   H560      1.0  0.32647  0.02305  0.56720  1.0000
  H   H561      1.0  0.42547  0.13275  0.64411  1.0000
  H   H562      1.0  0.14088  0.06396  0.51794  1.0000
  C   C332      1.0  0.35242  0.01979  0.70613  1.0000
  C   C333      1.0  0.30358  0.99181  0.57709  1.0000
  C   C334      1.0  0.46244  0.03924  0.73697  1.0000
  H   H563      1.0  0.00240  0.31816  0.49265  1.0000
  H   H564      1.0  0.37514  0.00023  0.67263  1.0000
  H   H565      1.0  0.13433  0.04369  0.49306  1.0000
  C   C335      1.0  0.02055  0.16323  0.49480  1.0000
  H   H566      1.0  0.11558  0.06153  0.51621  1.0000
  H   H567      1.0  0.05029  0.11601  0.49414  1.0000
  H   H568      1.0  0.32562  0.99781  0.69365  1.0000
  C   C336      1.0  0.37785  0.01026  0.73637  1.0000
  H   H569      1.0  0.21685  0.99330  0.57257  1.0000
  S   S97       1.0  0.36749  0.99171  0.61963  1.0000
  H   H570      1.0  0.49877  0.10283  0.59025  1.0000
  H   H571      1.0  0.01845  0.21321  0.49018  1.0000
  C   C337      1.0  0.99930  0.11999  0.50696  1.0000
  H   H572      1.0  0.47173  0.20819  0.86751  1.0000
  H   H573      1.0  0.46142  0.21434  0.94793  1.0000
  C   C338      1.0  0.47377  0.01105  0.80211  1.0000
  H   H574      1.0  0.46658  0.02882  0.74469  1.0000
  H   H575      1.0  0.47645  0.20014  0.95493  1.0000
  H   H576      1.0  0.47015  0.27755  0.94186  1.0000
  H   H577      1.0  0.43028  0.04200  0.78474  1.0000
  H   H578      1.0  0.43831  0.00661  0.81887  1.0000
  H   H579      1.0  0.45930  0.23045  0.85343  1.0000
  S   S98       1.0  0.39547  0.25837  0.98901  1.0000
  C   C339      1.0  0.48311  0.21293  0.93216  1.0000
  N   N24       1.0  0.48383  0.20146  0.92388  1.0000
  S   S99       1.0  0.47715  0.08189  0.78908  1.0000
  H   H580      1.0  0.47766  0.09656  0.81475  1.0000
  H   H581      1.0  0.47236  0.31216  0.91088  1.0000
  Fe  Fe48      1.0  0.46854  0.06220  0.78975  1.0000
  S   S100      1.0  0.44521  0.07193  0.80062  1.0000
  C   C340      1.0  0.45543  0.10196  0.86389  1.0000
  Fe  Fe49      1.0  0.47095  0.09047  0.76694  1.0000
  S   S101      1.0  0.44749  0.10236  0.77533  1.0000
  H   H582      1.0  0.46667  0.28937  0.90664  1.0000
  Fe  Fe50      1.0  0.45334  0.09251  0.79773  1.0000
  S   S102      1.0  0.44585  0.10701  0.81473  1.0000
  Fe  Fe51      1.0  0.44150  0.08080  0.77742  1.0000
  S   S103      1.0  0.42144  0.07558  0.77352  1.0000
  H   H583      1.0  0.46661  0.26826  0.84190  1.0000
  S   S104      1.0  0.46447  0.06997  0.76677  1.0000
  H   H584      1.0  0.42807  0.12034  0.86841  1.0000
  S   S105      1.0  0.45875  0.15961  0.85797  1.0000
  H   H585      1.0  0.49798  0.12011  0.79299  1.0000
  C   C341      1.0  0.46792  0.23175  0.85843  1.0000
  H   H586      1.0  0.40164  0.00629  0.78400  1.0000
  Fe  Fe52      1.0  0.46542  0.15530  0.87969  1.0000
  S   S106      1.0  0.45020  0.14826  0.90129  1.0000
  Fe  Fe53      1.0  0.46718  0.18033  0.85289  1.0000
  S   S107      1.0  0.45490  0.20284  0.84288  1.0000
  H   H587      1.0  0.45302  0.10330  0.90830  1.0000
  Fe  Fe54      1.0  0.41128  0.25039  0.89449  1.0000
  S   S108      1.0  0.43549  0.25076  0.88656  1.0000
  S   S109      1.0  0.40446  0.23095  0.89189  1.0000
  S   S110      1.0  0.42747  0.27901  0.90239  1.0000
  Fe  Fe55      1.0  0.42724  0.27535  0.88053  1.0000
  S   S111      1.0  0.43953  0.28946  0.86116  1.0000
  Fe  Fe56      1.0  0.43375  0.25444  0.90894  1.0000
  S   S112      1.0  0.45289  0.24385  0.92025  1.0000
  S   S113      1.0  0.40288  0.27490  0.88636  1.0000
  S   S114      1.0  0.41019  0.25200  0.91759  1.0000
  H   H588      1.0  0.49283  0.00556  0.77125  1.0000
  C   C342      1.0  0.44865  0.24847  0.93754  1.0000
  C   C343      1.0  0.43378  0.25277  0.94474  1.0000
  C   C344      1.0  0.43043  0.25659  0.95850  1.0000
  C   C345      1.0  0.44195  0.25652  0.96490  1.0000
  C   C346      1.0  0.45684  0.25241  0.95764  1.0000
  C   C347      1.0  0.46019  0.24831  0.94400  1.0000
  H   H589      1.0  0.42480  0.25329  0.93967  1.0000
  H   H590      1.0  0.41893  0.26022  0.96380  1.0000
  H   H591      1.0  0.46578  0.25254  0.96250  1.0000
  H   H592      1.0  0.47171  0.24540  0.93830  1.0000
  C   C348      1.0  0.44000  0.21022  0.85617  1.0000
  C   C349      1.0  0.43562  0.20143  0.87009  1.0000
  C   C350      1.0  0.42441  0.20774  0.88094  1.0000
  C   C351      1.0  0.41778  0.22290  0.87800  1.0000
  C   C352      1.0  0.42201  0.23163  0.86403  1.0000
  C   C353      1.0  0.43286  0.22521  0.85303  1.0000
  H   H593      1.0  0.44079  0.18976  0.87249  1.0000
  H   H594      1.0  0.42112  0.20092  0.89170  1.0000
  H   H595      1.0  0.41676  0.24331  0.86167  1.0000
  H   H596      1.0  0.43598  0.23193  0.84217  1.0000
  C   C354      1.0  0.45846  0.11389  0.82007  1.0000
  C   C355      1.0  0.47350  0.10658  0.81903  1.0000
  C   C356      1.0  0.41116  0.06897  0.75265  1.0000
  H   H597      1.0  0.49446  0.15621  0.74430  1.0000
  C   C357      1.0  0.46285  0.13236  0.83056  1.0000
  C   C358      1.0  0.45318  0.12680  0.82585  1.0000
  H   H598      1.0  0.40853  0.02191  0.80241  1.0000
  C   C359      1.0  0.46988  0.12755  0.77844  1.0000
  H   H599      1.0  0.45870  0.14238  0.83485  1.0000
  H   H600      1.0  0.44157  0.13255  0.82664  1.0000
  H   H601      1.0  0.47716  0.29005  0.92584  1.0000
  H   H602      1.0  0.44408  0.27900  0.93441  1.0000
  C   C360      1.0  0.47576  0.29581  0.94612  1.0000
  H   H603      1.0  0.49079  0.31232  0.96205  1.0000
  C   C361      1.0  0.45583  0.28953  0.86620  1.0000
  C   C362      1.0  0.46231  0.27733  0.87605  1.0000
  H   H604      1.0  0.39134  0.05061  0.81200  1.0000
  H   H605      1.0  0.45735  0.26787  0.88058  1.0000
  H   H606      1.0  0.44368  0.26942  0.83739  1.0000
  H   H607      1.0  0.43334  0.10642  0.91223  1.0000
  H   H608      1.0  0.46138  0.19882  0.93420  1.0000
  C   C363      1.0  0.43429  0.19261  0.97850  1.0000
  C   C364      1.0  0.45960  0.13944  0.91578  1.0000
  C   C365      1.0  0.45584  0.14539  0.92841  1.0000
  C   C366      1.0  0.48300  0.24070  0.83420  1.0000
  H   H609      1.0  0.44954  0.08715  0.85403  1.0000
  C   C367      1.0  0.47517  0.27737  0.88031  1.0000
  H   H610      1.0  0.46017  0.14301  0.94990  1.0000
  C   C368      1.0  0.46689  0.19115  0.91421  1.0000
  C   C369      1.0  0.46041  0.28152  0.91471  1.0000
  H   H611      1.0  0.46847  0.27184  0.91958  1.0000
  H   H612      1.0  0.49766  0.19514  0.90346  1.0000
  H   H613      1.0  0.40447  0.30795  0.89744  1.0000
  C   C370      1.0  0.47783  0.12489  0.82976  1.0000
  H   H614      1.0  0.43886  0.29573  0.92176  1.0000
  H   H615      1.0  0.45589  0.31298  0.90435  1.0000
  H   H616      1.0  0.40551  0.06178  0.76183  1.0000
  C   C371      1.0  0.47465  0.30224  0.86565  1.0000
  H   H617      1.0  0.43946  0.21415  0.96996  1.0000
  H   H618      1.0  0.47334  0.12158  0.90532  1.0000
  C   C372      1.0  0.41903  0.02543  0.80118  1.0000
  H   H619      1.0  0.48474  0.99643  0.76268  1.0000
  C   C373      1.0  0.44358  0.10334  0.88974  1.0000
  S   S115      1.0  0.49481  0.25961  0.97113  1.0000
  H   H620      1.0  0.41790  0.99744  0.81487  1.0000
  H   H621      1.0  0.43211  0.10226  0.89032  1.0000
  H   H622      1.0  0.42082  0.29903  0.96345  1.0000
  C   C374      1.0  0.45980  0.00506  0.78771  1.0000
  C   C375      1.0  0.45857  0.01942  0.77905  1.0000
  C   C376      1.0  0.46486  0.02958  0.78191  1.0000
  C   C377      1.0  0.47246  0.02547  0.79345  1.0000
  H   H623      1.0  0.33856  0.32278  0.98711  1.0000
  C   C378      1.0  0.46742  0.00086  0.79927  1.0000
  H   H624      1.0  0.45251  0.02275  0.77025  1.0000
  H   H625      1.0  0.46369  0.04062  0.77527  1.0000
  H   H626      1.0  0.35183  0.31810  0.97117  1.0000
  H   H627      1.0  0.44739  0.15554  0.92902  1.0000
  C   C379      1.0  0.47973  0.14031  0.75373  1.0000
  C   C380      1.0  0.46823  0.20185  0.92294  1.0000
  H   H628      1.0  0.47134  0.12246  0.78988  1.0000
  H   H629      1.0  0.49522  0.22009  0.88732  1.0000
  C   C381      1.0  0.45146  0.31297  0.92800  1.0000
  C   C382      1.0  0.42677  0.29802  0.95198  1.0000
  H   H630      1.0  0.46347  0.27469  0.98081  1.0000
  H   H631      1.0  0.49468  0.23599  0.85851  1.0000
  S   S116      1.0  0.49623  0.29054  0.88205  1.0000
  H   H632      1.0  0.42220  0.14553  0.87229  1.0000
  H   H633      1.0  0.42232  0.30817  0.94439  1.0000
  N   N25       1.0  0.47494  0.24439  0.84904  1.0000
  C   C383      1.0  0.46929  0.28955  0.93676  1.0000
  H   H634      1.0  0.46597  0.12537  0.86366  1.0000
  C   C384      1.0  0.43003  0.13658  0.87831  1.0000
  Fe  Fe57      1.0  0.47863  0.13087  0.97016  1.0000
  Fe  Fe58      1.0  0.40391  0.27653  0.90896  1.0000
  H   H635      1.0  0.49453  0.26566  0.94057  1.0000
  H   H636      1.0  0.45712  0.31140  0.85327  1.0000
  S   S117      1.0  0.38819  0.29164  0.92347  1.0000
  H   H637      1.0  0.42389  0.28850  0.94991  1.0000
  C   C385      1.0  0.49369  0.20489  0.90875  1.0000
  H   H638      1.0  0.38875  0.21811  0.97253  1.0000
  S   S118      1.0  0.48875  0.14295  0.87209  1.0000
  C   C386      1.0  0.46307  0.13829  0.94022  1.0000
  H   H639      1.0  0.44735  0.28460  0.95775  1.0000
  H   H640      1.0  0.46200  0.23399  0.86957  1.0000
  H   H641      1.0  0.47642  0.18930  0.90483  1.0000
  C   C387      1.0  0.47738  0.11890  0.92703  1.0000
  H   H642      1.0  0.47879  0.22420  0.92609  1.0000
  N   N26       1.0  0.44961  0.11213  0.87475  1.0000
  H   H643      1.0  0.48292  0.10163  0.86883  1.0000
  C   C388      1.0  0.47351  0.21133  0.94799  1.0000
  C   C389      1.0  0.44374  0.29562  0.95070  1.0000
  C   C390      1.0  0.48124  0.14710  0.79123  1.0000
  H   H644      1.0  0.40673  0.05659  0.81423  1.0000
  H   H645      1.0  0.48558  0.26415  0.82412  1.0000
  H   H646      1.0  0.45711  0.26030  0.85920  1.0000
  N   N27       1.0  0.45338  0.29675  0.93526  1.0000
  C   C391      1.0  0.47851  0.21628  0.86074  1.0000
  H   H647      1.0  0.44367  0.04429  0.82486  1.0000
  H   H648      1.0  0.49470  0.10621  0.82325  1.0000
  Fe  Fe59      1.0  0.46216  0.16140  0.97621  1.0000
  C   C392      1.0  0.40339  0.31281  0.90670  1.0000
  C   C393      1.0  0.47656  0.10672  0.87843  1.0000
  H   H649      1.0  0.45180  0.05111  0.75483  1.0000
  H   H650      1.0  0.47920  0.30019  0.98967  1.0000
  C   C394      1.0  0.48312  0.11205  0.82388  1.0000
  H   H651      1.0  0.46217  0.21326  0.91860  1.0000
  S   S119      1.0  0.49212  0.12568  0.98758  1.0000
  Fe  Fe60      1.0  0.48269  0.14884  0.84976  1.0000
  H   H652      1.0  0.48242  0.18252  0.94214  1.0000
  H   H653      1.0  0.44314  0.02995  0.80752  1.0000
  H   H654      1.0  0.49693  0.25056  0.81401  1.0000
  H   H655      1.0  0.41061  0.04914  0.79156  1.0000
  C   C395      1.0  0.49039  0.18618  0.93183  1.0000
  C   C396      1.0  0.42413  0.18459  0.98831  1.0000
  H   H656      1.0  0.42987  0.99351  0.74416  1.0000
  H   H657      1.0  0.47809  0.13100  0.74999  1.0000
  C   C397      1.0  0.46017  0.31675  0.91199  1.0000
  C   C398      1.0  0.39567  0.30706  0.92074  1.0000
  H   H658      1.0  0.42825  0.01667  0.79673  1.0000
  H   H659      1.0  0.43337  0.09326  0.74526  1.0000
  H   H660      1.0  0.46936  0.14915  0.75295  1.0000
  H   H661      1.0  0.42957  0.04659  0.80685  1.0000
  C   C399      1.0  0.41906  0.21506  0.98658  1.0000
  H   H662      1.0  0.47547  0.21925  0.95334  1.0000
  H   H663      1.0  0.47995  0.26795  0.88807  1.0000
  H   H664      1.0  0.43953  0.31820  0.92772  1.0000
  S   S120      1.0  0.47988  0.03832  0.79750  1.0000
  H   H665      1.0  0.35865  0.00748  0.75396  1.0000
  H   H666      1.0  0.44177  0.12121  0.90161  1.0000
  H   H667      1.0  0.47037  0.11799  0.77377  1.0000
  H   H668      1.0  0.46939  0.29490  0.95771  1.0000
  H   H669      1.0  0.47761  0.25627  0.81391  1.0000
  S   S121      1.0  0.43793  0.26267  0.98135  1.0000
  S   S122      1.0  0.44969  0.18406  0.96653  1.0000
  H   H670      1.0  0.44020  0.02676  0.83482  1.0000
  H   H671      1.0  0.40652  0.03137  0.83683  1.0000
  C   C400      1.0  0.41764  0.99949  0.82575  1.0000
  C   C401      1.0  0.43172  0.20785  0.97762  1.0000
  N   N28       1.0  0.40434  0.20696  0.94468  1.0000
  C   C402      1.0  0.38836  0.20999  0.95325  1.0000
  C   C403      1.0  0.40397  0.21041  0.92849  1.0000
  C   C404      1.0  0.41188  0.21753  0.94729  1.0000
  C   C405      1.0  0.41189  0.19104  0.95020  1.0000
  C   C406      1.0  0.38623  0.20857  0.97006  1.0000
  C   C407      1.0  0.39433  0.20231  0.92439  1.0000
  C   C408      1.0  0.42827  0.21679  0.93928  1.0000
  C   C409      1.0  0.42482  0.18339  0.93915  1.0000
  H   H672      1.0  0.38222  0.22135  0.94870  1.0000
  H   H673      1.0  0.38224  0.20223  0.95213  1.0000
  H   H674      1.0  0.41533  0.20798  0.92144  1.0000
  H   H675      1.0  0.39961  0.22251  0.92459  1.0000
  H   H676      1.0  0.40554  0.22918  0.94430  1.0000
  H   H677      1.0  0.41194  0.21562  0.95918  1.0000
  H   H678      1.0  0.41637  0.19008  0.96005  1.0000
  H   H679      1.0  0.40372  0.18381  0.95423  1.0000
  H   H680      1.0  0.39303  0.19807  0.97532  1.0000
  C   C410      1.0  0.49543  0.99672  0.76500  1.0000
  H   H681      1.0  0.37433  0.20870  0.97544  1.0000
  H   H682      1.0  0.38234  0.20798  0.92682  1.0000
  H   H683      1.0  0.39753  0.20270  0.91230  1.0000
  H   H684      1.0  0.39571  0.19052  0.93021  1.0000
  H   H685      1.0  0.43555  0.20637  0.94395  1.0000
  H   H686      1.0  0.43199  0.22572  0.94147  1.0000
  H   H687      1.0  0.43004  0.21852  0.92711  1.0000
  H   H688      1.0  0.42072  0.18087  0.93058  1.0000
  H   H689      1.0  0.43044  0.17263  0.94531  1.0000
  H   H690      1.0  0.43350  0.18977  0.93361  1.0000
  N   N29       1.0  0.42076  0.02660  0.81596  1.0000
  C   C411      1.0  0.42656  0.01112  0.82425  1.0000
  H   H691      1.0  0.47477  0.15752  0.79489  1.0000
  H   H692      1.0  0.48269  0.22848  0.90183  1.0000
  C   C412      1.0  0.40593  0.03300  0.82506  1.0000
  C   C413      1.0  0.45382  0.13721  0.77977  1.0000
  H   H693      1.0  0.48394  0.21266  0.85015  1.0000
  H   H694      1.0  0.44509  0.30376  0.95626  1.0000
  C   C414      1.0  0.46246  0.11835  0.87472  1.0000
  H   H695      1.0  0.49334  0.10569  0.78752  1.0000
  C   C415      1.0  0.49235  0.14645  0.74191  1.0000
  H   H696      1.0  0.47550  0.13853  0.79866  1.0000
  H   H697      1.0  0.45500  0.27718  0.90851  1.0000
  H   H698      1.0  0.45410  0.25273  0.83117  1.0000
  C   C416      1.0  0.48112  0.28995  0.87543  1.0000
  H   H699      1.0  0.41650  0.03721  0.77888  1.0000
  H   H700      1.0  0.44176  0.25207  0.84925  1.0000
  C   C417      1.0  0.41876  0.99475  0.74211  1.0000
  C   C418      1.0  0.43528  0.03739  0.82801  1.0000
  C   C419      1.0  0.44306  0.10915  0.90344  1.0000
  H   H701      1.0  0.45054  0.09182  0.89144  1.0000
  H   H702      1.0  0.48807  0.19922  0.97552  1.0000
  C   C420      1.0  0.46252  0.25816  0.84798  1.0000
  N   N30       1.0  0.48210  0.13537  0.76943  1.0000
  C   C421      1.0  0.41909  0.03934  0.78858  1.0000
  H   H703      1.0  0.48385  0.15473  0.90265  1.0000
  C   C422      1.0  0.38443  0.30849  0.98836  1.0000
  H   H704      1.0  0.48730  0.28931  0.94667  1.0000
  H   H705      1.0  0.48704  0.21550  0.86688  1.0000
  C   C423      1.0  0.48561  0.24611  0.85717  1.0000
  H   H706      1.0  0.47658  0.30735  0.94100  1.0000
  C   C424      1.0  0.44838  0.28852  0.92682  1.0000
  H   H707      1.0  0.46159  0.10750  0.85322  1.0000
  S   S123      1.0  0.45636  0.13910  0.98435  1.0000
  H   H708      1.0  0.42324  0.13215  0.88911  1.0000
  C   C425      1.0  0.47377  0.12499  0.93958  1.0000
  H   H709      1.0  0.42508  0.04331  0.83468  1.0000
  H   H710      1.0  0.44597  0.13047  0.78733  1.0000
  H   H711      1.0  0.40594  0.00248  0.83184  1.0000
  C   C426      1.0  0.47047  0.12625  0.91502  1.0000
  C   C427      1.0  0.48159  0.14895  0.77468  1.0000
  C   C428      1.0  0.43747  0.12461  0.86911  1.0000
  H   H712      1.0  0.45690  0.19602  0.90920  1.0000
  H   H713      1.0  0.43714  0.10486  0.85272  1.0000
  H   H714      1.0  0.49757  0.31906  0.91783  1.0000
  H   H715      1.0  0.43812  0.14194  0.87990  1.0000
  H   H716      1.0  0.47727  0.21586  0.89450  1.0000
  C   C429      1.0  0.46219  0.30190  0.86077  1.0000
  H   H717      1.0  0.46571  0.18026  0.92162  1.0000
  S   S124      1.0  0.47171  0.17693  0.87535  1.0000
  S   S125      1.0  0.48308  0.15342  0.96055  1.0000
  H   H718      1.0  0.41822  0.01280  0.77465  1.0000
  H   H719      1.0  0.39748  0.02680  0.82576  1.0000
  S   S126      1.0  0.49022  0.13095  0.83625  1.0000
  S   S127      1.0  0.45134  0.99295  0.78381  1.0000
  C   C430      1.0  0.41977  0.07727  0.75527  1.0000
  C   C431      1.0  0.44369  0.09612  0.86021  1.0000
  H   H720      1.0  0.46374  0.09198  0.86798  1.0000
  H   H721      1.0  0.38838  0.30891  0.94354  1.0000
  H   H722      1.0  0.47393  0.09796  0.88828  1.0000
  S   S128      1.0  0.49073  0.17012  0.84270  1.0000
  H   H723      1.0  0.39177  0.05418  0.82930  1.0000
  H   H724      1.0  0.45929  0.12594  0.88243  1.0000
  H   H725      1.0  0.43610  0.09146  0.87027  1.0000
  H   H726      1.0  0.44184  0.13036  0.85766  1.0000
  C   C432      1.0  0.44994  0.25788  0.84094  1.0000
  H   H727      1.0  0.45239  0.14682  0.78468  1.0000
  H   H728      1.0  0.47658  0.23464  0.83076  1.0000
  H   H729      1.0  0.48412  0.11225  0.88080  1.0000
  S   S129      1.0  0.48310  0.11614  0.95415  1.0000
  S   S130      1.0  0.48766  0.09988  0.74797  1.0000
  H   H730      1.0  0.45029  0.14095  0.76903  1.0000
  H   H731      1.0  0.47972  0.24755  0.86860  1.0000
  H   H732      1.0  0.42686  0.01110  0.83575  1.0000
  C   C433      1.0  0.43232  0.03534  0.81379  1.0000
  C   C434      1.0  0.39419  0.31350  0.93263  1.0000
  H   H733      1.0  0.48595  0.26993  0.84838  1.0000
  C   C435      1.0  0.38982  0.32147  0.98431  1.0000
  H   H734      1.0  0.49401  0.23292  0.83507  1.0000
  C   C436      1.0  0.48573  0.25385  0.82109  1.0000
  H   H735      1.0  0.45165  0.29978  0.98139  1.0000
  H   H736      1.0  0.45298  0.23247  0.98889  1.0000
  H   H737      1.0  0.47946  0.00785  0.81121  1.0000
  Fe  Fe61      1.0  0.49458  0.14919  0.97907  1.0000
  H   H738      1.0  0.47919  0.31201  0.86189  1.0000
  H   H739      1.0  0.49213  0.17796  0.92500  1.0000
  H   H740      1.0  0.48607  0.15533  0.92024  1.0000
  Fe  Fe62      1.0  0.49461  0.16519  0.86573  1.0000
  H   H741      1.0  0.49633  0.06613  0.75404  1.0000
  C   C437      1.0  0.39869  0.04945  0.81963  1.0000
  H   H742      1.0  0.49534  0.16596  0.90330  1.0000
  H   H743      1.0  0.47197  0.15813  0.77187  1.0000
  C   C438      1.0  0.48663  0.21811  0.89762  1.0000
  C   C439      1.0  0.36786  0.00216  0.74632  1.0000
  H   H744      1.0  0.48564  0.10860  0.92654  1.0000
  C   C440      1.0  0.44864  0.04844  0.74575  1.0000
  H   H745      1.0  0.39709  0.99475  0.75627  1.0000
  H   H746      1.0  0.40613  0.01150  0.76401  1.0000
  C   C441      1.0  0.48074  0.20511  0.98427  1.0000
  H   H747      1.0  0.49146  0.15367  0.76858  1.0000
  C   C442      1.0  0.42683  0.08673  0.74335  1.0000
  H   H748      1.0  0.49443  0.21319  0.93281  1.0000
  H   H749      1.0  0.49269  0.14477  0.79323  1.0000
  C   C443      1.0  0.49368  0.25890  0.85002  1.0000
  C   C444      1.0  0.49205  0.15531  0.90861  1.0000
  C   C445      1.0  0.49719  0.12472  0.76925  1.0000
  H   H750      1.0  0.43957  0.04242  0.75094  1.0000
  C   C446      1.0  0.41081  0.00605  0.77402  1.0000
  H   H751      1.0  0.39956  0.32233  0.97561  1.0000
  H   H752      1.0  0.45457  0.31903  0.93460  1.0000
  H   H753      1.0  0.48820  0.20920  0.98841  1.0000
  H   H754      1.0  0.42601  0.17284  0.98890  1.0000
  H   H755      1.0  0.39008  0.29944  0.98275  1.0000
  H   H756      1.0  0.47297  0.21453  0.97876  1.0000
  H   H757      1.0  0.46004  0.09887  0.74219  1.0000
  H   H758      1.0  0.41713  0.22686  0.98574  1.0000
  C   C447      1.0  0.48921  0.32347  0.96349  1.0000
  H   H759      1.0  0.42625  0.31377  0.98424  1.0000
  H   H760      1.0  0.01769  0.53429  0.17324  1.0000
  H   H761      1.0  0.21065  0.50276  0.04774  1.0000
  C   C448      1.0  0.24768  0.56874  0.01415  1.0000
  S   S131      1.0  0.09175  0.47446  0.02167  1.0000
  H   H762      1.0  0.06016  0.45858  0.14527  1.0000
  C   C449      1.0  0.17225  0.45304  0.01629  1.0000
  S   S132      1.0  0.03507  0.52470  0.07996  1.0000
  H   H763      1.0  0.48306  0.65265  0.01448  1.0000
  H   H764      1.0  0.02594  0.43305  0.12793  1.0000
  S   S133      1.0  0.03379  0.59030  0.16477  1.0000
  S   S134      1.0  0.03420  0.55597  0.19557  1.0000
  C   C450      1.0  0.32171  0.63708  0.00048  1.0000
  C   C451      1.0  0.02705  0.59523  0.21116  1.0000
  C   C452      1.0  0.07587  0.48794  0.12376  1.0000
  S   S135      1.0  0.03923  0.58013  0.12570  1.0000
  H   H765      1.0  0.21763  0.51135  0.02919  1.0000
  C   C453      1.0  0.24794  0.48793  0.00167  1.0000
  H   H766      1.0  0.10726  0.53625  0.05270  1.0000
  N   N31       1.0  0.28000  0.52455  0.99202  1.0000
  H   H767      1.0  0.02063  0.45684  0.12150  1.0000
  S   S136      1.0  0.06810  0.48700  0.16732  1.0000
  H   H768      1.0  0.07459  0.47569  0.05085  1.0000
  C   C454      1.0  0.00220  0.53416  0.16052  1.0000
  C   C455      1.0  0.38258  0.33315  0.99161  1.0000
  Fe  Fe63      1.0  0.20565  0.56108  0.00313  1.0000
  H   H769      1.0  0.11503  0.51674  0.05352  1.0000
  H   H770      1.0  0.04749  0.56023  0.10564  1.0000
  H   H771      1.0  0.05119  0.51415  0.18854  1.0000
  C   C456      1.0  0.04914  0.49591  0.13192  1.0000
  C   C457      1.0  0.03062  0.52847  0.21090  1.0000
  C   C458      1.0  0.05261  0.50556  0.02359  1.0000
  H   H772      1.0  0.04900  0.46413  0.16173  1.0000
  N   N32       1.0  0.01584  0.57532  0.23243  1.0000
  H   H773      1.0  0.04136  0.52677  0.21359  1.0000
  H   H774      1.0  0.19299  0.49240  0.99742  1.0000
  S   S137      1.0  0.22571  0.45995  0.00148  1.0000
  C   C459      1.0  0.30710  0.44873  0.00422  1.0000
  H   H775      1.0  0.25712  0.52489  0.00397  1.0000
  H   H776      1.0  0.12140  0.48431  0.03664  1.0000
  H   H777      1.0  0.04642  0.51382  0.01596  1.0000
  H   H778      1.0  0.21244  0.49286  0.99174  1.0000
  H   H779      1.0  0.08062  0.53562  0.05974  1.0000
  C   C460      1.0  0.06849  0.48404  0.04321  1.0000
  H   H780      1.0  0.09529  0.50804  0.06231  1.0000
  C   C461      1.0  0.06535  0.48936  0.14944  1.0000
  C   C462      1.0  0.10231  0.52862  0.03537  1.0000
  C   C463      1.0  0.03544  0.56289  0.10906  1.0000
  H   H781      1.0  0.09564  0.49507  0.03591  1.0000
  H   H782      1.0  0.11314  0.49093  0.05321  1.0000
  C   C464      1.0  0.29402  0.52631  0.99509  1.0000
  H   H783      1.0  0.07360  0.53356  0.03411  1.0000
  Fe  Fe64      1.0  0.03718  0.50356  0.09710  1.0000
  S   S138      1.0  0.05964  0.49316  0.10288  1.0000
  H   H784      1.0  0.19957  0.48316  0.06280  1.0000
  H   H785      1.0  0.03813  0.49955  0.12955  1.0000
  H   H786      1.0  0.05163  0.44551  0.16050  1.0000
  C   C465      1.0  0.03581  0.43770  0.14426  1.0000
  H   H787      1.0  0.04142  0.49668  0.15504  1.0000
  C   C466      1.0  0.05488  0.49317  0.04867  1.0000
  C   C467      1.0  0.04680  0.50385  0.03888  1.0000
  H   H788      1.0  0.05062  0.49185  0.06044  1.0000
  H   H789      1.0  0.03409  0.47396  0.14291  1.0000
  H   H790      1.0  0.12317  0.53013  0.03941  1.0000
  C   C468      1.0  0.10272  0.50306  0.03404  1.0000
  Fe  Fe65      1.0  0.02898  0.45759  0.19349  1.0000
  N   N33       1.0  0.09338  0.51692  0.03924  1.0000
  H   H791      1.0  0.18474  0.50632  0.06028  1.0000
  H   H792      1.0  0.00466  0.46537  0.15145  1.0000
  H   H793      1.0  0.05908  0.44714  0.12741  1.0000
  S   S139      1.0  0.16700  0.52922  0.02208  1.0000
  H   H794      1.0  0.07081  0.49798  0.00634  1.0000
  H   H795      1.0  0.18551  0.47527  0.06131  1.0000
  S   S140      1.0  0.02056  0.46118  0.21660  1.0000
  C   C469      1.0  0.07435  0.48579  0.02795  1.0000
  C   C470      1.0  0.08669  0.51293  0.05556  1.0000
  C   C471      1.0  0.05003  0.45706  0.15398  1.0000
  N   N34       1.0  0.06316  0.53737  0.15468  1.0000
  C   C472      1.0  0.05601  0.54276  0.14135  1.0000
  C   C473      1.0  0.06249  0.55092  0.16007  1.0000
  C   C474      1.0  0.05374  0.52792  0.16649  1.0000
  C   C475      1.0  0.07886  0.52854  0.15019  1.0000
  C   C476      1.0  0.05454  0.53069  0.13440  1.0000
  C   C477      1.0  0.07118  0.56214  0.14909  1.0000
  C   C478      1.0  0.21607  0.50057  0.03657  1.0000
  C   C479      1.0  0.09011  0.52696  0.15979  1.0000
  H   H796      1.0  0.04459  0.54985  0.14411  1.0000
  H   H797      1.0  0.06245  0.54992  0.13224  1.0000
  H   H798      1.0  0.06637  0.54807  0.17055  1.0000
  H   H799      1.0  0.05066  0.55708  0.16296  1.0000
  H   H800      1.0  0.04224  0.53462  0.16959  1.0000
  H   H801      1.0  0.05269  0.51860  0.16243  1.0000
  H   H802      1.0  0.07862  0.51711  0.14987  1.0000
  H   H803      1.0  0.08396  0.53354  0.13867  1.0000
  H   H804      1.0  0.06503  0.52216  0.13250  1.0000
  H   H805      1.0  0.04528  0.52541  0.14110  1.0000
  H   H806      1.0  0.05166  0.53589  0.12342  1.0000
  H   H807      1.0  0.08270  0.55685  0.14418  1.0000
  H   H808      1.0  0.06521  0.56865  0.14011  1.0000
  H   H809      1.0  0.07190  0.57026  0.15500  1.0000
  C   C480      1.0  0.28352  0.49665  0.00483  1.0000
  C   C481      1.0  0.08466  0.52574  0.01429  1.0000
  H   H810      1.0  0.31631  0.44390  0.01036  1.0000
  H   H811      1.0  0.09667  0.51531  0.16165  1.0000
  H   H812      1.0  0.08515  0.52952  0.17085  1.0000
  H   H813      1.0  0.09839  0.53381  0.15379  1.0000
  C   C482      1.0  0.11232  0.52760  0.04603  1.0000
  H   H814      1.0  0.09467  0.53983  0.03472  1.0000
  H   H815      1.0  0.08047  0.50406  0.05777  1.0000
  H   H816      1.0  0.02454  0.60281  0.20069  1.0000
  C   C483      1.0  0.11625  0.49457  0.04105  1.0000
  C   C484      1.0  0.03178  0.56821  0.23386  1.0000
  Fe  Fe66      1.0  0.25475  0.42289  0.00653  1.0000
  C   C485      1.0  0.20665  0.49397  0.03042  1.0000
  Fe  Fe67      1.0  0.01238  0.53139  0.09403  1.0000
  Fe  Fe68      1.0  0.02189  0.57305  0.17943  1.0000
  H   H817      1.0  0.08888  0.48295  0.14035  1.0000
  H   H818      1.0  0.10955  0.52882  0.02410  1.0000
  C   C486      1.0  0.26869  0.52634  0.01964  1.0000
  H   H819      1.0  0.28453  0.45169  0.01830  1.0000
  H   H820      1.0  0.30339  0.41855  0.99698  1.0000
  C   C487      1.0  0.18080  0.49918  0.05552  1.0000
  H   H821      1.0  0.29653  0.43425  0.02385  1.0000
  C   C488      1.0  0.08051  0.52285  0.03134  1.0000
  H   H822      1.0  0.00739  0.54178  0.15070  1.0000
  H   H823      1.0  0.10739  0.50553  0.02195  1.0000
  H   H824      1.0  0.22266  0.44621  0.05505  1.0000
  H   H825      1.0  0.07279  0.51518  0.03506  1.0000
  C   C489      1.0  0.36988  0.33184  0.00289  1.0000
  H   H826      1.0  0.46312  0.64829  0.00557  1.0000
  S   S141      1.0  0.02961  0.51528  0.04556  1.0000
  C   C490      1.0  0.06643  0.49664  0.01813  1.0000
  H   H827      1.0  0.08552  0.48534  0.11508  1.0000
  H   H828      1.0  0.34785  0.62021  0.00905  1.0000
  C   C491      1.0  0.06157  0.49253  0.12068  1.0000
  H   H829      1.0  0.20646  0.44796  0.04856  1.0000
  H   H830      1.0  0.22742  0.49339  0.03670  1.0000
  S   S142      1.0  0.05318  0.45269  0.19404  1.0000
  Fe  Fe69      1.0  0.22209  0.43804  0.01532  1.0000
  H   H831      1.0  0.00426  0.59294  0.21727  1.0000
  S   S143      1.0  0.19800  0.43939  0.02672  1.0000
  H   H832      1.0  0.02072  0.47314  0.12625  1.0000
  C   C492      1.0  0.00999  0.51873  0.21061  1.0000
  S   S144      1.0  0.00005  0.58870  0.18570  1.0000
  H   H833      1.0  0.17974  0.49698  0.02198  1.0000
  H   H834      1.0  0.16753  0.45602  0.02694  1.0000
  C   C493      1.0  0.26785  0.57021  0.99240  1.0000
  S   S145      1.0  0.02041  0.44247  0.18546  1.0000
  H   H835      1.0  0.16992  0.49757  0.06286  1.0000
  S   S146      1.0  0.02719  0.49151  0.08670  1.0000
  S   S147      1.0  0.24173  0.43338  0.02591  1.0000
  S   S148      1.0  0.00867  0.62737  0.17626  1.0000
  C   C494      1.0  0.19221  0.47550  0.03316  1.0000
  H   H836      1.0  0.19934  0.47222  0.02278  1.0000
  H   H837      1.0  0.03225  0.54866  0.09683  1.0000
  C   C495      1.0  0.21466  0.46855  0.04315  1.0000
  C   C496      1.0  0.04836  0.45296  0.10901  1.0000
  C   C497      1.0  0.29338  0.44261  0.01402  1.0000
  H   H838      1.0  0.32139  0.63096  0.01217  1.0000
  H   H839      1.0  0.07007  0.51233  0.17908  1.0000
  C   C498      1.0  0.03366  0.42748  0.13552  1.0000
  Fe  Fe70      1.0  0.04470  0.45820  0.21652  1.0000
  C   C499      1.0  0.05932  0.52054  0.18093  1.0000
  C   C500      1.0  0.02113  0.46112  0.13090  1.0000
  H   H840      1.0  0.09312  0.53255  0.00946  1.0000
  C   C501      1.0  0.02849  0.57273  0.11858  1.0000
  H   H841      1.0  0.05119  0.46629  0.12190  1.0000
  S   S149      1.0  0.04500  0.48223  0.20805  1.0000
  H   H842      1.0  0.17317  0.48125  0.02288  1.0000
  C   C502      1.0  0.05101  0.49415  0.14636  1.0000
  S   S150      1.0  0.01560  0.51132  0.11210  1.0000
  H   H843      1.0  0.02678  0.60226  0.21861  1.0000
  Fe  Fe71      1.0  0.02392  0.51316  0.07024  1.0000
  H   H844      1.0  0.03851  0.58844  0.20819  1.0000
  H   H845      1.0  0.01223  0.64375  0.19523  1.0000
  C   C503      1.0  0.13778  0.51789  0.00625  1.0000
  Fe  Fe72      1.0  0.05093  0.47718  0.18548  1.0000
  C   C504      1.0  0.07777  0.48657  0.13804  1.0000
  C   C505      1.0  0.04889  0.45508  0.12417  1.0000
  C   C506      1.0  0.02682  0.55635  0.10407  1.0000
  H   H846      1.0  0.04047  0.46237  0.10360  1.0000
  H   H847      1.0  0.13324  0.50840  0.00823  1.0000
  S   S151      1.0  0.21928  0.56819  0.01451  1.0000
  H   H848      1.0  0.30425  0.46081  0.00403  1.0000
  H   H849      1.0  0.12500  0.50100  0.03781  1.0000
  H   H850      1.0  0.18851  0.46541  0.04023  1.0000
  C   C507      1.0  0.18691  0.44459  0.01342  1.0000
  H   H851      1.0  0.35994  0.62333  0.99137  1.0000
  H   H852      1.0  0.02629  0.46084  0.15745  1.0000
  H   H853      1.0  0.31429  0.41717  0.01024  1.0000
  C   C508      1.0  0.19197  0.48395  0.05550  1.0000
  C   C509      1.0  0.02345  0.51672  0.21479  1.0000
  C   C510      1.0  0.16373  0.45777  0.00531  1.0000
  H   H854      1.0  0.35274  0.63835  0.01573  1.0000
  C   C511      1.0  0.21176  0.45377  0.05344  1.0000
  Fe  Fe73      1.0  0.02531  0.58635  0.14691  1.0000
  C   C512      1.0  0.34235  0.64917  0.99643  1.0000
  H   H855      1.0  0.17836  0.50544  0.04468  1.0000
  H   H856      1.0  0.33354  0.45690  0.99707  1.0000
  H   H857      1.0  0.06006  0.52868  0.18676  1.0000
  H   H858      1.0  0.05955  0.45296  0.10157  1.0000
  H   H859      1.0  0.04675  0.43237  0.14748  1.0000
  C   C513      1.0  0.01488  0.52611  0.16892  1.0000
  H   H860      1.0  0.19751  0.50323  0.02694  1.0000
  H   H861      1.0  0.03765  0.56206  0.22482  1.0000
  C   C514      1.0  0.24375  0.50220  0.00438  1.0000
  Fe  Fe74      1.0  0.02140  0.48478  0.20640  1.0000
  H   H862      1.0  0.22166  0.46600  0.03240  1.0000
  H   H863      1.0  0.02845  0.41861  0.14342  1.0000
  H   H864      1.0  0.15248  0.46435  0.00755  1.0000
  S   S152      1.0  0.00085  0.52201  0.08259  1.0000
  H   H865      1.0  0.21361  0.49092  0.01984  1.0000
  Fe  Fe75      1.0  0.24636  0.45437  0.01039  1.0000
  H   H866      1.0  0.27574  0.53328  0.02064  1.0000
  S   S153      1.0  0.20667  0.53689  0.00676  1.0000
  C   C515      1.0  0.01549  0.58548  0.21740  1.0000
  H   H867      1.0  0.35466  0.59931  0.99683  1.0000
  H   H868      1.0  0.02510  0.52135  0.16140  1.0000
  H   H869      1.0  0.06504  0.52896  0.05873  1.0000
  H   H870      1.0  0.27341  0.51454  0.02392  1.0000
  N   N35       1.0  0.20103  0.48082  0.04069  1.0000
  S   S154      1.0  0.25254  0.47269  0.01577  1.0000
  H   H871      1.0  0.29181  0.49778  0.01029  1.0000
  H   H872      1.0  0.22198  0.47196  0.04819  1.0000
  H   H873      1.0  0.16911  0.48813  0.03924  1.0000
  H   H874      1.0  0.15016  0.50825  0.02359  1.0000
  C   C516      1.0  0.01426  0.42115  0.22649  1.0000
  C   C517      1.0  0.14728  0.51787  0.01508  1.0000
  S   S155      1.0  0.27223  0.40156  0.00762  1.0000
  C   C518      1.0  0.03567  0.46189  0.14774  1.0000
  H   H875      1.0  0.28098  0.46350  0.99317  1.0000
  H   H876      1.0  0.26236  0.54177  0.00080  1.0000
  H   H877      1.0  0.24378  0.56785  0.02597  1.0000
  H   H878      1.0  0.04457  0.42219  0.12924  1.0000
  C   C519      1.0  0.17783  0.48630  0.02920  1.0000
  C   C520      1.0  0.00585  0.51073  0.15235  1.0000
  C   C521      1.0  0.00428  0.57022  0.11738  1.0000
  H   H879      1.0  0.02767  0.43673  0.15508  1.0000
  H   H880      1.0  0.04561  0.44242  0.10958  1.0000
  C   C522      1.0  0.15352  0.53006  0.01249  1.0000
  C   C523      1.0  0.00845  0.56297  0.23359  1.0000
  H   H881      1.0  0.27279  0.49604  0.01292  1.0000
  C   C524      1.0  0.00300  0.53277  0.20380  1.0000
  H   H882      1.0  0.07314  0.52204  0.07460  1.0000
  H   H883      1.0  0.20506  0.45518  0.06456  1.0000
  H   H884      1.0  0.27021  0.56833  0.01453  1.0000
  H   H885      1.0  0.00572  0.44798  0.14693  1.0000
  H   H886      1.0  0.07449  0.53181  0.00986  1.0000
  H   H887      1.0  0.36424  0.34082  0.00858  1.0000
  S   S156      1.0  0.02733  0.48166  0.18309  1.0000
  C   C525      1.0  0.02429  0.54210  0.20276  1.0000
  C   C526      1.0  0.34286  0.64699  0.01282  1.0000
  H   H888      1.0  0.25761  0.52947  0.02698  1.0000
  C   C527      1.0  0.07581  0.52578  0.06236  1.0000
  N   N36       1.0  0.03531  0.45367  0.13656  1.0000
  H   H889      1.0  0.02844  0.50608  0.22084  1.0000
  C   C528      1.0  0.26657  0.52958  0.00363  1.0000
  H   H890      1.0  0.00105  0.47075  0.18963  1.0000
  H   H891      1.0  0.01194  0.51723  0.17847  1.0000
  S   S157      1.0  0.18062  0.56740  0.00621  1.0000
  H   H892      1.0  0.02310  0.42737  0.22047  1.0000
  S   S158      1.0  0.12703  0.48705  0.00001  1.0000
  N   N37       1.0  0.33764  0.63731  0.99243  1.0000
  H   H893      1.0  0.08860  0.51520  0.01036  1.0000
  C   C529      1.0  0.13437  0.53009  0.99490  1.0000
  H   H894      1.0  0.01787  0.41103  0.22176  1.0000
  C   C530      1.0  0.26263  0.56908  0.00765  1.0000
  H   H895      1.0  0.32179  0.40721  0.99580  1.0000
  H   H896      1.0  0.01738  0.57895  0.20891  1.0000
  H   H897      1.0  0.03837  0.57650  0.23231  1.0000
  Fe  Fe76      1.0  0.00515  0.50147  0.10004  1.0000
  Fe  Fe77      1.0  0.10549  0.48253  0.99931  1.0000
  C   C531      1.0  0.00641  0.45970  0.14233  1.0000
  H   H898      1.0  0.24445  0.50395  0.01478  1.0000
  H   H899      1.0  0.30054  0.38110  0.00218  1.0000
  S   S159      1.0  0.23471  0.42545  0.99755  1.0000
  C   C532      1.0  0.13981  0.54267  0.99301  1.0000
  C   C533      1.0  0.23781  0.56928  0.00552  1.0000
  H   H900      1.0  0.49104  0.64871  0.99633  1.0000
  H   H901      1.0  0.28814  0.43743  0.00846  1.0000
  Fe  Fe78      1.0  0.18228  0.54353  0.00705  1.0000
  S   S160      1.0  0.05442  0.44366  0.23580  1.0000
  C   C534      1.0  0.14952  0.54259  0.00166  1.0000
  S   S161      1.0  0.01490  0.56784  0.16135  1.0000
  H   H902      1.0  0.41467  0.32617  0.99570  1.0000
  C   C535      1.0  0.00420  0.63717  0.20155  1.0000
  Fe  Fe79      1.0  0.01143  0.60588  0.16977  1.0000
  H   H903      1.0  0.28822  0.48585  0.00144  1.0000
  H   H904      1.0  0.33237  0.42876  0.99163  1.0000
  C   C536      1.0  0.23820  0.51419  0.99378  1.0000
  H   H905      1.0  0.29637  0.51928  0.00578  1.0000
  C   C537      1.0  0.34532  0.60887  0.99426  1.0000
  H   H906      1.0  0.00508  0.55513  0.19386  1.0000
  H   H907      1.0  0.00900  0.49050  0.14496  1.0000
  H   H908      1.0  0.33248  0.64447  0.02049  1.0000
  H   H909      1.0  0.30529  0.62434  0.00293  1.0000
  H   H910      1.0  0.15394  0.55225  0.99993  1.0000
  S   S162      1.0  0.26077  0.44372  0.99196  1.0000
  C   C538      1.0  0.31464  0.41786  0.99845  1.0000
  H   H911      1.0  0.29249  0.53785  0.99632  1.0000
  C   C539      1.0  0.19282  0.44052  0.99976  1.0000
  H   H912      1.0  0.20390  0.43364  0.99764  1.0000
  C   C540      1.0  0.31266  0.63050  0.99378  1.0000
  H   H913      1.0  0.00741  0.58401  0.12999  1.0000
  H   H914      1.0  0.04421  0.41429  0.22775  1.0000
  S   S163      1.0  0.00008  0.55235  0.10191  1.0000
  C   C541      1.0  0.01121  0.56013  0.10813  1.0000
  H   H915      1.0  0.31518  0.64859  0.00108  1.0000
  C   C542      1.0  0.01019  0.54447  0.19978  1.0000
  H   H916      1.0  0.01575  0.55514  0.22654  1.0000
  S   S164      1.0  0.00259  0.50359  0.21238  1.0000
  C   C543      1.0  0.28708  0.40142  0.99211  1.0000
  H   H917      1.0  0.00148  0.64437  0.22165  1.0000
  H   H918      1.0  0.01123  0.50437  0.16173  1.0000
  H   H919      1.0  0.99923  0.43166  0.17749  1.0000
  H   H920      1.0  0.01514  0.51363  0.14302  1.0000
  C   C544      1.0  0.01290  0.57629  0.12280  1.0000
  C   C545      1.0  0.00196  0.45055  0.18351  1.0000
  H   H921      1.0  0.23520  0.52523  0.99577  1.0000
  C   C546      1.0  0.29999  0.39004  0.99251  1.0000
  C   C547      1.0  0.34817  0.62274  0.99700  1.0000
  H   H922      1.0  0.33494  0.60603  0.00170  1.0000
  H   H923      1.0  0.43949  0.64797  0.00090  1.0000
  C   C548      1.0  0.16975  0.45373  0.99159  1.0000
  C   C549      1.0  0.00017  0.62814  0.19483  1.0000
  S   S165      1.0  0.00442  0.60415  0.14998  1.0000
  C   C550      1.0  0.99989  0.43044  0.22110  1.0000
  H   H924      1.0  0.00019  0.44233  0.21725  1.0000
  C   C551      1.0  0.48785  0.65742  0.00290  1.0000
  H   H925      1.0  0.99939  0.53542  0.13270  1.0000
  C   C552      1.0  0.04251  0.40888  0.23965  1.0000
  C   C553      1.0  0.28116  0.50891  0.99100  1.0000
  C   C554      1.0  0.99952  0.49938  0.14867  1.0000
  H   H926      1.0  0.34417  0.65745  0.01459  1.0000
  H   H927      1.0  0.00986  0.60633  0.23970  1.0000
  C   C555      1.0  0.24295  0.57058  0.99017  1.0000
  C   C556      1.0  0.04336  0.44620  0.25321  1.0000
  H   H928      1.0  0.03472  0.62633  0.42854  1.0000
  S   S166      1.0  0.02521  0.35421  0.37822  1.0000
  C   C557      1.0  0.03832  0.63432  0.43245  1.0000
  H   H929      1.0  0.99983  0.33769  0.42746  1.0000
  H   H930      1.0  0.00107  0.43851  0.35391  1.0000
  S   S167      1.0  0.00843  0.64859  0.46911  1.0000
  H   H931      1.0  0.04662  0.62767  0.43926  1.0000
  H   H932      1.0  0.02870  0.64005  0.43988  1.0000
  C   C558      1.0  0.02519  0.44878  0.28127  1.0000
  H   H933      1.0  0.02833  0.56271  0.25825  1.0000
  H   H934      1.0  0.02632  0.40035  0.25793  1.0000
  H   H935      1.0  0.02377  0.43552  0.24059  1.0000
  H   H936      1.0  0.01815  0.64790  0.38595  1.0000
  H   H937      1.0  0.01889  0.39578  0.32983  1.0000
  C   C559      1.0  0.03884  0.43837  0.28001  1.0000
  H   H938      1.0  0.04588  0.55353  0.24873  1.0000
  H   H939      1.0  0.03208  0.43292  0.33301  1.0000
  H   H940      1.0  0.02324  0.63984  0.41061  1.0000
  C   C560      1.0  0.03668  0.33682  0.38358  1.0000
  H   H941      1.0  0.01410  0.32958  0.36983  1.0000
  H   H942      1.0  0.00406  0.34275  0.46432  1.0000
  H   H943      1.0  0.03825  0.41337  0.33316  1.0000
  C   C561      1.0  0.00058  0.44259  0.25017  1.0000
  H   H944      1.0  0.00548  0.33917  0.35448  1.0000
  H   H945      1.0  0.02594  0.59270  0.24502  1.0000
  H   H946      1.0  0.04238  0.43123  0.28985  1.0000
  H   H947      1.0  0.05147  0.39862  0.24085  1.0000
  H   H948      1.0  0.05511  0.34132  0.36563  1.0000
  H   H949      1.0  0.01369  0.65753  0.42502  1.0000
  H   H950      1.0  0.04013  0.63927  0.39701  1.0000
  H   H951      1.0  0.02960  0.54731  0.25013  1.0000
  C   C562      1.0  0.02165  0.38878  0.35233  1.0000
  S   S168      1.0  0.01377  0.44986  0.29889  1.0000
  C   C563      1.0  0.02075  0.45806  0.26847  1.0000
  C   C564      1.0  0.03036  0.64698  0.40240  1.0000
  H   H952      1.0  0.02683  0.42022  0.34939  1.0000
  H   H953      1.0  0.01569  0.34041  0.43183  1.0000
  H   H954      1.0  0.05827  0.42877  0.26509  1.0000
  C   C565      1.0  0.02992  0.45690  0.25446  1.0000
  H   H955      1.0  0.00680  0.55616  0.24505  1.0000
  C   C566      1.0  0.01480  0.43021  0.24823  1.0000
  H   H956      1.0  0.00969  0.59657  0.25855  1.0000
  C   C567      1.0  0.00579  0.32835  0.48549  1.0000
  C   C568      1.0  0.04783  0.43699  0.26601  1.0000
  H   H957      1.0  0.05524  0.63874  0.41272  1.0000
  H   H958      1.0  0.02753  0.37769  0.34990  1.0000
  C   C569      1.0  0.02713  0.40484  0.24581  1.0000
  H   H959      1.0  0.03031  0.39442  0.35208  1.0000
  C   C570      1.0  0.02877  0.42210  0.33722  1.0000
  H   H960      1.0  0.01035  0.46626  0.26932  1.0000
  H   H961      1.0  0.00875  0.43492  0.32940  1.0000
  C   C571      1.0  0.01483  0.42308  0.33155  1.0000
  H   H962      1.0  0.05087  0.65109  0.42457  1.0000
  C   C572      1.0  0.01183  0.39710  0.34092  1.0000
  N   N38       1.0  0.01372  0.41723  0.24295  1.0000
  H   H963      1.0  0.00768  0.41147  0.36301  1.0000
  H   H964      1.0  0.01918  0.42065  0.32029  1.0000
  H   H965      1.0  0.01471  0.38675  0.36370  1.0000
  C   C573      1.0  0.00711  0.58349  0.24457  1.0000
  C   C574      1.0  0.04564  0.64533  0.41954  1.0000
  Fe  Fe80      1.0  0.00052  0.35657  0.38672  1.0000
  H   H966      1.0  0.00582  0.38827  0.25022  1.0000
  N   N39       1.0  0.00447  0.41324  0.34088  1.0000
  H   H967      1.0  0.00007  0.51422  0.24567  1.0000
  H   H968      1.0  0.00091  0.42084  0.31005  1.0000
  H   H969      1.0  0.04418  0.41608  0.24603  1.0000
  H   H970      1.0  0.00326  0.45225  0.25215  1.0000
  H   H971      1.0  0.01810  0.42643  0.25918  1.0000
  H   H972      1.0  0.00323  0.39054  0.34312  1.0000
  H   H973      1.0  0.02540  0.33394  0.35155  1.0000
  C   C575      1.0  0.00460  0.33774  0.43677  1.0000
  H   H974      1.0  0.02650  0.46421  0.24464  1.0000
  C   C576      1.0  0.00277  0.33128  0.46987  1.0000
  H   H975      1.0  0.00472  0.57574  0.25543  1.0000
  H   H976      1.0  0.02755  0.33520  0.45104  1.0000
  C   C577      1.0  0.05118  0.33331  0.37519  1.0000
  C   C578      1.0  0.03377  0.55736  0.24867  1.0000
  C   C579      1.0  0.00002  0.41170  0.25203  1.0000
  H   H977      1.0  0.00051  0.40834  0.26397  1.0000
  H   H978      1.0  0.01763  0.32767  0.48522  1.0000
  H   H979      1.0  0.02057  0.32933  0.40273  1.0000
  C   C580      1.0  0.01501  0.33031  0.35796  1.0000
  C   C581      1.0  0.01365  0.59542  0.24684  1.0000
  C   C582      1.0  0.02124  0.65582  0.39047  1.0000
  N   N40       1.0  0.03542  0.65604  0.40990  1.0000
  H   H980      1.0  0.00126  0.63242  0.41007  1.0000
  C   C583      1.0  0.03167  0.32653  0.39606  1.0000
  H   H981      1.0  0.02763  0.39536  0.24104  1.0000
  S   S169      1.0  0.01361  0.62290  0.50844  1.0000
  C   C584      1.0  0.02710  0.47251  0.63900  1.0000
  C   C585      1.0  0.02602  0.48764  0.68359  1.0000
  H   H982      1.0  0.05834  0.56149  0.53820  1.0000
  C   C586      1.0  0.05614  0.59013  0.54527  1.0000
  H   H983      1.0  0.04920  0.54647  0.54846  1.0000
  C   C587      1.0  0.05986  0.55245  0.58638  1.0000
  H   H984      1.0  0.00327  0.43269  0.63761  1.0000
  H   H985      1.0  0.08465  0.41388  0.60575  1.0000
  H   H986      1.0  0.06154  0.58120  0.56691  1.0000
  H   H987      1.0  0.06220  0.59845  0.54521  1.0000
  C   C588      1.0  0.01639  0.48623  0.64443  1.0000
  C   C589      1.0  0.07384  0.50871  0.69881  1.0000
  H   H988      1.0  0.05504  0.46097  0.55908  1.0000
  H   H989      1.0  0.05883  0.52284  0.71414  1.0000
  C   C590      1.0  0.03992  0.51538  0.63548  1.0000
  Fe  Fe81      1.0  0.04064  0.56617  0.69052  1.0000
  S   S170      1.0  0.03402  0.54438  0.69830  1.0000
  S   S171      1.0  0.05670  0.56771  0.70293  1.0000
  Fe  Fe82      1.0  0.03888  0.54436  0.67425  1.0000
  S   S172      1.0  0.05229  0.52370  0.66654  1.0000
  H   H990      1.0  0.04444  0.59615  0.54519  1.0000
  H   H991      1.0  0.02657  0.47254  0.62761  1.0000
  S   S173      1.0  0.04734  0.56512  0.66651  1.0000
  C   C591      1.0  0.08472  0.54544  0.67647  1.0000
  H   H992      1.0  0.05795  0.42175  0.60391  1.0000
  H   H993      1.0  0.11659  0.49932  0.69478  1.0000
  H   H994      1.0  0.05693  0.42343  0.56567  1.0000
  H   H995      1.0  0.10200  0.51838  0.66975  1.0000
  C   C592      1.0  0.02893  0.56674  0.63451  1.0000
  N   N41       1.0  0.06007  0.43956  0.58444  1.0000
  H   H996      1.0  0.09166  0.52254  0.70779  1.0000
  S   S174      1.0  0.01737  0.57976  0.68936  1.0000
  S   S175      1.0  0.04372  0.40279  0.71367  1.0000
  H   H997      1.0  0.03922  0.54660  0.62674  1.0000
  Fe  Fe83      1.0  0.04718  0.42139  0.69402  1.0000
  S   S176      1.0  0.06782  0.42087  0.67579  1.0000
  H   H998      1.0  0.07674  0.41129  0.71661  1.0000
  Fe  Fe84      1.0  0.03458  0.45365  0.68299  1.0000
  S   S177      1.0  0.05397  0.45604  0.66401  1.0000
  H   H999      1.0  0.04328  0.54730  0.57836  1.0000
  Fe  Fe85      1.0  0.05187  0.43453  0.66099  1.0000
  H   H1000     1.0  0.00783  0.41976  0.66158  1.0000
  Fe  Fe86      1.0  0.06771  0.44252  0.68063  1.0000
  S   S178      1.0  0.08839  0.44837  0.68214  1.0000
  S   S179      1.0  0.03135  0.43322  0.67883  1.0000
  S   S180      1.0  0.04834  0.44187  0.69982  1.0000
  S   S181      1.0  0.00728  0.53344  0.58055  1.0000
  C   C593      1.0  0.08822  0.45633  0.69670  1.0000
  C   C594      1.0  0.07500  0.46345  0.70511  1.0000
  S   S182      1.0  0.01659  0.47359  0.68682  1.0000
  C   C595      1.0  0.10192  0.45536  0.69993  1.0000
  H   H1001     1.0  0.06442  0.46463  0.70239  1.0000
  C   C596      1.0  0.09657  0.51726  0.69805  1.0000
  H   H1002     1.0  0.11218  0.45003  0.69341  1.0000
  C   C597      1.0  0.10248  0.46102  0.71166  1.0000
  C   C598      1.0  0.07608  0.53398  0.68713  1.0000
  C   C599      1.0  0.07556  0.46908  0.71702  1.0000
  H   H1003     1.0  0.06541  0.54067  0.59003  1.0000
  N   N42       1.0  0.04591  0.56922  0.56587  1.0000
  H   H1004     1.0  0.02080  0.52497  0.67211  1.0000
  C   C600      1.0  0.06562  0.45281  0.55662  1.0000
  C   C601      1.0  0.04029  0.40928  0.64549  1.0000
  C   C602      1.0  0.10618  0.50182  0.70320  1.0000
  H   H1005     1.0  0.00565  0.57418  0.51031  1.0000
  H   H1006     1.0  0.07909  0.49675  0.70042  1.0000
  C   C603      1.0  0.08935  0.46774  0.72037  1.0000
  C   C604      1.0  0.03288  0.42739  0.62431  1.0000
  C   C605      1.0  0.02654  0.41739  0.62128  1.0000
  H   H1007     1.0  0.03201  0.43840  0.61752  1.0000
  H   H1008     1.0  0.03729  0.43684  0.59238  1.0000
  H   H1009     1.0  0.04155  0.51985  0.62340  1.0000
  C   C606      1.0  0.04144  0.48408  0.68266  1.0000
  C   C607      1.0  0.04949  0.49519  0.67754  1.0000
  C   C608      1.0  0.04205  0.50997  0.67381  1.0000
  H   H1010     1.0  0.09362  0.41760  0.71340  1.0000
  C   C609      1.0  0.02083  0.55934  0.61639  1.0000
  H   H1011     1.0  0.04730  0.47273  0.68557  1.0000
  H   H1012     1.0  0.06149  0.49227  0.67636  1.0000
  H   H1013     1.0  0.02149  0.42055  0.61178  1.0000
  C   C610      1.0  0.09182  0.51390  0.67506  1.0000
  C   C611      1.0  0.05172  0.55757  0.72096  1.0000
  Fe  Fe87      1.0  0.00393  0.54904  0.59534  1.0000
  H   H1014     1.0  0.06622  0.53494  0.68260  1.0000
  H   H1015     1.0  0.04589  0.40598  0.65466  1.0000
  H   H1016     1.0  0.08400  0.51902  0.66733  1.0000
  H   H1017     1.0  0.01655  0.42364  0.70711  1.0000
  H   H1018     1.0  0.07360  0.54323  0.72109  1.0000
  H   H1019     1.0  0.06497  0.51018  0.69270  1.0000
  C   C612      1.0  0.00874  0.58308  0.62329  1.0000
  H   H1020     1.0  0.02883  0.56985  0.72404  1.0000
  S   S183      1.0  0.05018  0.43526  0.63781  1.0000
  H   H1021     1.0  0.01541  0.32944  0.56408  1.0000
  S   S184      1.0  0.01483  0.59136  0.64594  1.0000
  H   H1022     1.0  0.06877  0.56902  0.55436  1.0000
  H   H1023     1.0  0.02376  0.46238  0.64635  1.0000
  H   H1024     1.0  0.09408  0.54629  0.68067  1.0000
  H   H1025     1.0  0.08033  0.44681  0.57196  1.0000
  C   C613      1.0  0.04582  0.43782  0.58186  1.0000
  C   C614      1.0  0.01850  0.50242  0.68035  1.0000
  H   H1026     1.0  0.07702  0.55657  0.67552  1.0000
  H   H1027     1.0  0.07408  0.50928  0.72157  1.0000
  C   C615      1.0  0.04737  0.42445  0.57521  1.0000
  C   C616      1.0  0.08000  0.42534  0.60010  1.0000
  H   H1028     1.0  0.08631  0.49249  0.67731  1.0000
  H   H1029     1.0  0.10030  0.49285  0.70583  1.0000
  C   C617      1.0  0.04743  0.55850  0.54345  1.0000
  H   H1030     1.0  0.10394  0.49055  0.68204  1.0000
  H   H1031     1.0  0.03626  0.56429  0.64206  1.0000
  H   H1032     1.0  0.99990  0.43393  0.68532  1.0000
  C   C618      1.0  0.03348  0.39938  0.64273  1.0000
  S   S185      1.0  0.01554  0.55554  0.67185  1.0000
  H   H1033     1.0  0.10469  0.52394  0.69100  1.0000
  H   H1034     1.0  0.01050  0.51470  0.65276  1.0000
  H   H1035     1.0  0.10214  0.49596  0.66328  1.0000
  H   H1036     1.0  0.05847  0.50380  0.71969  1.0000
  C   C619      1.0  0.04554  0.45250  0.73725  1.0000
  H   H1037     1.0  0.03291  0.49549  0.61534  1.0000
  H   H1038     1.0  0.04124  0.56047  0.53457  1.0000
  H   H1039     1.0  0.04922  0.45341  0.72518  1.0000
  C   C620      1.0  0.02651  0.51362  0.67544  1.0000
  H   H1040     1.0  0.10922  0.50138  0.71370  1.0000
  S   S186      1.0  0.09111  0.47511  0.73455  1.0000
  C   C621      1.0  0.03055  0.55664  0.62584  1.0000
  H   H1041     1.0  0.06857  0.55896  0.58288  1.0000
  Fe  Fe88      1.0  0.01136  0.55766  0.69533  1.0000
  C   C622      1.0  0.06600  0.51154  0.71440  1.0000
  C   C623      1.0  0.05219  0.55370  0.57372  1.0000
  C   C624      1.0  0.06659  0.42522  0.59413  1.0000
  C   C625      1.0  0.09626  0.49725  0.67469  1.0000
  C   C626      1.0  0.04022  0.42323  0.63607  1.0000
  H   H1042     1.0  0.07149  0.53801  0.69759  1.0000
  C   C627      1.0  0.03793  0.56779  0.55495  1.0000
  C   C628      1.0  0.05856  0.57704  0.55861  1.0000
  N   N43       1.0  0.08482  0.51810  0.68990  1.0000
  H   H1043     1.0  0.11319  0.46014  0.71402  1.0000
  H   H1044     1.0  0.08873  0.54326  0.66514  1.0000
  S   S187      1.0  0.01815  0.39115  0.62694  1.0000
  H   H1045     1.0  0.08909  0.42911  0.59115  1.0000
  H   H1046     1.0  0.02816  0.56276  0.56086  1.0000
  H   H1047     1.0  0.07745  0.43173  0.56672  1.0000
  H   H1048     1.0  0.06078  0.54746  0.56584  1.0000
  H   H1049     1.0  0.03314  0.57869  0.54859  1.0000
  H   H1050     1.0  0.06540  0.47469  0.72341  1.0000
  C   C629      1.0  0.03500  0.50054  0.64005  1.0000
  H   H1051     1.0  0.03203  0.52380  0.64148  1.0000
  C   C630      1.0  0.01785  0.57983  0.63353  1.0000
  H   H1052     1.0  0.00511  0.48593  0.64369  1.0000
  H   H1053     1.0  0.03881  0.47131  0.63951  1.0000
  H   H1054     1.0  0.06446  0.44625  0.54928  1.0000
  H   H1055     1.0  0.05168  0.55568  0.59627  1.0000
  H   H1056     1.0  0.03466  0.49652  0.65211  1.0000
  H   H1057     1.0  0.04443  0.49263  0.63462  1.0000
  H   H1058     1.0  0.02061  0.52315  0.72492  1.0000
  H   H1059     1.0  0.05225  0.47260  0.57641  1.0000
  Fe  Fe89      1.0  0.02338  0.57655  0.66589  1.0000
  H   H1060     1.0  0.06132  0.58642  0.53467  1.0000
  H   H1061     1.0  0.02596  0.57059  0.58318  1.0000
  C   C631      1.0  0.02485  0.40431  0.72268  1.0000
  H   H1062     1.0  0.03999  0.57768  0.58602  1.0000
  C   C632      1.0  0.03467  0.57700  0.57735  1.0000
  S   S188      1.0  0.02264  0.54582  0.60654  1.0000
  C   C633      1.0  0.06217  0.54566  0.72713  1.0000
  H   H1063     1.0  0.07041  0.41595  0.58816  1.0000
  C   C634      1.0  0.07150  0.44238  0.57023  1.0000
  C   C635      1.0  0.08357  0.41514  0.72186  1.0000
  H   H1064     1.0  0.03555  0.46561  0.58647  1.0000
  H   H1065     1.0  0.00334  0.47253  0.71726  1.0000
  H   H1066     1.0  0.04836  0.41399  0.58374  1.0000
  C   C636      1.0  0.05670  0.45172  0.59282  1.0000
  H   H1067     1.0  0.03709  0.42590  0.57118  1.0000
  Fe  Fe90      1.0  0.99985  0.63554  0.49153  1.0000
  H   H1068     1.0  0.07652  0.43220  0.60858  1.0000
  C   C637      1.0  0.00659  0.58157  0.51653  1.0000
  H   H1069     1.0  0.07407  0.45923  0.54988  1.0000
  H   H1070     1.0  0.04047  0.44770  0.57448  1.0000
  C   C638      1.0  0.00484  0.48111  0.57849  1.0000
  H   H1071     1.0  0.00248  0.53383  0.69149  1.0000
  H   H1072     1.0  0.00905  0.59957  0.49749  1.0000
  H   H1073     1.0  0.04430  0.47390  0.59507  1.0000
  C   C639      1.0  0.02670  0.40340  0.63052  1.0000
  H   H1074     1.0  0.06528  0.39838  0.73875  1.0000
  H   H1075     1.0  0.06720  0.45427  0.59331  1.0000
  C   C640      1.0  0.04661  0.46667  0.58709  1.0000
  C   C641      1.0  0.03694  0.56071  0.72881  1.0000
  H   H1076     1.0  0.05133  0.44799  0.60457  1.0000
  H   H1077     1.0  0.00175  0.51352  0.61234  1.0000
  H   H1078     1.0  0.04810  0.42439  0.73305  1.0000
  C   C642      1.0  0.01028  0.60529  0.51722  1.0000
  C   C643      1.0  0.00597  0.57676  0.53179  1.0000
  H   H1079     1.0  0.00266  0.34074  0.57616  1.0000
  S   S189      1.0  0.00842  0.45205  0.57787  1.0000
  H   H1080     1.0  0.01098  0.60772  0.53858  1.0000
  H   H1081     1.0  0.01785  0.59677  0.58137  1.0000
  C   C644      1.0  0.01004  0.57269  0.61490  1.0000
  C   C645      1.0  0.00963  0.50254  0.61392  1.0000
  H   H1082     1.0  0.00664  0.50505  0.68089  1.0000
  N   N44       1.0  0.02038  0.50088  0.63654  1.0000
  H   H1083     1.0  0.03361  0.38856  0.64995  1.0000
  C   C646      1.0  0.01656  0.52458  0.73653  1.0000
  H   H1084     1.0  0.00836  0.44511  0.65882  1.0000
  H   H1085     1.0  0.03408  0.60067  0.56812  1.0000
  H   H1086     1.0  0.01409  0.49927  0.60305  1.0000
  C   C647      1.0  0.01365  0.41554  0.71693  1.0000
  C   C648      1.0  0.00713  0.58641  0.53972  1.0000
  H   H1087     1.0  0.02033  0.59398  0.56326  1.0000
  S   S190      1.0  0.01237  0.40983  0.58606  1.0000
  H   H1088     1.0  0.01576  0.48444  0.65650  1.0000
  H   H1089     1.0  0.01532  0.53645  0.73621  1.0000
  H   H1090     1.0  0.00567  0.32542  0.54434  1.0000
  H   H1091     1.0  0.02510  0.51431  0.61455  1.0000
  C   C649      1.0  0.00865  0.51352  0.64224  1.0000
  H   H1092     1.0  0.06802  0.43569  0.71903  1.0000
  C   C650      1.0  0.00967  0.60047  0.53242  1.0000
  H   H1093     1.0  0.08263  0.43632  0.72612  1.0000
  H   H1094     1.0  0.99959  0.34317  0.55814  1.0000
  C   C651      1.0  0.00850  0.59593  0.50928  1.0000
  C   C652      1.0  0.02270  0.50324  0.62000  1.0000
  C   C653      1.0  0.00349  0.33466  0.56755  1.0000
  C   C654      1.0  0.02642  0.59300  0.57189  1.0000
  C   C655      1.0  0.07469  0.42933  0.72743  1.0000
  H   H1095     1.0  0.01484  0.48088  0.56983  1.0000
  H   H1096     1.0  0.00682  0.45729  0.63400  1.0000
  Fe  Fe91      1.0  0.00360  0.40298  0.61040  1.0000
  H   H1097     1.0  0.99932  0.45323  0.71013  1.0000
  H   H1098     1.0  0.00649  0.58292  0.55141  1.0000
  H   H1099     1.0  0.05083  0.51352  0.63851  1.0000
  H   H1100     1.0  0.00041  0.59337  0.62219  1.0000
  H   H1101     1.0  0.00262  0.57494  0.60743  1.0000
  H   H1102     1.0  0.00956  0.52428  0.63435  1.0000
  H   H1103     1.0  0.00393  0.49543  0.71726  1.0000
  C   C656      1.0  0.02095  0.39412  0.73575  1.0000
  H   H1104     1.0  0.00342  0.49407  0.62079  1.0000
  S   S191      1.0  0.00421  0.55857  0.54064  1.0000
  H   H1105     1.0  0.08799  0.40605  0.73050  1.0000
  H   H1106     1.0  0.00210  0.50401  0.57901  1.0000
  H   H1107     1.0  0.04266  0.46394  0.73915  1.0000
  H   H1108     1.0  0.00140  0.44451  0.72886  1.0000
  H   H1109     1.0  0.28041  0.46538  0.97435  1.0000
  Fe  Fe92      1.0  0.04260  0.47455  0.77200  1.0000
  S   S192      1.0  0.06628  0.46250  0.77320  1.0000
  S   S193      1.0  0.02477  0.46512  0.76908  1.0000
  Fe  Fe93      1.0  0.23965  0.44725  0.98440  1.0000
  C   C657      1.0  0.45841  0.63790  0.97181  1.0000
  H   H1110     1.0  0.00292  0.38708  0.75293  1.0000
  H   H1111     1.0  0.26288  0.54446  0.96206  1.0000
  Fe  Fe94      1.0  0.06550  0.47855  0.78688  1.0000
  S   S194      1.0  0.07331  0.47249  0.80850  1.0000
  H   H1112     1.0  0.46750  0.63208  0.92248  1.0000
  S   S195      1.0  0.04102  0.48876  0.78757  1.0000
  Fe  Fe95      1.0  0.12711  0.50286  0.83726  1.0000
  S   S196      1.0  0.11963  0.49435  0.86172  1.0000
  S   S197      1.0  0.11430  0.50885  0.81878  1.0000
  Fe  Fe96      1.0  0.15797  0.50346  0.84061  1.0000
  S   S198      1.0  0.15348  0.49426  0.86499  1.0000
  S   S199      1.0  0.17910  0.51041  0.82712  1.0000
  Fe  Fe97      1.0  0.14250  0.47913  0.85978  1.0000
  S   S200      1.0  0.14443  0.45508  0.87086  1.0000
  Fe  Fe98      1.0  0.13122  0.51021  0.86500  1.0000
  S   S201      1.0  0.12479  0.52453  0.88184  1.0000
  S   S202      1.0  0.14932  0.48661  0.83518  1.0000
  S   S203      1.0  0.13642  0.52041  0.84079  1.0000
  H   H1113     1.0  0.28147  0.43257  0.92416  1.0000
  H   H1114     1.0  0.21623  0.50594  0.93844  1.0000
  Fe  Fe99      1.0  0.31853  0.55671  0.93732  1.0000
  S   S204      1.0  0.31649  0.57768  0.91980  1.0000
  S   S205      1.0  0.33385  0.53572  0.93075  1.0000
  H   H1115     1.0  0.09059  0.52563  0.79745  1.0000
  Fe  Fe100     1.0  0.29191  0.58093  0.92940  1.0000
  H   H1116     1.0  0.30544  0.61079  0.91414  1.0000
  S   S206      1.0  0.32174  0.56777  0.95371  1.0000
  S   S207      1.0  0.29380  0.55926  0.94582  1.0000
  Fe  Fe101     1.0  0.19536  0.56367  0.89748  1.0000
  S   S208      1.0  0.21526  0.56630  0.87889  1.0000
  S   S209      1.0  0.17776  0.58345  0.90339  1.0000
  Fe  Fe102     1.0  0.20330  0.53046  0.90243  1.0000
  S   S210      1.0  0.22386  0.53021  0.88429  1.0000
  S   S211      1.0  0.19678  0.50938  0.91560  1.0000
  Fe  Fe103     1.0  0.22796  0.54731  0.89357  1.0000
  S   S212      1.0  0.25054  0.54258  0.89935  1.0000
  Fe  Fe104     1.0  0.20913  0.54885  0.87156  1.0000
  S   S213      1.0  0.20840  0.55062  0.84790  1.0000
  S   S214      1.0  0.20846  0.54601  0.91274  1.0000
  S   S215      1.0  0.18831  0.54784  0.88904  1.0000
  C   C658      1.0  0.16209  0.52989  0.93510  1.0000
  S   S216      1.0  0.21005  0.56529  0.97851  1.0000
  H   H1117     1.0  0.13419  0.46867  0.91508  1.0000
  H   H1118     1.0  0.10278  0.55783  0.93681  1.0000
  H   H1119     1.0  0.29599  0.62896  0.92815  1.0000
  C   C659      1.0  0.19984  0.61039  0.94597  1.0000
  H   H1120     1.0  0.11899  0.55597  0.92211  1.0000
  S   S217      1.0  0.22726  0.52649  0.96862  1.0000
  N   N45       1.0  0.35303  0.34988  0.95810  1.0000
  H   H1121     1.0  0.25172  0.41873  0.95554  1.0000
  C   C660      1.0  0.04285  0.53973  0.74869  1.0000
  H   H1122     1.0  0.21401  0.49949  0.81408  1.0000
  Fe  Fe105     1.0  0.41871  0.35092  0.93425  1.0000
  S   S218      1.0  0.40241  0.36844  0.94538  1.0000
  S   S219      1.0  0.41668  0.34615  0.91349  1.0000
  Fe  Fe106     1.0  0.44032  0.34438  0.95457  1.0000
  S   S220      1.0  0.42613  0.36147  0.96742  1.0000
  H   H1123     1.0  0.44409  0.62291  0.93264  1.0000
  Fe  Fe107     1.0  0.40711  0.35263  0.96644  1.0000
  C   C661      1.0  0.27256  0.42623  0.92865  1.0000
  Fe  Fe108     1.0  0.42276  0.37565  0.94525  1.0000
  S   S221      1.0  0.42552  0.39902  0.93690  1.0000
  S   S222      1.0  0.42161  0.33441  0.95521  1.0000
  S   S223      1.0  0.43880  0.35924  0.93244  1.0000
  Fe  Fe109     1.0  0.32151  0.45887  0.93627  1.0000
  S   S224      1.0  0.33172  0.46295  0.91212  1.0000
  S   S225      1.0  0.30902  0.47752  0.94802  1.0000
  Fe  Fe110     1.0  0.32791  0.42546  0.93898  1.0000
  S   S226      1.0  0.33861  0.42685  0.91490  1.0000
  S   S227      1.0  0.32759  0.40284  0.95372  1.0000
  Fe  Fe111     1.0  0.34967  0.44298  0.91824  1.0000
  S   S228      1.0  0.37356  0.44341  0.90747  1.0000
  Fe  Fe112     1.0  0.31970  0.44647  0.91117  1.0000
  S   S229      1.0  0.30611  0.45264  0.89386  1.0000
  S   S230      1.0  0.34048  0.44018  0.94268  1.0000
  S   S231      1.0  0.30798  0.44384  0.93493  1.0000
  C   C662      1.0  0.26487  0.39519  0.92246  1.0000
  H   H1124     1.0  0.39276  0.42171  0.86668  1.0000
  Fe  Fe113     1.0  0.23449  0.44524  0.88110  1.0000
  S   S232      1.0  0.24394  0.42861  0.86676  1.0000
  S   S233      1.0  0.23293  0.46910  0.87045  1.0000
  Fe  Fe114     1.0  0.22684  0.42226  0.90892  1.0000
  S   S234      1.0  0.23548  0.40369  0.89687  1.0000
  S   S235      1.0  0.21600  0.41781  0.93301  1.0000
  Fe  Fe115     1.0  0.25466  0.41474  0.88563  1.0000
  S   S236      1.0  0.27888  0.40378  0.88501  1.0000
  Fe  Fe116     1.0  0.22378  0.41961  0.87944  1.0000
  S   S237      1.0  0.20886  0.41322  0.86898  1.0000
  S   S238      1.0  0.24678  0.43228  0.89895  1.0000
  S   S239      1.0  0.21362  0.43725  0.89259  1.0000
  H   H1125     1.0  0.14508  0.55553  0.91494  1.0000
  C   C663      1.0  0.16007  0.55457  0.86653  1.0000
  H   H1126     1.0  0.49740  0.59953  0.93184  1.0000
  C   C664      1.0  0.14182  0.57065  0.95364  1.0000
  S   S240      1.0  0.23854  0.45724  0.96064  1.0000
  S   S241      1.0  0.03682  0.52839  0.76571  1.0000
  C   C665      1.0  0.33968  0.36119  0.95340  1.0000
  C   C666      1.0  0.34491  0.62513  0.93572  1.0000
  C   C667      1.0  0.15643  0.57519  0.84569  1.0000
  H   H1127     1.0  0.12965  0.57377  0.95813  1.0000
  H   H1128     1.0  0.06602  0.41824  0.76557  1.0000
  H   H1129     1.0  0.15214  0.56472  0.82274  1.0000
  H   H1130     1.0  0.44250  0.64065  0.93604  1.0000
  S   S242      1.0  0.13342  0.49601  0.96365  1.0000
  C   C668      1.0  0.32752  0.35536  0.95051  1.0000
  Fe  Fe117     1.0  0.11176  0.49021  0.96571  1.0000
  S   S243      1.0  0.10429  0.48813  0.94627  1.0000
  H   H1131     1.0  0.29455  0.61405  0.90088  1.0000
  S   S244      1.0  0.15981  0.45982  0.97728  1.0000
  H   H1132     1.0  0.14734  0.57063  0.96244  1.0000
  H   H1133     1.0  0.14512  0.58409  0.91201  1.0000
  H   H1134     1.0  0.37076  0.33187  0.95122  1.0000
  H   H1135     1.0  0.31599  0.46841  0.97883  1.0000
  H   H1136     1.0  0.18445  0.46993  0.95957  1.0000
  H   H1137     1.0  0.15586  0.54541  0.82354  1.0000
  H   H1138     1.0  0.46803  0.63444  0.93976  1.0000
  H   H1139     1.0  0.35369  0.33235  0.94735  1.0000
  H   H1140     1.0  0.19235  0.51730  0.96392  1.0000
  H   H1141     1.0  0.45958  0.59956  0.91531  1.0000
  C   C669      1.0  0.35911  0.36840  0.96949  1.0000
  C   C670      1.0  0.36928  0.39167  0.92248  1.0000
  Fe  Fe118     1.0  0.04922  0.50468  0.76726  1.0000
  H   H1142     1.0  0.18880  0.44141  0.97853  1.0000
  C   C671      1.0  0.22017  0.42983  0.94120  1.0000
  C   C672      1.0  0.21824  0.42735  0.95652  1.0000
  C   C673      1.0  0.22337  0.43614  0.96265  1.0000
  C   C674      1.0  0.23064  0.44714  0.95347  1.0000
  C   C675      1.0  0.23170  0.45012  0.93825  1.0000
  C   C676      1.0  0.22633  0.44156  0.93220  1.0000
  H   H1143     1.0  0.21304  0.41854  0.96363  1.0000
  H   H1144     1.0  0.22156  0.43444  0.97443  1.0000
  H   H1145     1.0  0.23670  0.45896  0.93112  1.0000
  H   H1146     1.0  0.22696  0.44400  0.92056  1.0000
  C   C677      1.0  0.29924  0.43865  0.89123  1.0000
  C   C678      1.0  0.28845  0.44271  0.88264  1.0000
  C   C679      1.0  0.28243  0.43195  0.88057  1.0000
  C   C680      1.0  0.28734  0.41700  0.88685  1.0000
  C   C681      1.0  0.29840  0.41285  0.89521  1.0000
  C   C682      1.0  0.30423  0.42370  0.89757  1.0000
  H   H1147     1.0  0.28470  0.45422  0.87756  1.0000
  H   H1148     1.0  0.27404  0.43522  0.87395  1.0000
  H   H1149     1.0  0.30226  0.40129  0.90005  1.0000
  H   H1150     1.0  0.31262  0.42051  0.90416  1.0000
  H   H1151     1.0  0.37476  0.35010  0.96092  1.0000
  H   H1152     1.0  0.25858  0.59237  0.89256  1.0000
  H   H1153     1.0  0.04588  0.39980  0.74602  1.0000
  H   H1154     1.0  0.11487  0.56955  0.85187  1.0000
  C   C683      1.0  0.29890  0.41344  0.96781  1.0000
  C   C684      1.0  0.14507  0.53617  0.93871  1.0000
  H   H1155     1.0  0.47934  0.59884  0.90965  1.0000
  H   H1156     1.0  0.29826  0.42238  0.95827  1.0000
  C   C685      1.0  0.41053  0.41165  0.92978  1.0000
  C   C686      1.0  0.41360  0.42334  0.91796  1.0000
  C   C687      1.0  0.40208  0.43318  0.91145  1.0000
  C   C688      1.0  0.38733  0.43163  0.91693  1.0000
  C   C689      1.0  0.38409  0.42023  0.92912  1.0000
  C   C690      1.0  0.39574  0.41012  0.93544  1.0000
  H   H1157     1.0  0.42497  0.42463  0.91362  1.0000
  H   H1158     1.0  0.40462  0.44198  0.90207  1.0000
  H   H1159     1.0  0.37269  0.41903  0.93345  1.0000
  H   H1160     1.0  0.39327  0.40126  0.94477  1.0000
  H   H1161     1.0  0.35852  0.33659  0.97878  1.0000
  H   H1162     1.0  0.06631  0.44945  0.74347  1.0000
  H   H1163     1.0  0.49082  0.61768  0.90771  1.0000
  H   H1164     1.0  0.31952  0.63942  0.89190  1.0000
  H   H1165     1.0  0.20353  0.60715  0.90313  1.0000
  C   C691      1.0  0.00842  0.46483  0.78286  1.0000
  H   H1166     1.0  0.16726  0.51756  0.97051  1.0000
  H   H1167     1.0  0.13112  0.58296  0.92843  1.0000
  C   C692      1.0  0.46867  0.60405  0.91636  1.0000
  C   C693      1.0  0.99923  0.50319  0.78447  1.0000
  C   C694      1.0  0.47230  0.60693  0.95464  1.0000
  C   C695      1.0  0.24199  0.49784  0.97736  1.0000
  H   H1168     1.0  0.47089  0.36141  0.91417  1.0000
  H   H1169     1.0  0.44392  0.62492  0.95082  1.0000
  C   C696      1.0  0.19646  0.50947  0.95637  1.0000
  H   H1170     1.0  0.47726  0.58941  0.93466  1.0000
  H   H1171     1.0  0.24127  0.49603  0.96699  1.0000
  H   H1172     1.0  0.45839  0.32898  0.90835  1.0000
  H   H1173     1.0  0.13674  0.55242  0.98472  1.0000
  H   H1174     1.0  0.25319  0.54072  0.98079  1.0000
  S   S245      1.0  0.29255  0.59395  0.94527  1.0000
  C   C697      1.0  0.48141  0.59151  0.96086  1.0000
  H   H1175     1.0  0.49192  0.63225  0.91573  1.0000
  H   H1176     1.0  0.46043  0.60695  0.96009  1.0000
  H   H1177     1.0  0.31775  0.63472  0.91113  1.0000
  H   H1178     1.0  0.17238  0.55291  0.86218  1.0000
  H   H1179     1.0  0.28073  0.38667  0.97148  1.0000
  C   C698      1.0  0.30338  0.61795  0.90332  1.0000
  H   H1180     1.0  0.36371  0.59266  0.96340  1.0000
  H   H1181     1.0  0.36848  0.37339  0.96888  1.0000
  H   H1182     1.0  0.08201  0.53305  0.81852  1.0000
  H   H1183     1.0  0.29599  0.38908  0.95562  1.0000
  H   H1184     1.0  0.19827  0.44765  0.82549  1.0000
  C   C699      1.0  0.17914  0.57361  0.94665  1.0000
  C   C700      1.0  0.18030  0.57229  0.93223  1.0000
  H   H1185     1.0  0.17719  0.48346  0.97891  1.0000
  H   H1186     1.0  0.28350  0.38133  0.94045  1.0000
  H   H1187     1.0  0.18352  0.56413  0.95452  1.0000
  H   H1188     1.0  0.18514  0.56171  0.92927  1.0000
  C   C701      1.0  0.20478  0.49752  0.90326  1.0000
  C   C702      1.0  0.20717  0.50363  0.88812  1.0000
  C   C703      1.0  0.21581  0.49492  0.87797  1.0000
  C   C704      1.0  0.22142  0.47985  0.88297  1.0000
  C   C705      1.0  0.21803  0.47346  0.89804  1.0000
  C   C706      1.0  0.21001  0.48235  0.90829  1.0000
  H   H1189     1.0  0.20275  0.51525  0.88423  1.0000
  H   H1190     1.0  0.21821  0.49990  0.86628  1.0000
  H   H1191     1.0  0.22229  0.46181  0.90173  1.0000
  H   H1192     1.0  0.20836  0.47757  0.92002  1.0000
  C   C707      1.0  0.32743  0.51915  0.93659  1.0000
  C   C708      1.0  0.31305  0.51891  0.94505  1.0000
  C   C709      1.0  0.30764  0.50597  0.94875  1.0000
  C   C710      1.0  0.31653  0.49323  0.94379  1.0000
  C   C711      1.0  0.33099  0.49336  0.93539  1.0000
  C   C712      1.0  0.33647  0.50627  0.93193  1.0000
  H   H1193     1.0  0.30602  0.52882  0.94839  1.0000
  H   H1194     1.0  0.29636  0.50599  0.95500  1.0000
  H   H1195     1.0  0.33796  0.48355  0.93155  1.0000
  H   H1196     1.0  0.34765  0.50636  0.92537  1.0000
  H   H1197     1.0  0.06786  0.52225  0.82594  1.0000
  C   C713      1.0  0.26954  0.56248  0.91887  1.0000
  C   C714      1.0  0.26351  0.55222  0.91579  1.0000
  C   C715      1.0  0.25570  0.55637  0.90436  1.0000
  H   H1198     1.0  0.22048  0.50586  0.95568  1.0000
  H   H1199     1.0  0.20132  0.46246  0.96689  1.0000
  H   H1200     1.0  0.27547  0.55911  0.92773  1.0000
  H   H1201     1.0  0.26495  0.54099  0.92224  1.0000
  H   H1202     1.0  0.21616  0.48433  0.97067  1.0000
  H   H1203     1.0  0.49625  0.37948  0.90518  1.0000
  H   H1204     1.0  0.24851  0.60790  0.93565  1.0000
  C   C716      1.0  0.33626  0.45587  0.98538  1.0000
  H   H1205     1.0  0.28215  0.65364  0.89588  1.0000
  H   H1206     1.0  0.26190  0.57215  0.97176  1.0000
  C   C717      1.0  0.11886  0.51472  0.89983  1.0000
  C   C718      1.0  0.11978  0.51935  0.91213  1.0000
  C   C719      1.0  0.11552  0.51118  0.92652  1.0000
  C   C720      1.0  0.10989  0.49867  0.92859  1.0000
  C   C721      1.0  0.10891  0.49416  0.91629  1.0000
  C   C722      1.0  0.11358  0.50202  0.90195  1.0000
  H   H1207     1.0  0.12392  0.52915  0.91050  1.0000
  H   H1208     1.0  0.11631  0.51461  0.93603  1.0000
  H   H1209     1.0  0.10458  0.48447  0.91786  1.0000
  H   H1210     1.0  0.11283  0.49838  0.89255  1.0000
  C   C723      1.0  0.16265  0.44414  0.86901  1.0000
  C   C724      1.0  0.16537  0.42966  0.86706  1.0000
  C   C725      1.0  0.17972  0.42043  0.86649  1.0000
  C   C726      1.0  0.19129  0.42545  0.86845  1.0000
  C   C727      1.0  0.18851  0.43993  0.87046  1.0000
  C   C728      1.0  0.17427  0.44933  0.87056  1.0000
  H   H1211     1.0  0.15635  0.42560  0.86592  1.0000
  H   H1212     1.0  0.18176  0.40928  0.86490  1.0000
  H   H1213     1.0  0.19730  0.44394  0.87184  1.0000
  H   H1214     1.0  0.17214  0.46046  0.87221  1.0000
  C   C729      1.0  0.18747  0.52076  0.83371  1.0000
  C   C730      1.0  0.18601  0.51979  0.84885  1.0000
  C   C731      1.0  0.19282  0.52851  0.85348  1.0000
  C   C732      1.0  0.20092  0.53828  0.84298  1.0000
  C   C733      1.0  0.20252  0.53894  0.82793  1.0000
  C   C734      1.0  0.19599  0.53012  0.82333  1.0000
  H   H1215     1.0  0.17965  0.51239  0.85694  1.0000
  H   H1216     1.0  0.19144  0.52802  0.86509  1.0000
  H   H1217     1.0  0.35154  0.64074  0.97046  1.0000
  Fe  Fe119     1.0  0.18518  0.56951  0.98166  1.0000
  C   C735      1.0  0.08636  0.48094  0.81117  1.0000
  C   C736      1.0  0.09546  0.48845  0.79921  1.0000
  C   C737      1.0  0.10466  0.49626  0.80173  1.0000
  C   C738      1.0  0.10496  0.49655  0.81618  1.0000
  C   C739      1.0  0.09640  0.48845  0.82814  1.0000
  C   C740      1.0  0.08716  0.48068  0.82562  1.0000
  H   H1218     1.0  0.09523  0.48843  0.78804  1.0000
  H   H1219     1.0  0.11141  0.50230  0.79243  1.0000
  H   H1220     1.0  0.09650  0.48860  0.83933  1.0000
  H   H1221     1.0  0.08028  0.47477  0.83494  1.0000
  H   H1222     1.0  0.06457  0.55284  0.80405  1.0000
  H   H1223     1.0  0.21268  0.52282  0.94439  1.0000
  H   H1224     1.0  0.20699  0.46034  0.81017  1.0000
  C   C741      1.0  0.47333  0.34778  0.96504  1.0000
  H   H1225     1.0  0.27620  0.39715  0.91744  1.0000
  H   H1226     1.0  0.46264  0.35552  0.96475  1.0000
  S   S246      1.0  0.18533  0.54594  0.98262  1.0000
  C   C742      1.0  0.11479  0.55227  0.93412  1.0000
  H   H1227     1.0  0.47427  0.35211  0.93206  1.0000
  H   H1228     1.0  0.06482  0.53995  0.83006  1.0000
  H   H1229     1.0  0.25818  0.40085  0.91391  1.0000
  C   C743      1.0  0.49081  0.61112  0.93176  1.0000
  H   H1230     1.0  0.34305  0.36982  0.94359  1.0000
  C   C744      1.0  0.44801  0.62872  0.93883  1.0000
  H   H1231     1.0  0.14552  0.57919  0.94405  1.0000
  S   S247      1.0  0.28708  0.56905  0.98524  1.0000
  H   H1232     1.0  0.47489  0.37412  0.93855  1.0000
  N   N46       1.0  0.29816  0.63409  0.90434  1.0000
  H   H1233     1.0  0.05247  0.44218  0.75783  1.0000
  C   C745      1.0  0.34272  0.32717  0.97517  1.0000
  C   C746      1.0  0.07359  0.41901  0.75441  1.0000
  H   H1234     1.0  0.16739  0.53013  0.94390  1.0000
  C   C747      1.0  0.05765  0.53651  0.74086  1.0000
  H   H1235     1.0  0.04261  0.42350  0.75247  1.0000
  C   C748      1.0  0.36574  0.34729  0.93121  1.0000
  H   H1236     1.0  0.30442  0.44913  0.96877  1.0000
  H   H1237     1.0  0.49538  0.61540  0.93888  1.0000
  H   H1238     1.0  0.16759  0.53576  0.92425  1.0000
  H   H1239     1.0  0.13206  0.55199  0.86309  1.0000
  H   H1240     1.0  0.27911  0.54580  0.97678  1.0000
  C   C749      1.0  0.23668  0.51194  0.98056  1.0000
  C   C750      1.0  0.15687  0.53994  0.87692  1.0000
  H   H1241     1.0  0.14049  0.52952  0.94965  1.0000
  H   H1242     1.0  0.49802  0.32720  0.93224  1.0000
  C   C751      1.0  0.28835  0.64257  0.89348  1.0000
  H   H1243     1.0  0.23377  0.60288  0.95062  1.0000
  H   H1244     1.0  0.42025  0.39538  0.88513  1.0000
  H   H1245     1.0  0.07856  0.40738  0.75331  1.0000
  H   H1246     1.0  0.27025  0.62767  0.93631  1.0000
  H   H1247     1.0  0.28938  0.65469  0.87067  1.0000
  H   H1248     1.0  0.22015  0.61159  0.90396  1.0000
  C   C752      1.0  0.14691  0.55515  0.95000  1.0000
  S   S248      1.0  0.42904  0.63691  0.97746  1.0000
  N   N47       1.0  0.26493  0.48272  0.91415  1.0000
  C   C753      1.0  0.26612  0.47792  0.90011  1.0000
  C   C754      1.0  0.27487  0.49342  0.91086  1.0000
  C   C755      1.0  0.24909  0.49041  0.92001  1.0000
  C   C756      1.0  0.26964  0.46918  0.92564  1.0000
  C   C757      1.0  0.25620  0.46731  0.90136  1.0000
  C   C758      1.0  0.29174  0.48717  0.90559  1.0000
  C   C759      1.0  0.24124  0.50249  0.90857  1.0000
  C   C760      1.0  0.27183  0.47227  0.93979  1.0000
  H   H1249     1.0  0.26376  0.48766  0.89097  1.0000
  H   H1250     1.0  0.27769  0.47200  0.89603  1.0000
  H   H1251     1.0  0.27348  0.49808  0.92068  1.0000
  H   H1252     1.0  0.27164  0.50317  0.90206  1.0000
  H   H1253     1.0  0.24185  0.48237  0.92530  1.0000
  H   H1254     1.0  0.24862  0.49590  0.92896  1.0000
  H   H1255     1.0  0.26133  0.46214  0.92926  1.0000
  H   H1256     1.0  0.28032  0.46214  0.92076  1.0000
  H   H1257     1.0  0.26012  0.45621  0.90810  1.0000
  H   H1258     1.0  0.24430  0.47173  0.90590  1.0000
  H   H1259     1.0  0.25692  0.46572  0.89014  1.0000
  H   H1260     1.0  0.29798  0.49558  0.90470  1.0000
  H   H1261     1.0  0.29632  0.47716  0.91337  1.0000
  H   H1262     1.0  0.29430  0.48477  0.89440  1.0000
  H   H1263     1.0  0.23022  0.50813  0.91429  1.0000
  H   H1264     1.0  0.23898  0.49780  0.90028  1.0000
  H   H1265     1.0  0.24760  0.51117  0.90284  1.0000
  H   H1266     1.0  0.26991  0.46276  0.94912  1.0000
  H   H1267     1.0  0.26407  0.48228  0.94323  1.0000
  H   H1268     1.0  0.28357  0.47273  0.93863  1.0000
  N   N48       1.0  0.17911  0.40617  0.91914  1.0000
  C   C761      1.0  0.17238  0.41636  0.90640  1.0000
  C   C762      1.0  0.19538  0.40024  0.91277  1.0000
  C   C763      1.0  0.17821  0.41559  0.92973  1.0000
  C   C764      1.0  0.17049  0.39422  0.92627  1.0000
  C   C765      1.0  0.15527  0.42256  0.90973  1.0000
  C   C766      1.0  0.19865  0.38848  0.90343  1.0000
  C   C767      1.0  0.18220  0.40744  0.94480  1.0000
  C   C768      1.0  0.17776  0.38035  0.93678  1.0000
  H   H1269     1.0  0.17777  0.42598  0.90157  1.0000
  H   H1270     1.0  0.17450  0.41063  0.89722  1.0000
  H   H1271     1.0  0.20210  0.39549  0.92142  1.0000
  H   H1272     1.0  0.20058  0.40948  0.90559  1.0000
  H   H1273     1.0  0.18566  0.42348  0.92443  1.0000
  H   H1274     1.0  0.16682  0.42253  0.93251  1.0000
  H   H1275     1.0  0.15935  0.39892  0.93274  1.0000
  H   H1276     1.0  0.16798  0.39016  0.91760  1.0000
  H   H1277     1.0  0.15139  0.42941  0.91817  1.0000
  H   H1278     1.0  0.15201  0.42987  0.89944  1.0000
  H   H1279     1.0  0.14903  0.41366  0.91289  1.0000
  H   H1280     1.0  0.21090  0.38553  0.89898  1.0000
  H   H1281     1.0  0.19536  0.37811  0.91002  1.0000
  H   H1282     1.0  0.19338  0.39255  0.89371  1.0000
  H   H1283     1.0  0.19322  0.39955  0.94386  1.0000
  H   H1284     1.0  0.17335  0.40182  0.95209  1.0000
  H   H1285     1.0  0.18286  0.41575  0.95054  1.0000
  H   H1286     1.0  0.17104  0.37965  0.94827  1.0000
  H   H1287     1.0  0.18939  0.37980  0.93705  1.0000
  H   H1288     1.0  0.17789  0.37016  0.93339  1.0000
  N   N49       1.0  0.31441  0.53455  0.89349  1.0000
  C   C769      1.0  0.32794  0.52228  0.89625  1.0000
  C   C770      1.0  0.30389  0.53526  0.90829  1.0000
  C   C771      1.0  0.31966  0.54885  0.88702  1.0000
  C   C772      1.0  0.30763  0.53093  0.88284  1.0000
  C   C773      1.0  0.34079  0.52014  0.88267  1.0000
  C   C774      1.0  0.29649  0.52200  0.91561  1.0000
  C   C775      1.0  0.30797  0.56350  0.88851  1.0000
  C   C776      1.0  0.29249  0.54095  0.87991  1.0000
  H   H1289     1.0  0.33284  0.52420  0.90465  1.0000
  H   H1290     1.0  0.32493  0.51135  0.90090  1.0000
  H   H1291     1.0  0.29459  0.54507  0.90759  1.0000
  H   H1292     1.0  0.30968  0.53674  0.91621  1.0000
  H   H1293     1.0  0.32863  0.54905  0.89234  1.0000
  H   H1294     1.0  0.32479  0.54971  0.87503  1.0000
  H   H1295     1.0  0.31531  0.53143  0.87179  1.0000
  H   H1296     1.0  0.30644  0.51923  0.88623  1.0000
  H   H1297     1.0  0.35016  0.51122  0.88638  1.0000
  H   H1298     1.0  0.33747  0.51646  0.87432  1.0000
  H   H1299     1.0  0.34530  0.53021  0.87750  1.0000
  H   H1300     1.0  0.28935  0.52377  0.92651  1.0000
  H   H1301     1.0  0.28904  0.52115  0.90897  1.0000
  H   H1302     1.0  0.30469  0.51137  0.91783  1.0000
  H   H1303     1.0  0.31307  0.57294  0.88191  1.0000
  H   H1304     1.0  0.30463  0.56495  0.90013  1.0000
  H   H1305     1.0  0.29790  0.56458  0.88441  1.0000
  H   H1306     1.0  0.29413  0.55019  0.87020  1.0000
  H   H1307     1.0  0.28529  0.54557  0.88943  1.0000
  H   H1308     1.0  0.28589  0.53431  0.87764  1.0000
  H   H1309     1.0  0.26554  0.38310  0.92476  1.0000
  C   C777      1.0  0.16794  0.59812  0.92603  1.0000
  H   H1310     1.0  0.26877  0.42546  0.91901  1.0000
  C   C778      1.0  0.06984  0.53356  0.82118  1.0000
  H   H1311     1.0  0.19463  0.45739  0.92670  1.0000
  C   C779      1.0  0.34868  0.34095  0.97354  1.0000
  H   H1312     1.0  0.23288  0.47644  0.82039  1.0000
  H   H1313     1.0  0.39953  0.33045  0.93972  1.0000
  C   C780      1.0  0.41784  0.38909  0.89668  1.0000
  S   S249      1.0  0.17193  0.58930  0.96840  1.0000
  H   H1314     1.0  0.40075  0.38800  0.91634  1.0000
  C   C781      1.0  0.40159  0.39437  0.90475  1.0000
  C   C782      1.0  0.47750  0.36083  0.92233  1.0000
  S   S250      1.0  0.07351  0.49556  0.76744  1.0000
  H   H1315     1.0  0.20878  0.54639  0.81974  1.0000
  C   C783      1.0  0.00590  0.39507  0.74292  1.0000
  H   H1316     1.0  0.06560  0.52703  0.74538  1.0000
  H   H1317     1.0  0.18389  0.47368  0.90646  1.0000
  H   H1318     1.0  0.26205  0.52584  0.97085  1.0000
  H   H1319     1.0  0.16125  0.60990  0.94376  1.0000
  C   C784      1.0  0.24749  0.48582  0.98797  1.0000
  H   H1320     1.0  0.09219  0.41806  0.76386  1.0000
  N   N50       1.0  0.06754  0.53380  0.79489  1.0000
  C   C785      1.0  0.08408  0.53310  0.78921  1.0000
  C   C786      1.0  0.06249  0.54144  0.80776  1.0000
  C   C787      1.0  0.05970  0.54270  0.78245  1.0000
  C   C788      1.0  0.06536  0.51818  0.79946  1.0000
  C   C789      1.0  0.09125  0.52770  0.77456  1.0000
  C   C790      1.0  0.04306  0.55036  0.78671  1.0000
  C   C791      1.0  0.04937  0.51600  0.80639  1.0000
  H   H1321     1.0  0.08648  0.54419  0.78747  1.0000
  H   H1322     1.0  0.05028  0.54307  0.81216  1.0000
  H   H1323     1.0  0.06526  0.55185  0.77572  1.0000
  H   H1324     1.0  0.06057  0.53566  0.77464  1.0000
  H   H1325     1.0  0.06907  0.51282  0.78982  1.0000
  H   H1326     1.0  0.07267  0.51104  0.80710  1.0000
  H   H1327     1.0  0.09047  0.51622  0.77548  1.0000
  H   H1328     1.0  0.08649  0.53514  0.76512  1.0000
  H   H1329     1.0  0.10336  0.52758  0.77179  1.0000
  H   H1330     1.0  0.30831  0.53173  0.97297  1.0000
  H   H1331     1.0  0.30725  0.64665  0.87445  1.0000
  H   H1332     1.0  0.03866  0.55533  0.77643  1.0000
  H   H1333     1.0  0.04327  0.51711  0.79768  1.0000
  H   H1334     1.0  0.04283  0.52348  0.81393  1.0000
  H   H1335     1.0  0.05001  0.50466  0.81344  1.0000
  C   C792      1.0  0.27634  0.38562  0.95033  1.0000
  H   H1336     1.0  0.16163  0.45289  0.91578  1.0000
  H   H1337     1.0  0.14499  0.54128  0.88275  1.0000
  H   H1338     1.0  0.29276  0.47366  0.97845  1.0000
  H   H1339     1.0  0.16430  0.51807  0.93454  1.0000
  C   C793      1.0  0.16655  0.59938  0.94055  1.0000
  H   H1340     1.0  0.47538  0.61501  0.95895  1.0000
  C   C794      1.0  0.15844  0.50407  0.91052  1.0000
  H   H1341     1.0  0.26852  0.37809  0.95547  1.0000
  H   H1342     1.0  0.21096  0.56399  0.94786  1.0000
  H   H1343     1.0  0.32639  0.45513  0.96808  1.0000
  Fe  Fe120     1.0  0.29668  0.57197  0.96083  1.0000
  H   H1344     1.0  0.25034  0.41272  0.93345  1.0000
  H   H1345     1.0  0.14286  0.45615  0.90285  1.0000
  H   H1346     1.0  0.17034  0.50419  0.90897  1.0000
  H   H1347     1.0  0.34490  0.58906  0.95205  1.0000
  H   H1348     1.0  0.28811  0.40503  0.92931  1.0000
  C   C795      1.0  0.22996  0.44346  0.83123  1.0000
  H   H1349     1.0  0.20367  0.58806  0.92495  1.0000
  C   C796      1.0  0.14352  0.46636  0.90562  1.0000
  H   H1350     1.0  0.16386  0.49034  0.89459  1.0000
  H   H1351     1.0  0.40137  0.39489  0.87533  1.0000
  H   H1352     1.0  0.14504  0.49327  0.90460  1.0000
  Fe  Fe121     1.0  0.31747  0.58907  0.93700  1.0000
  H   H1353     1.0  0.40027  0.40599  0.90541  1.0000
  H   H1354     1.0  0.18744  0.46411  0.81579  1.0000
  C   C797      1.0  0.15678  0.49058  0.90591  1.0000
  C   C798      1.0  0.00486  0.50695  0.76752  1.0000
  H   H1355     1.0  0.22619  0.46706  0.81114  1.0000
  H   H1356     1.0  0.18197  0.44856  0.92403  1.0000
  H   H1357     1.0  0.14178  0.47536  0.89577  1.0000
  H   H1358     1.0  0.14492  0.46200  0.95286  1.0000
  H   H1359     1.0  0.15365  0.48176  0.93770  1.0000
  N   N51       1.0  0.19468  0.49400  0.96414  1.0000
  H   H1360     1.0  0.14116  0.58868  0.86154  1.0000
  H   H1361     1.0  0.11994  0.58450  0.85513  1.0000
  C   C799      1.0  0.40968  0.32493  0.90454  1.0000
  C   C800      1.0  0.20004  0.48472  0.95251  1.0000
  C   C801      1.0  0.31192  0.40228  0.96835  1.0000
  C   C802      1.0  0.17508  0.58462  0.92180  1.0000
  C   C803      1.0  0.14559  0.56114  0.92345  1.0000
  C   C804      1.0  0.19657  0.46926  0.95726  1.0000
  C   C805      1.0  0.21246  0.51090  0.94832  1.0000
  H   H1362     1.0  0.12911  0.57823  0.91222  1.0000
  C   C806      1.0  0.35547  0.62726  0.94227  1.0000
  H   H1363     1.0  0.19494  0.49045  0.94277  1.0000
  H   H1364     1.0  0.21236  0.48294  0.94836  1.0000
  C   C807      1.0  0.05575  0.40327  0.74678  1.0000
  H   H1365     1.0  0.25105  0.47490  0.98560  1.0000
  H   H1366     1.0  0.14475  0.54704  0.96065  1.0000
  Fe  Fe122     1.0  0.38339  0.63840  0.95927  1.0000
  H   H1367     1.0  0.20440  0.48986  0.80719  1.0000
  H   H1368     1.0  0.24922  0.39473  0.94291  1.0000
  H   H1369     1.0  0.36756  0.38085  0.89574  1.0000
  H   H1370     1.0  0.11860  0.56784  0.94407  1.0000
  C   C808      1.0  0.25748  0.40148  0.93651  1.0000
  H   H1371     1.0  0.15926  0.55326  0.94636  1.0000
  H   H1372     1.0  0.31791  0.62050  0.88079  1.0000
  H   H1373     1.0  0.11990  0.54999  0.95522  1.0000
  C   C809      1.0  0.47093  0.64396  0.96456  1.0000
  N   N52       1.0  0.26794  0.40136  0.94579  1.0000
  C   C810      1.0  0.28678  0.38324  0.96092  1.0000
  H   H1374     1.0  0.16375  0.60766  0.91802  1.0000
  H   H1375     1.0  0.20287  0.61633  0.91711  1.0000
  H   H1376     1.0  0.14065  0.53347  0.93042  1.0000
  H   H1377     1.0  0.16077  0.58493  0.86191  1.0000
  C   C811      1.0  0.25795  0.57121  0.98357  1.0000
  H   H1378     1.0  0.22691  0.61270  0.92534  1.0000
  H   H1379     1.0  0.16734  0.46395  0.89843  1.0000
  H   H1380     1.0  0.35891  0.39857  0.92797  1.0000
  H   H1381     1.0  0.19877  0.48594  0.86398  1.0000
  H   H1382     1.0  0.18821  0.47750  0.85759  1.0000
  C   C812      1.0  0.27906  0.41075  0.93729  1.0000
  C   C813      1.0  0.20959  0.59453  0.94695  1.0000
  H   H1383     1.0  0.23342  0.43261  0.83865  1.0000
  C   C814      1.0  0.19789  0.45950  0.82009  1.0000
  Fe  Fe123     1.0  0.13738  0.47545  0.98126  1.0000
  C   C815      1.0  0.22082  0.45489  0.84075  1.0000
  S   S251      1.0  0.04891  0.49141  0.75161  1.0000
  H   H1384     1.0  0.16355  0.53663  0.88558  1.0000
  C   C816      1.0  0.25882  0.40765  0.95907  1.0000
  H   H1385     1.0  0.16945  0.54841  0.83974  1.0000
  H   H1386     1.0  0.24778  0.57420  0.88723  1.0000
  H   H1387     1.0  0.26330  0.43272  0.93575  1.0000
  Fe  Fe124     1.0  0.12115  0.50720  0.98260  1.0000
  H   H1388     1.0  0.27631  0.42122  0.97873  1.0000
  H   H1389     1.0  0.19149  0.46297  0.84201  1.0000
  N   N53       1.0  0.16033  0.47574  0.91629  1.0000
  C   C817      1.0  0.19975  0.47718  0.85809  1.0000
  H   H1390     1.0  0.28500  0.41257  0.94488  1.0000
  H   H1391     1.0  0.20468  0.46651  0.86481  1.0000
  H   H1392     1.0  0.17780  0.48177  0.92230  1.0000
  H   H1393     1.0  0.04159  0.55960  0.79218  1.0000
  H   H1394     1.0  0.21888  0.56286  0.92873  1.0000
  H   H1395     1.0  0.15346  0.51432  0.90320  1.0000
  H   H1396     1.0  0.46575  0.61601  0.91147  1.0000
  C   C818      1.0  0.12462  0.57418  0.85080  1.0000
  C   C819      1.0  0.17631  0.47305  0.91762  1.0000
  H   H1397     1.0  0.22036  0.48205  0.84390  1.0000
  H   H1398     1.0  0.22889  0.45661  0.84627  1.0000
  H   H1399     1.0  0.21297  0.44926  0.84976  1.0000
  H   H1400     1.0  0.19729  0.53081  0.81164  1.0000
  H   H1401     1.0  0.40125  0.41893  0.88189  1.0000
  C   C820      1.0  0.34099  0.61136  0.93921  1.0000
  C   C821      1.0  0.20966  0.48062  0.84253  1.0000
  C   C822      1.0  0.27799  0.53451  0.97723  1.0000
  C   C823      1.0  0.39160  0.41724  0.87877  1.0000
  H   H1402     1.0  0.33340  0.32952  0.96953  1.0000
  H   H1403     1.0  0.15244  0.50471  0.92203  1.0000
  Fe  Fe125     1.0  0.07238  0.48043  0.75374  1.0000
  H   H1404     1.0  0.20403  0.49173  0.83725  1.0000
  H   H1405     1.0  0.24038  0.44672  0.82431  1.0000
  C   C824      1.0  0.35845  0.60179  0.95570  1.0000
  C   C825      1.0  0.18258  0.45833  0.92754  1.0000
  C   C826      1.0  0.15896  0.46423  0.90907  1.0000
  N   N54       1.0  0.21259  0.46955  0.83297  1.0000
  H   H1406     1.0  0.13858  0.48317  0.92953  1.0000
  C   C827      1.0  0.14975  0.47625  0.93114  1.0000
  H   H1407     1.0  0.17711  0.45797  0.93938  1.0000
  Fe  Fe126     1.0  0.20975  0.54148  0.98215  1.0000
  C   C828      1.0  0.37866  0.37325  0.89369  1.0000
  C   C829      1.0  0.08661  0.42531  0.75484  1.0000
  H   H1408     1.0  0.13826  0.55392  0.83329  1.0000
  C   C830      1.0  0.14678  0.46133  0.94112  1.0000
  C   C831      1.0  0.22238  0.47512  0.81844  1.0000
  C   C832      1.0  0.19774  0.46836  0.83129  1.0000
  H   H1409     1.0  0.19020  0.47946  0.82876  1.0000
  H   H1410     1.0  0.22287  0.49200  0.79807  1.0000
  H   H1411     1.0  0.22359  0.44156  0.82421  1.0000
  C   C833      1.0  0.22137  0.56306  0.93926  1.0000
  H   H1412     1.0  0.22871  0.55209  0.94276  1.0000
  C   C834      1.0  0.21531  0.48995  0.80910  1.0000
  C   C835      1.0  0.39057  0.37686  0.89941  1.0000
  H   H1413     1.0  0.35645  0.35560  0.92676  1.0000
  H   H1414     1.0  0.13612  0.45955  0.94014  1.0000
  H   H1415     1.0  0.34507  0.60987  0.98261  1.0000
  H   H1416     1.0  0.15589  0.45149  0.93952  1.0000
  H   H1417     1.0  0.12943  0.57700  0.83885  1.0000
  C   C836      1.0  0.25988  0.58119  0.89915  1.0000
  C   C837      1.0  0.13526  0.56285  0.86035  1.0000
  H   H1418     1.0  0.22162  0.58535  0.91298  1.0000
  C   C838      1.0  0.28896  0.63475  0.91976  1.0000
  C   C839      1.0  0.22973  0.57527  0.93739  1.0000
  C   C840      1.0  0.17241  0.58719  0.95078  1.0000
  H   H1419     1.0  0.23996  0.57304  0.92875  1.0000
  H   H1420     1.0  0.17248  0.49452  0.96201  1.0000
  H   H1421     1.0  0.37698  0.36202  0.89966  1.0000
  H   H1422     1.0  0.23538  0.57124  0.98338  1.0000
  H   H1423     1.0  0.23358  0.57313  0.94788  1.0000
  H   H1424     1.0  0.13243  0.56644  0.87106  1.0000
  N   N55       1.0  0.15183  0.56089  0.85399  1.0000
  C   C841      1.0  0.36073  0.33967  0.94748  1.0000
  H   H1425     1.0  0.40147  0.37181  0.89289  1.0000
  H   H1426     1.0  0.16014  0.53057  0.87126  1.0000
  S   S252      1.0  0.27585  0.58986  0.91383  1.0000
  H   H1427     1.0  0.42078  0.37703  0.89700  1.0000
  H   H1428     1.0  0.33194  0.34572  0.94519  1.0000
  H   H1429     1.0  0.00661  0.49662  0.76353  1.0000
  C   C842      1.0  0.05234  0.42035  0.74350  1.0000
  C   C843      1.0  0.37458  0.40025  0.90668  1.0000
  N   N56       1.0  0.38947  0.39303  0.89824  1.0000
  N   N57       1.0  0.14011  0.55253  0.93875  1.0000
  H   H1430     1.0  0.15154  0.58029  0.83580  1.0000
  H   H1431     1.0  0.19551  0.61255  0.95733  1.0000
  H   H1432     1.0  0.37527  0.35235  0.92970  1.0000
  H   H1433     1.0  0.36554  0.40254  0.90056  1.0000
  C   C844      1.0  0.17838  0.49402  0.97075  1.0000
  H   H1434     1.0  0.47792  0.58242  0.95864  1.0000
  N   N58       1.0  0.06479  0.42756  0.74267  1.0000
  H   H1435     1.0  0.35615  0.36235  0.98109  1.0000
  S   S253      1.0  0.37540  0.61761  0.96122  1.0000
  C   C845      1.0  0.47540  0.33347  0.96293  1.0000
  C   C846      1.0  0.31789  0.61352  0.89201  1.0000
  H   H1436     1.0  0.03607  0.54262  0.79371  1.0000
  H   H1437     1.0  0.15761  0.56116  0.92176  1.0000
  H   H1438     1.0  0.37758  0.38921  0.92943  1.0000
  H   H1439     1.0  0.48174  0.63834  0.96712  1.0000
  C   C847      1.0  0.12330  0.55603  0.94363  1.0000
  S   S254      1.0  0.38594  0.64184  0.98063  1.0000
  H   H1440     1.0  0.48991  0.37097  0.89475  1.0000
  H   H1441     1.0  0.38111  0.42397  0.88425  1.0000
  H   H1442     1.0  0.15367  0.59806  0.84702  1.0000
  C   C848      1.0  0.20401  0.48706  0.97572  1.0000
  H   H1443     1.0  0.24867  0.58881  0.94277  1.0000
  H   H1444     1.0  0.34973  0.37777  0.96678  1.0000
  H   H1445     1.0  0.34024  0.34805  0.98078  1.0000
  H   H1446     1.0  0.19012  0.61170  0.94113  1.0000
  H   H1447     1.0  0.09523  0.42545  0.74442  1.0000
  H   H1448     1.0  0.45910  0.37776  0.93080  1.0000
  S   S255      1.0  0.11652  0.46881  0.98214  1.0000
  N   N59       1.0  0.22119  0.59112  0.93342  1.0000
  C   C849      1.0  0.21403  0.59237  0.92077  1.0000
  S   S256      1.0  0.09884  0.50351  0.98297  1.0000
  H   H1449     1.0  0.39076  0.37034  0.91090  1.0000
  C   C850      1.0  0.13703  0.57740  0.91915  1.0000
  H   H1450     1.0  0.37481  0.41139  0.90775  1.0000
  H   H1451     1.0  0.16876  0.57298  0.84118  1.0000
  H   H1452     1.0  0.15495  0.53902  0.84980  1.0000
  C   C851      1.0  0.05774  0.44287  0.74585  1.0000
  N   N60       1.0  0.47439  0.61145  0.93799  1.0000
  C   C852      1.0  0.33959  0.64098  0.97581  1.0000
  Fe  Fe127     1.0  0.40821  0.64658  0.96809  1.0000
  H   H1453     1.0  0.48367  0.36323  0.96893  1.0000
  H   H1454     1.0  0.24054  0.59816  0.91860  1.0000
  H   H1455     1.0  0.20165  0.58720  0.95011  1.0000
  C   C853      1.0  0.00891  0.46077  0.79786  1.0000
  H   H1456     1.0  0.25443  0.38732  0.97552  1.0000
  C   C854      1.0  0.31236  0.39042  0.98061  1.0000
  C   C855      1.0  0.26801  0.57692  0.91039  1.0000
  H   H1457     1.0  0.20158  0.46339  0.94801  1.0000
  S   S257      1.0  0.32783  0.60914  0.93049  1.0000
  C   C856      1.0  0.34775  0.59972  0.94931  1.0000
  H   H1458     1.0  0.38174  0.40026  0.87770  1.0000
  H   H1459     1.0  0.20600  0.61909  0.93988  1.0000
  H   H1460     1.0  0.33979  0.63419  0.92787  1.0000
  H   H1461     1.0  0.36649  0.38132  0.92234  1.0000
  C   C857      1.0  0.15029  0.55408  0.83015  1.0000
  C   C858      1.0  0.39117  0.40072  0.88217  1.0000
  H   H1462     1.0  0.21454  0.59171  0.95685  1.0000
  H   H1463     1.0  0.29202  0.37125  0.96378  1.0000
  H   H1464     1.0  0.49362  0.59042  0.95675  1.0000
  H   H1465     1.0  0.20175  0.47602  0.98174  1.0000
  H   H1466     1.0  0.11530  0.54020  0.93676  1.0000
  H   H1467     1.0  0.38231  0.37343  0.88165  1.0000
  C   C859      1.0  0.23227  0.60085  0.92870  1.0000
  C   C860      1.0  0.24116  0.59989  0.94027  1.0000
  H   H1468     1.0  0.01947  0.45833  0.80115  1.0000
  H   H1469     1.0  0.17346  0.50776  0.98748  1.0000
  C   C861      1.0  0.20997  0.60786  0.91087  1.0000
  C   C862      1.0  0.40840  0.33123  0.91644  1.0000
  H   H1470     1.0  0.32155  0.36411  0.94254  1.0000
  C   C863      1.0  0.40059  0.32559  0.93049  1.0000
  H   H1471     1.0  0.18948  0.51403  0.94789  1.0000
  C   C864      1.0  0.44435  0.64507  0.96855  1.0000
  C   C865      1.0  0.15716  0.55007  0.84387  1.0000
  C   C866      1.0  0.15266  0.58728  0.85473  1.0000
  H   H1472     1.0  0.15727  0.56244  0.87398  1.0000
  C   C867      1.0  0.25364  0.57097  0.89620  1.0000
  H   H1473     1.0  0.34134  0.46530  0.97870  1.0000
  H   H1474     1.0  0.42544  0.39103  0.90255  1.0000
  C   C868      1.0  0.36234  0.61555  0.95227  1.0000
  H   H1475     1.0  0.29636  0.63492  0.87254  1.0000
  H   H1476     1.0  0.19947  0.50778  0.98411  1.0000
  H   H1477     1.0  0.28686  0.53042  0.96818  1.0000
  H   H1478     1.0  0.45852  0.59846  0.93964  1.0000
  C   C869      1.0  0.49777  0.36872  0.90223  1.0000
  H   H1479     1.0  0.33691  0.63260  0.97167  1.0000
  H   H1480     1.0  0.35839  0.63789  0.93950  1.0000
  S   S258      1.0  0.40660  0.64114  0.94745  1.0000
  H   H1481     1.0  0.02123  0.55468  0.74892  1.0000
  C   C870      1.0  0.29987  0.44910  0.98077  1.0000
  H   H1482     1.0  0.27757  0.61667  0.92266  1.0000
  H   H1483     1.0  0.49123  0.34419  0.90154  1.0000
  C   C871      1.0  0.28800  0.46375  0.98189  1.0000
  H   H1484     1.0  0.05752  0.39838  0.75821  1.0000
  H   H1485     1.0  0.47932  0.58991  0.97309  1.0000
  C   C872      1.0  0.31132  0.64073  0.90237  1.0000
  C   C873      1.0  0.26311  0.53630  0.97274  1.0000
  C   C874      1.0  0.46512  0.62702  0.93444  1.0000
  H   H1486     1.0  0.47456  0.38512  0.91980  1.0000
  C   C875      1.0  0.48521  0.35211  0.96746  1.0000
  H   H1487     1.0  0.31929  0.35260  0.96091  1.0000
  H   H1488     1.0  0.49738  0.34947  0.93809  1.0000
  C   C876      1.0  0.32233  0.45671  0.97968  1.0000
  H   H1489     1.0  0.01621  0.50893  0.76570  1.0000
  H   H1490     1.0  0.32781  0.61373  0.89583  1.0000
  H   H1491     1.0  0.45964  0.62757  0.97991  1.0000
  H   H1492     1.0  0.26612  0.63514  0.91837  1.0000
  C   C877      1.0  0.36427  0.35807  0.95839  1.0000
  C   C878      1.0  0.29592  0.64461  0.87692  1.0000
  H   H1493     1.0  0.31923  0.60192  0.89116  1.0000
  C   C879      1.0  0.46952  0.60050  0.93281  1.0000
  C   C880      1.0  0.24830  0.39830  0.97038  1.0000
  C   C881      1.0  0.27500  0.62813  0.92432  1.0000
  H   H1494     1.0  0.31932  0.62264  0.98666  1.0000
  H   H1495     1.0  0.26609  0.40966  0.96522  1.0000
  H   H1496     1.0  0.36761  0.36519  0.94742  1.0000
  H   H1497     1.0  0.33376  0.36775  0.96204  1.0000
  C   C882      1.0  0.20186  0.49562  0.98786  1.0000
  C   C883      1.0  0.49526  0.62017  0.91599  1.0000
  H   H1498     1.0  0.32239  0.38175  0.98119  1.0000
  C   C884      1.0  0.28644  0.41287  0.97954  1.0000
  H   H1499     1.0  0.08276  0.43653  0.75731  1.0000
  C   C885      1.0  0.49306  0.32919  0.92252  1.0000
  H   H1500     1.0  0.23953  0.39702  0.96560  1.0000
  S   S259      1.0  0.12388  0.52971  0.98258  1.0000
  H   H1501     1.0  0.00663  0.53449  0.76266  1.0000
  C   C886      1.0  0.47151  0.37534  0.92804  1.0000
  C   C887      1.0  0.00145  0.52005  0.74281  1.0000
  H   H1502     1.0  0.48078  0.33040  0.92604  1.0000
  H   H1503     1.0  0.28474  0.64636  0.92127  1.0000
  H   H1504     1.0  0.00749  0.49366  0.78927  1.0000
  H   H1505     1.0  0.27927  0.63691  0.89475  1.0000
  C   C888      1.0  0.18420  0.44488  0.98897  1.0000
  H   H1506     1.0  0.41571  0.32926  0.89365  1.0000
  C   C889      1.0  0.30763  0.65736  0.90254  1.0000
  C   C890      1.0  0.16893  0.50677  0.97848  1.0000
  C   C891      1.0  0.49715  0.34261  0.91057  1.0000
  H   H1507     1.0  0.24233  0.40412  0.97952  1.0000
  H   H1508     1.0  0.30500  0.63948  0.98760  1.0000
  H   H1509     1.0  0.36978  0.33877  0.92433  1.0000
  H   H1510     1.0  0.15764  0.50454  0.98354  1.0000
  H   H1511     1.0  0.28984  0.50564  0.98138  1.0000
  H   H1512     1.0  0.27079  0.50805  0.98851  1.0000
  H   H1513     1.0  0.03509  0.44840  0.74122  1.0000
  C   C892      1.0  0.30847  0.52306  0.98331  1.0000
  N   N61       1.0  0.49402  0.35691  0.91570  1.0000
  H   H1514     1.0  0.31075  0.51196  0.98083  1.0000
  H   H1515     1.0  0.49754  0.37793  0.93006  1.0000
  S   S260      1.0  0.46122  0.32773  0.95915  1.0000
  S   S261      1.0  0.38863  0.34979  0.98648  1.0000
  H   H1516     1.0  0.00284  0.50897  0.74048  1.0000
  H   H1517     1.0  0.32470  0.42872  0.97677  1.0000
  H   H1518     1.0  0.43347  0.32768  0.98782  1.0000
  H   H1519     1.0  0.29385  0.44004  0.98449  1.0000
  H   H1520     1.0  0.34505  0.44573  0.98377  1.0000
  H   H1521     1.0  0.35363  0.65037  0.98979  1.0000
  C   C893      1.0  0.03264  0.55207  0.74285  1.0000
  H   H1522     1.0  0.33091  0.65664  0.95741  1.0000
  C   C894      1.0  0.33057  0.65623  0.96916  1.0000
  N   N62       1.0  0.31245  0.44615  0.98865  1.0000
  C   C895      1.0  0.32165  0.43061  0.98828  1.0000
  H   H1523     1.0  0.02534  0.51777  0.74261  1.0000
  C   C896      1.0  0.46927  0.65755  0.95446  1.0000
  H   H1524     1.0  0.46179  0.65770  0.98740  1.0000
  H   H1525     1.0  0.31809  0.52339  0.98752  1.0000
  H   H1526     1.0  0.02955  0.38540  0.74023  1.0000
  C   C897      1.0  0.43453  0.84567  0.12675  1.0000
  S   S262      1.0  0.47158  0.70419  0.04925  1.0000
  Fe  Fe128     1.0  0.45036  0.84367  0.01931  1.0000
  S   S263      1.0  0.46416  0.83958  0.03622  1.0000
  S   S264      1.0  0.35915  0.73745  0.00465  1.0000
  Fe  Fe129     1.0  0.42656  0.82872  0.04098  1.0000
  S   S265      1.0  0.43812  0.82359  0.05982  1.0000
  S   S266      1.0  0.40508  0.82162  0.04445  1.0000
  Fe  Fe130     1.0  0.44225  0.84660  0.05149  1.0000
  S   S267      1.0  0.43642  0.86363  0.06583  1.0000
  Fe  Fe131     1.0  0.45895  0.81701  0.04308  1.0000
  H   H1527     1.0  0.47553  0.85426  0.11187  1.0000
  S   S268      1.0  0.42876  0.85233  0.03397  1.0000
  S   S269      1.0  0.44702  0.82049  0.02494  1.0000
  Fe  Fe132     1.0  0.44971  0.90825  0.13116  1.0000
  S   S270      1.0  0.46402  0.91651  0.14066  1.0000
  S   S271      1.0  0.42569  0.90709  0.14039  1.0000
  C   C898      1.0  0.41013  0.80584  0.00781  1.0000
  C   C899      1.0  0.37138  0.70828  0.00112  1.0000
  C   C900      1.0  0.47968  0.87669  0.20023  1.0000
  C   C901      1.0  0.46604  0.90791  0.18330  1.0000
  C   C902      1.0  0.44995  0.97544  0.21915  1.0000
  H   H1528     1.0  0.37337  0.85382  0.01177  1.0000
  H   H1529     1.0  0.47473  0.67628  0.02408  1.0000
  S   S272      1.0  0.46623  0.88696  0.12859  1.0000
  S   S273      1.0  0.45684  0.92015  0.10765  1.0000
  S   S274      1.0  0.43072  0.92842  0.20814  1.0000
  S   S275      1.0  0.39573  0.91639  0.20544  1.0000
  H   H1530     1.0  0.43714  0.87716  0.13513  1.0000
  H   H1531     1.0  0.48027  0.68133  0.99662  1.0000
  S   S276      1.0  0.41450  0.75058  0.01437  1.0000
  H   H1532     1.0  0.45193  0.87234  0.02391  1.0000
  Fe  Fe133     1.0  0.41252  0.73689  0.99994  1.0000
  S   S277      1.0  0.39808  0.72340  0.01754  1.0000
  H   H1533     1.0  0.42133  0.78991  0.04743  1.0000
  Fe  Fe134     1.0  0.39819  0.73865  0.03143  1.0000
  S   S278      1.0  0.40235  0.72981  0.05437  1.0000
  C   C903      1.0  0.44457  0.78239  0.01834  1.0000
  C   C904      1.0  0.43146  0.78210  0.05073  1.0000
  S   S279      1.0  0.37776  0.75561  0.02570  1.0000
  C   C905      1.0  0.47042  0.97776  0.11221  1.0000
  H   H1534     1.0  0.45084  0.82993  0.99516  1.0000
  C   C906      1.0  0.43239  0.94749  0.15814  1.0000
  H   H1535     1.0  0.45074  0.96353  0.22422  1.0000
  C   C907      1.0  0.42247  0.95928  0.13515  1.0000
  C   C908      1.0  0.39902  0.95097  0.17484  1.0000
  Fe  Fe135     1.0  0.37907  0.74117  0.01021  1.0000
  H   H1536     1.0  0.42623  0.75319  0.06455  1.0000
  Fe  Fe136     1.0  0.42273  0.95259  0.20803  1.0000
  S   S280      1.0  0.47554  0.72767  0.00799  1.0000
  H   H1537     1.0  0.47799  0.90189  0.04060  1.0000
  C   C909      1.0  0.47518  0.93824  0.22362  1.0000
  H   H1538     1.0  0.47061  0.88594  0.04534  1.0000
  C   C910      1.0  0.42918  0.77967  0.06765  1.0000
  C   C911      1.0  0.42508  0.94503  0.12955  1.0000
  H   H1539     1.0  0.45395  0.90818  0.18627  1.0000
  C   C912      1.0  0.35870  0.69500  0.99191  1.0000
  H   H1540     1.0  0.42710  0.79057  0.07059  1.0000
  H   H1541     1.0  0.44908  0.83740  0.10703  1.0000
  C   C913      1.0  0.46705  0.96534  0.11005  1.0000
  C   C914      1.0  0.45371  0.96688  0.10583  1.0000
  H   H1542     1.0  0.46806  0.91351  0.20278  1.0000
  C   C915      1.0  0.41811  0.98610  0.18990  1.0000
  H   H1543     1.0  0.45102  0.73973  0.03987  1.0000
  H   H1544     1.0  0.45678  0.68284  0.03477  1.0000
  H   H1545     1.0  0.45122  0.95740  0.10386  1.0000
  H   H1546     1.0  0.41850  0.97163  0.16622  1.0000
  H   H1547     1.0  0.41711  0.80658  0.99682  1.0000
  H   H1548     1.0  0.47298  0.89742  0.22625  1.0000
  C   C916      1.0  0.41817  0.90838  0.15894  1.0000
  C   C917      1.0  0.42689  0.90938  0.16806  1.0000
  C   C918      1.0  0.42015  0.91175  0.18244  1.0000
  C   C919      1.0  0.40478  0.91277  0.18780  1.0000
  C   C920      1.0  0.39626  0.91115  0.17885  1.0000
  C   C921      1.0  0.40290  0.90906  0.16444  1.0000
  H   H1549     1.0  0.43876  0.90846  0.16401  1.0000
  H   H1550     1.0  0.42684  0.91256  0.18942  1.0000
  H   H1551     1.0  0.38440  0.91183  0.18297  1.0000
  H   H1552     1.0  0.39612  0.90821  0.15748  1.0000
  H   H1553     1.0  0.43924  0.77255  0.07169  1.0000
  C   C922      1.0  0.43408  0.77255  0.02873  1.0000
  C   C923      1.0  0.44946  0.87019  0.07087  1.0000
  C   C924      1.0  0.44452  0.88323  0.07640  1.0000
  C   C925      1.0  0.45431  0.88846  0.08126  1.0000
  C   C926      1.0  0.46920  0.88072  0.08053  1.0000
  S   S281      1.0  0.39835  0.95283  0.21356  1.0000
  C   C927      1.0  0.46441  0.86258  0.06989  1.0000
  H   H1554     1.0  0.43299  0.88925  0.07707  1.0000
  H   H1555     1.0  0.45038  0.89847  0.08557  1.0000
  C   C928      1.0  0.47720  0.67130  0.99587  1.0000
  H   H1556     1.0  0.46832  0.85246  0.06576  1.0000
  C   C929      1.0  0.40323  0.81219  0.03195  1.0000
  C   C930      1.0  0.41258  0.81261  0.01791  1.0000
  H   H1557     1.0  0.44005  0.68831  0.99885  1.0000
  C   C931      1.0  0.39873  0.79807  0.01196  1.0000
  C   C932      1.0  0.38980  0.79712  0.02622  1.0000
  C   C933      1.0  0.39186  0.80440  0.03607  1.0000
  H   H1558     1.0  0.42147  0.81844  0.01470  1.0000
  H   H1559     1.0  0.48580  0.86191  0.07393  1.0000
  H   H1560     1.0  0.38096  0.79116  0.02950  1.0000
  H   H1561     1.0  0.38461  0.80398  0.04695  1.0000
  C   C934      1.0  0.45218  0.70987  0.05080  1.0000
  C   C935      1.0  0.44282  0.71114  0.06463  1.0000
  C   C936      1.0  0.42738  0.71680  0.06583  1.0000
  C   C937      1.0  0.42127  0.72098  0.05322  1.0000
  C   C938      1.0  0.43057  0.71911  0.03951  1.0000
  C   C939      1.0  0.44601  0.71376  0.03827  1.0000
  H   H1562     1.0  0.44756  0.70812  0.07435  1.0000
  H   H1563     1.0  0.42023  0.71821  0.07645  1.0000
  H   H1564     1.0  0.42591  0.72191  0.02980  1.0000
  H   H1565     1.0  0.45311  0.71285  0.02758  1.0000
  H   H1566     1.0  0.44381  0.67542  0.02150  1.0000
  C   C940      1.0  0.45387  0.88140  0.02780  1.0000
  H   H1567     1.0  0.46191  0.88068  0.18727  1.0000
  C   C941      1.0  0.41726  0.86227  0.99206  1.0000
  Fe  Fe137     1.0  0.48135  0.89623  0.13599  1.0000
  C   C942      1.0  0.45826  0.74747  0.03791  1.0000
  C   C943      1.0  0.48130  0.79309  0.01951  1.0000
  H   H1568     1.0  0.48184  0.90083  0.01641  1.0000
  H   H1569     1.0  0.45846  0.76772  0.04308  1.0000
  N   N63       1.0  0.43526  0.76826  0.04472  1.0000
  H   H1570     1.0  0.48663  0.76422  0.04863  1.0000
  H   H1571     1.0  0.39011  0.94463  0.17858  1.0000
  H   H1572     1.0  0.40152  0.97615  0.18773  1.0000
  H   H1573     1.0  0.43525  0.82724  0.11737  1.0000
  H   H1574     1.0  0.46723  0.91917  0.17692  1.0000
  H   H1575     1.0  0.39687  0.95673  0.15217  1.0000
  H   H1576     1.0  0.45273  0.90366  0.00317  1.0000
  C   C944      1.0  0.48583  0.78520  0.00814  1.0000
  H   H1577     1.0  0.44287  0.85865  0.14369  1.0000
  H   H1578     1.0  0.46574  0.85422  0.13046  1.0000
  C   C945      1.0  0.48322  0.93667  0.23432  1.0000
  H   H1579     1.0  0.41386  0.86812  0.11872  1.0000
  H   H1580     1.0  0.42252  0.77870  0.02767  1.0000
  H   H1581     1.0  0.43093  0.88779  0.03968  1.0000
  C   C946      1.0  0.49539  0.94468  0.14811  1.0000
  C   C947      1.0  0.45728  0.65873  0.99908  1.0000
  C   C948      1.0  0.47036  0.89939  0.02216  1.0000
  H   H1582     1.0  0.44041  0.78842  0.04587  1.0000
  C   C949      1.0  0.37097  0.69536  0.99707  1.0000
  C   C950      1.0  0.34689  0.71997  0.99577  1.0000
  S   S282      1.0  0.47974  0.94811  0.11292  1.0000
  H   H1583     1.0  0.42545  0.87973  0.99528  1.0000
  H   H1584     1.0  0.48580  0.79112  0.99683  1.0000
  C   C951      1.0  0.45087  0.76000  0.04647  1.0000
  Fe  Fe138     1.0  0.47278  0.92658  0.11695  1.0000
  H   H1585     1.0  0.45735  0.93211  0.21871  1.0000
  C   C952      1.0  0.47427  0.86791  0.07458  1.0000
  H   H1586     1.0  0.48326  0.86666  0.20865  1.0000
  H   H1587     1.0  0.43987  0.90301  0.03240  1.0000
  N   N64       1.0  0.46073  0.67200  0.00168  1.0000
  H   H1588     1.0  0.42299  0.84504  0.13306  1.0000
  H   H1589     1.0  0.41864  0.98906  0.13423  1.0000
  H   H1590     1.0  0.41940  0.85563  0.15630  1.0000
  H   H1591     1.0  0.40714  0.94548  0.18207  1.0000
  H   H1592     1.0  0.43577  0.98089  0.14066  1.0000
  S   S283      1.0  0.43221  0.96989  0.19014  1.0000
  H   H1593     1.0  0.40985  0.86823  0.14245  1.0000
  H   H1594     1.0  0.41638  0.87548  0.15389  1.0000
  H   H1595     1.0  0.40448  0.77681  0.05431  1.0000
  H   H1596     1.0  0.44016  0.87641  0.22876  1.0000
  N   N65       1.0  0.41944  0.95770  0.15166  1.0000
  C   C953      1.0  0.46225  0.89384  0.00250  1.0000
  H   H1597     1.0  0.43242  0.96385  0.12971  1.0000
  H   H1598     1.0  0.45598  0.94344  0.15787  1.0000
  H   H1599     1.0  0.41574  0.89105  0.12386  1.0000
  C   C954      1.0  0.42472  0.75826  0.05301  1.0000
  H   H1600     1.0  0.43604  0.76255  0.02415  1.0000
  H   H1601     1.0  0.42807  0.86947  0.10274  1.0000
  N   N66       1.0  0.43637  0.86137  0.12305  1.0000
  C   C955      1.0  0.41458  0.87655  0.99772  1.0000
  H   H1602     1.0  0.47348  0.97570  0.22957  1.0000
  C   C956      1.0  0.34657  0.70723  0.99162  1.0000
  H   H1603     1.0  0.42734  0.74849  0.04798  1.0000
  H   H1604     1.0  0.42771  0.94770  0.11726  1.0000
  C   C957      1.0  0.48644  0.77010  0.03732  1.0000
  H   H1605     1.0  0.45107  0.75491  0.05831  1.0000
  H   H1606     1.0  0.40878  0.93919  0.15739  1.0000
  H   H1607     1.0  0.40123  0.75911  0.06329  1.0000
  H   H1608     1.0  0.43271  0.89186  0.10991  1.0000
  H   H1609     1.0  0.45649  0.77730  0.01851  1.0000
  C   C958      1.0  0.46513  0.85212  0.11990  1.0000
  H   H1610     1.0  0.45894  0.66035  0.02478  1.0000
  C   C959      1.0  0.45165  0.86257  0.11371  1.0000
  H   H1611     1.0  0.40483  0.76418  0.04335  1.0000
  C   C960      1.0  0.40794  0.76511  0.05333  1.0000
  C   C961      1.0  0.46915  0.89744  0.03896  1.0000
  H   H1612     1.0  0.44166  0.79343  0.02107  1.0000
  H   H1613     1.0  0.44192  0.83833  0.13429  1.0000
  H   H1614     1.0  0.43357  0.89557  0.02036  1.0000
  C   C962      1.0  0.43453  0.86612  0.13725  1.0000
  Fe  Fe139     1.0  0.39421  0.76631  0.00741  1.0000
  H   H1615     1.0  0.45287  0.86062  0.10253  1.0000
  N   N67       1.0  0.46674  0.88740  0.01727  1.0000
  C   C963      1.0  0.42489  0.87116  0.11430  1.0000
  C   C964      1.0  0.35932  0.72067  0.00037  1.0000
  H   H1616     1.0  0.41305  0.96740  0.13058  1.0000
  H   H1617     1.0  0.41928  0.77498  0.07355  1.0000
  H   H1618     1.0  0.45321  0.87400  0.11174  1.0000
  H   H1619     1.0  0.48962  0.87858  0.00683  1.0000
  C   C965      1.0  0.49019  0.76971  0.01141  1.0000
  H   H1620     1.0  0.47206  0.90027  0.17571  1.0000
  H   H1621     1.0  0.42986  0.94613  0.17036  1.0000
  C   C966      1.0  0.46294  0.68157  0.02341  1.0000
  C   C967      1.0  0.46387  0.93054  0.22684  1.0000
  C   C968      1.0  0.41917  0.86625  0.14801  1.0000
  S   S284      1.0  0.49564  0.76010  0.99700  1.0000
  H   H1622     1.0  0.46147  0.75184  0.02586  1.0000
  C   C969      1.0  0.40391  0.98617  0.18843  1.0000
  C   C970      1.0  0.47076  0.87187  0.19181  1.0000
  C   C971      1.0  0.43880  0.89277  0.03006  1.0000
  C   C972      1.0  0.45543  0.88986  0.21421  1.0000
  H   H1623     1.0  0.44324  0.78417  0.00682  1.0000
  H   H1624     1.0  0.44998  0.89994  0.21887  1.0000
  H   H1625     1.0  0.47865  0.86764  0.18222  1.0000
  S   S285      1.0  0.47498  0.79516  0.04863  1.0000
  H   H1626     1.0  0.41543  0.89409  0.10477  1.0000
  H   H1627     1.0  0.42971  0.84485  0.10574  1.0000
  H   H1628     1.0  0.38092  0.70861  0.00493  1.0000
  H   H1629     1.0  0.38010  0.68571  0.99792  1.0000
  C   C973      1.0  0.41585  0.97278  0.15538  1.0000
  H   H1630     1.0  0.44907  0.89078  0.20582  1.0000
  Fe  Fe140     1.0  0.47446  0.89913  0.10568  1.0000
  H   H1631     1.0  0.39353  0.96227  0.17672  1.0000
  H   H1632     1.0  0.43437  0.93620  0.15618  1.0000
  Fe  Fe141     1.0  0.40639  0.92823  0.21544  1.0000
  H   H1633     1.0  0.41498  0.94039  0.13296  1.0000
  H   H1634     1.0  0.43474  0.93652  0.13302  1.0000
  H   H1635     1.0  0.45151  0.95333  0.14052  1.0000
  H   H1636     1.0  0.45842  0.90416  0.04408  1.0000
  C   C974      1.0  0.48018  0.87473  0.01525  1.0000
  C   C975      1.0  0.42219  0.88795  0.11323  1.0000
  C   C976      1.0  0.48688  0.86654  0.02894  1.0000
  C   C977      1.0  0.40598  0.95096  0.15833  1.0000
  C   C978      1.0  0.44742  0.95218  0.15263  1.0000
  H   H1637     1.0  0.48082  0.97666  0.11530  1.0000
  H   H1638     1.0  0.43317  0.98190  0.10105  1.0000
  H   H1639     1.0  0.44681  0.96248  0.15601  1.0000
  H   H1640     1.0  0.46868  0.74091  0.04168  1.0000
  S   S286      1.0  0.49121  0.90660  0.11289  1.0000
  C   C979      1.0  0.46707  0.98386  0.23657  1.0000
  C   C980      1.0  0.43735  0.83858  0.11334  1.0000
  C   C981      1.0  0.42356  0.98475  0.14423  1.0000
  H   H1641     1.0  0.46534  0.84028  0.12119  1.0000
  H   H1642     1.0  0.47633  0.98696  0.16501  1.0000
  C   C982      1.0  0.48145  0.78555  0.03415  1.0000
  H   H1643     1.0  0.45579  0.69597  0.99462  1.0000
  H   H1644     1.0  0.45886  0.86579  0.22394  1.0000
  C   C983      1.0  0.44355  0.98074  0.10420  1.0000
  S   S287      1.0  0.48176  0.88669  0.08690  1.0000
  N   N68       1.0  0.47173  0.88963  0.20758  1.0000
  H   H1645     1.0  0.46269  0.91024  0.01882  1.0000
  C   C984      1.0  0.47304  0.90417  0.19691  1.0000
  H   H1646     1.0  0.45412  0.87748  0.23723  1.0000
  Fe  Fe142     1.0  0.48479  0.71045  0.02625  1.0000
  S   S288      1.0  0.39516  0.79040  0.99901  1.0000
  H   H1647     1.0  0.47793  0.80504  0.01690  1.0000
  H   H1648     1.0  0.45627  0.87608  0.03889  1.0000
  H   H1649     1.0  0.40368  0.97795  0.15657  1.0000
  S   S289      1.0  0.45642  0.85757  0.99645  1.0000
  C   C985      1.0  0.47908  0.88854  0.22004  1.0000
  C   C986      1.0  0.49048  0.76216  0.02602  1.0000
  C   C987      1.0  0.45618  0.67178  0.01805  1.0000
  H   H1650     1.0  0.33748  0.72940  0.99528  1.0000
  C   C988      1.0  0.45216  0.87649  0.22670  1.0000
  H   H1651     1.0  0.47735  0.94576  0.21304  1.0000
  H   H1652     1.0  0.47868  0.86210  0.03848  1.0000
  C   C989      1.0  0.45219  0.68629  0.99368  1.0000
  H   H1653     1.0  0.48598  0.95213  0.15413  1.0000
  C   C990      1.0  0.38339  0.84547  0.01463  1.0000
  H   H1654     1.0  0.44246  0.97846  0.21129  1.0000
  H   H1655     1.0  0.49080  0.94111  0.14059  1.0000
  H   H1656     1.0  0.49386  0.75022  0.02864  1.0000
  H   H1657     1.0  0.49584  0.85684  0.02613  1.0000
  H   H1658     1.0  0.38087  0.84197  0.02690  1.0000
  H   H1659     1.0  0.46106  0.97711  0.21256  1.0000
  H   H1660     1.0  0.47748  0.86631  0.01100  1.0000
  H   H1661     1.0  0.45818  0.88572  0.99918  1.0000
  H   H1662     1.0  0.46603  0.86234  0.19881  1.0000
  H   H1663     1.0  0.43140  0.98471  0.23509  1.0000
  H   H1664     1.0  0.47867  0.87792  0.22825  1.0000
  Fe  Fe143     1.0  0.49637  0.73569  0.00405  1.0000
  H   H1665     1.0  0.46224  0.69277  0.01620  1.0000
  H   H1666     1.0  0.38494  0.83540  0.01045  1.0000
  H   H1667     1.0  0.38728  0.87724  0.99241  1.0000
  H   H1668     1.0  0.43395  0.66765  0.99623  1.0000
  H   H1669     1.0  0.42546  0.85371  0.99803  1.0000
  Fe  Fe144     1.0  0.48964  0.71185  0.99363  1.0000
  C   C991      1.0  0.44333  0.98534  0.23066  1.0000
  S   S290      1.0  0.49618  0.94746  0.23089  1.0000
  H   H1670     1.0  0.38125  0.98959  0.23227  1.0000
  H   H1671     1.0  0.49223  0.87366  0.03218  1.0000
  S   S291      1.0  0.42412  0.95010  0.23142  1.0000
  Fe  Fe145     1.0  0.42947  0.92579  0.23230  1.0000
  H   H1672     1.0  0.33475  0.66019  0.99368  1.0000
  H   H1673     1.0  0.40606  0.84399  0.01554  1.0000
  S   S292      1.0  0.39354  0.75352  0.99144  1.0000
  H   H1674     1.0  0.39397  0.86178  0.01520  1.0000
  S   S293      1.0  0.49695  0.69376  0.01222  1.0000
  H   H1675     1.0  0.48492  0.90461  0.19230  1.0000
  Fe  Fe146     1.0  0.40035  0.94822  0.23717  1.0000
  C   C992      1.0  0.39733  0.85208  0.00992  1.0000
  H   H1676     1.0  0.49814  0.66048  0.00319  1.0000
  H   H1677     1.0  0.49014  0.87894  0.19240  1.0000
  H   H1678     1.0  0.48016  0.90622  0.99205  1.0000
  C   C993      1.0  0.49565  0.88939  0.21563  1.0000
  H   H1679     1.0  0.49708  0.90075  0.20994  1.0000
  S   S294      1.0  0.49468  0.88045  0.15222  1.0000
  S   S295      1.0  0.40575  0.92353  0.23982  1.0000
  H   H1680     1.0  0.49596  0.90899  0.15711  1.0000
  H   H1681     1.0  0.49885  0.98935  0.19984  1.0000
  H   H1682     1.0  0.41055  0.87491  0.00988  1.0000
  H   H1683     1.0  0.41909  0.83544  0.99115  1.0000
  N   N69       1.0  0.40366  0.85644  0.99356  1.0000
  H   H1684     1.0  0.40699  0.88603  0.99202  1.0000
  C   C994      1.0  0.44060  0.65832  0.00307  1.0000
  H   H1685     1.0  0.43569  0.65822  0.01495  1.0000
  H   H1686     1.0  0.40098  0.83587  0.99011  1.0000
  S   S296      1.0  0.08116  0.86997  0.41996  1.0000
  H   H1687     1.0  0.15033  0.96642  0.40309  1.0000
  H   H1688     1.0  0.36546  0.98970  0.25867  1.0000
  H   H1689     1.0  0.10454  0.74199  0.47111  1.0000
  C   C995      1.0  0.40121  0.98161  0.36494  1.0000
  H   H1690     1.0  0.00478  0.69242  0.39338  1.0000
  H   H1691     1.0  0.04885  0.67861  0.41185  1.0000
  C   C996      1.0  0.27484  0.87408  0.45569  1.0000
  H   H1692     1.0  0.45699  0.98778  0.34722  1.0000
  Fe  Fe147     1.0  0.41966  0.97492  0.30709  1.0000
  Fe  Fe148     1.0  0.06734  0.82086  0.42773  1.0000
  S   S297      1.0  0.07479  0.83027  0.44276  1.0000
  S   S298      1.0  0.08336  0.80155  0.41867  1.0000
  C   C997      1.0  0.22694  0.88194  0.45775  1.0000
  S   S299      1.0  0.06179  0.84291  0.41257  1.0000
  S   S300      1.0  0.04401  0.82181  0.44117  1.0000
  S   S301      1.0  0.13350  0.91464  0.42529  1.0000
  S   S302      1.0  0.05217  0.74604  0.48054  1.0000
  C   C998      1.0  0.04383  0.66638  0.39795  1.0000
  S   S303      1.0  0.17715  0.89984  0.41298  1.0000
  H   H1693     1.0  0.05428  0.74627  0.44590  1.0000
  Fe  Fe149     1.0  0.32429  0.97235  0.42079  1.0000
  S   S304      1.0  0.34610  0.95553  0.41841  1.0000
  S   S305      1.0  0.30935  0.96983  0.44350  1.0000
  H   H1694     1.0  0.09120  0.69862  0.45578  1.0000
  H   H1695     1.0  0.28227  0.96136  0.37145  1.0000
  H   H1696     1.0  0.04968  0.95929  0.45282  1.0000
  Fe  Fe150     1.0  0.34054  0.95368  0.39788  1.0000
  S   S306      1.0  0.34571  0.93259  0.38973  1.0000
  Fe  Fe151     1.0  0.35550  0.97475  0.40409  1.0000
  H   H1697     1.0  0.33774  0.96259  0.36180  1.0000
  S   S307      1.0  0.31786  0.96883  0.40135  1.0000
  H   H1698     1.0  0.00710  0.80186  0.41352  1.0000
  C   C999      1.0  0.08952  0.87539  0.43133  1.0000
  H   H1699     1.0  0.38445  0.96611  0.31849  1.0000
  H   H1700     1.0  0.08554  0.69684  0.43519  1.0000
  Fe  Fe152     1.0  0.24269  0.93217  0.38860  1.0000
  S   S308      1.0  0.24482  0.91795  0.41084  1.0000
  S   S309      1.0  0.21947  0.94466  0.38646  1.0000
  Fe  Fe153     1.0  0.27562  0.92674  0.37651  1.0000
  S   S310      1.0  0.28076  0.91214  0.39757  1.0000
  S   S311      1.0  0.29599  0.93031  0.35901  1.0000
  Fe  Fe154     1.0  0.26222  0.90201  0.39868  1.0000
  C   C1000     1.0  0.00912  0.69238  0.37031  1.0000
  Fe  Fe155     1.0  0.26340  0.92871  0.40860  1.0000
  S   S312      1.0  0.26900  0.93110  0.42869  1.0000
  S   S313      1.0  0.25840  0.91507  0.37616  1.0000
  S   S314      1.0  0.25972  0.94466  0.38744  1.0000
  C   C1001     1.0  0.04511  0.71011  0.43330  1.0000
  H   H1701     1.0  0.07277  0.69500  0.46458  1.0000
  S   S315      1.0  0.38527  0.96138  0.25381  1.0000
  H   H1702     1.0  0.11448  0.78165  0.44411  1.0000
  H   H1703     1.0  0.12397  0.75202  0.46525  1.0000
  H   H1704     1.0  0.07661  0.83191  0.36952  1.0000
  H   H1705     1.0  0.17089  0.87371  0.40570  1.0000
  Fe  Fe156     1.0  0.32971  0.98684  0.38825  1.0000
  C   C1002     1.0  0.06301  0.73186  0.42970  1.0000
  H   H1706     1.0  0.00657  0.73227  0.42977  1.0000
  H   H1707     1.0  0.04047  0.82851  0.40183  1.0000
  H   H1708     1.0  0.03498  0.83752  0.36762  1.0000
  H   H1709     1.0  0.06496  0.81943  0.39382  1.0000
  H   H1710     1.0  0.06448  0.66456  0.40504  1.0000
  S   S316      1.0  0.44698  0.91119  0.24445  1.0000
  S   S317      1.0  0.02396  0.70935  0.39641  1.0000
  H   H1711     1.0  0.07258  0.73742  0.42530  1.0000
  Fe  Fe157     1.0  0.01451  0.76284  0.39796  1.0000
  S   S318      1.0  0.03047  0.74323  0.40817  1.0000
  C   C1003     1.0  0.05573  0.70790  0.44376  1.0000
  Fe  Fe158     1.0  0.02951  0.75965  0.36688  1.0000
  S   S319      1.0  0.04723  0.73994  0.37399  1.0000
  S   S320      1.0  0.02854  0.77030  0.34315  1.0000
  Fe  Fe159     1.0  0.02829  0.73224  0.39124  1.0000
  H   H1712     1.0  0.38431  0.93168  0.34443  1.0000
  Fe  Fe160     1.0  0.04797  0.75260  0.39024  1.0000
  S   S321      1.0  0.07004  0.75267  0.39438  1.0000
  S   S322      1.0  0.01049  0.75102  0.38305  1.0000
  S   S323      1.0  0.03221  0.77305  0.38133  1.0000
  C   C1004     1.0  0.00192  0.84983  0.42592  1.0000
  H   H1713     1.0  0.01477  0.82602  0.40774  1.0000
  H   H1714     1.0  0.07736  0.81711  0.36107  1.0000
  H   H1715     1.0  0.09524  0.98262  0.41117  1.0000
  H   H1716     1.0  0.49742  0.97305  0.34129  1.0000
  H   H1717     1.0  0.03621  0.85139  0.38505  1.0000
  C   C1005     1.0  0.30805  0.97298  0.47113  1.0000
  C   C1006     1.0  0.07702  0.81992  0.37157  1.0000
  H   H1718     1.0  0.01658  0.79505  0.32184  1.0000
  N   N70       1.0  0.04850  0.82023  0.38145  1.0000
  H   H1719     1.0  0.08811  0.79062  0.48189  1.0000
  H   H1720     1.0  0.05927  0.73186  0.41980  1.0000
  H   H1721     1.0  0.23137  0.88183  0.41486  1.0000
  H   H1722     1.0  0.16050  0.96714  0.44129  1.0000
  H   H1723     1.0  0.18928  0.88385  0.44183  1.0000
  S   S324      1.0  0.26641  0.87796  0.40997  1.0000
  N   N71       1.0  0.09580  0.77372  0.45954  1.0000
  C   C1007     1.0  0.45111  0.96136  0.26773  1.0000
  C   C1008     1.0  0.10495  0.89075  0.43343  1.0000
  Fe  Fe161     1.0  0.12983  0.93624  0.43174  1.0000
  C   C1009     1.0  0.26710  0.94939  0.42962  1.0000
  C   C1010     1.0  0.26457  0.95263  0.44350  1.0000
  C   C1011     1.0  0.26276  0.96713  0.44479  1.0000
  C   C1012     1.0  0.26330  0.97849  0.43218  1.0000
  C   C1013     1.0  0.26581  0.97535  0.41820  1.0000
  C   C1014     1.0  0.26783  0.96070  0.41689  1.0000
  H   H1724     1.0  0.26350  0.94398  0.45332  1.0000
  C   C1015     1.0  0.00594  0.77924  0.42335  1.0000
  H   H1725     1.0  0.28953  0.94532  0.48210  1.0000
  H   H1726     1.0  0.27001  0.95818  0.40612  1.0000
  H   H1727     1.0  0.00986  0.83877  0.44583  1.0000
  C   C1016     1.0  0.39883  0.96795  0.28741  1.0000
  C   C1017     1.0  0.39102  0.96965  0.27643  1.0000
  C   C1018     1.0  0.39455  0.95878  0.26811  1.0000
  H   H1728     1.0  0.08482  0.74586  0.47187  1.0000
  C   C1019     1.0  0.39043  0.97808  0.37780  1.0000
  H   H1729     1.0  0.17848  0.85857  0.42787  1.0000
  H   H1730     1.0  0.38243  0.97950  0.27431  1.0000
  H   H1731     1.0  0.04591  0.75215  0.43023  1.0000
  H   H1732     1.0  0.39399  0.94215  0.32835  1.0000
  H   H1733     1.0  0.27124  0.94580  0.48044  1.0000
  C   C1020     1.0  0.04638  0.84830  0.37661  1.0000
  C   C1021     1.0  0.28845  0.92848  0.47125  1.0000
  H   H1734     1.0  0.03594  0.67589  0.39256  1.0000
  C   C1022     1.0  0.01738  0.69713  0.35621  1.0000
  C   C1023     1.0  0.01018  0.77835  0.34080  1.0000
  H   H1735     1.0  0.03360  0.66732  0.43450  1.0000
  H   H1736     1.0  0.07232  0.69879  0.41605  1.0000
  S   S325      1.0  0.23933  0.90132  0.47542  1.0000
  C   C1024     1.0  0.33186  0.93220  0.38113  1.0000
  C   C1025     1.0  0.33593  0.92662  0.36822  1.0000
  C   C1026     1.0  0.32491  0.92645  0.36119  1.0000
  C   C1027     1.0  0.30978  0.93113  0.36747  1.0000
  C   C1028     1.0  0.30573  0.93613  0.38069  1.0000
  C   C1029     1.0  0.31676  0.93701  0.38729  1.0000
  H   H1737     1.0  0.34759  0.92263  0.36355  1.0000
  H   H1738     1.0  0.32807  0.92237  0.35107  1.0000
  H   H1739     1.0  0.29409  0.93944  0.38584  1.0000
  H   H1740     1.0  0.31351  0.94108  0.39738  1.0000
  S   S326      1.0  0.15250  0.89997  0.45179  1.0000
  S   S327      1.0  0.15380  0.93354  0.43174  1.0000
  C   C1030     1.0  0.17097  0.90298  0.48231  1.0000
  C   C1031     1.0  0.09782  0.98288  0.42137  1.0000
  H   H1741     1.0  0.09093  0.71395  0.42641  1.0000
  H   H1742     1.0  0.29779  0.90609  0.44565  1.0000
  H   H1743     1.0  0.08832  0.94393  0.46116  1.0000
  C   C1032     1.0  0.39291  0.94833  0.34837  1.0000
  H   H1744     1.0  0.46828  0.97327  0.32349  1.0000
  H   H1745     1.0  0.13585  0.97674  0.41433  1.0000
  C   C1033     1.0  0.07976  0.70638  0.41426  1.0000
  H   H1746     1.0  0.01060  0.66299  0.39508  1.0000
  S   S328      1.0  0.27760  0.87274  0.47335  1.0000
  C   C1034     1.0  0.19444  0.87281  0.44783  1.0000
  C   C1035     1.0  0.18298  0.97288  0.48672  1.0000
  C   C1036     1.0  0.13648  0.98518  0.39125  1.0000
  C   C1037     1.0  0.02387  0.67283  0.42936  1.0000
  C   C1038     1.0  0.02704  0.70637  0.35435  1.0000
  C   C1039     1.0  0.18879  0.91230  0.40419  1.0000
  C   C1040     1.0  0.20426  0.90697  0.40051  1.0000
  C   C1041     1.0  0.21374  0.91690  0.39498  1.0000
  C   C1042     1.0  0.20771  0.93219  0.39271  1.0000
  C   C1043     1.0  0.19221  0.93753  0.39571  1.0000
  C   C1044     1.0  0.18276  0.92759  0.40144  1.0000
  H   H1747     1.0  0.20894  0.89518  0.40219  1.0000
  H   H1748     1.0  0.22570  0.91270  0.39238  1.0000
  H   H1749     1.0  0.18753  0.94932  0.39370  1.0000
  H   H1750     1.0  0.17081  0.93175  0.40346  1.0000
  C   C1045     1.0  0.09174  0.76849  0.44803  1.0000
  C   C1046     1.0  0.09762  0.88650  0.42497  1.0000
  H   H1751     1.0  0.11128  0.89913  0.42831  1.0000
  H   H1752     1.0  0.09831  0.89173  0.41339  1.0000
  C   C1047     1.0  0.07847  0.78802  0.41284  1.0000
  C   C1048     1.0  0.09013  0.77833  0.40548  1.0000
  C   C1049     1.0  0.08719  0.76763  0.40006  1.0000
  C   C1050     1.0  0.07253  0.76654  0.40168  1.0000
  C   C1051     1.0  0.06070  0.77606  0.40927  1.0000
  C   C1052     1.0  0.06370  0.78667  0.41509  1.0000
  H   H1753     1.0  0.10155  0.77922  0.40379  1.0000
  H   H1754     1.0  0.09638  0.76029  0.39431  1.0000
  H   H1755     1.0  0.04931  0.77514  0.41083  1.0000
  H   H1756     1.0  0.05467  0.79379  0.42124  1.0000
  S   S329      1.0  0.11389  0.88865  0.45919  1.0000
  H   H1757     1.0  0.32613  0.92746  0.45807  1.0000
  H   H1758     1.0  0.31320  0.93698  0.42258  1.0000
  H   H1759     1.0  0.21934  0.88904  0.46540  1.0000
  C   C1053     1.0  0.11144  0.97154  0.44103  1.0000
  C   C1054     1.0  0.10812  0.97114  0.42782  1.0000
  H   H1760     1.0  0.01111  0.81082  0.45980  1.0000
  H   H1761     1.0  0.05093  0.66064  0.38893  1.0000
  C   C1055     1.0  0.29262  0.97668  0.37552  1.0000
  H   H1762     1.0  0.11937  0.96244  0.44609  1.0000
  H   H1763     1.0  0.17187  0.98244  0.41865  1.0000
  C   C1056     1.0  0.00850  0.70893  0.46891  1.0000
  C   C1057     1.0  0.02387  0.74696  0.31979  1.0000
  N   N72       1.0  0.07687  0.93783  0.44795  1.0000
  H   H1764     1.0  0.01524  0.67315  0.41101  1.0000
  H   H1765     1.0  0.14575  0.96648  0.46827  1.0000
  C   C1058     1.0  0.02299  0.78048  0.44227  1.0000
  H   H1766     1.0  0.05654  0.97477  0.44065  1.0000
  H   H1767     1.0  0.14403  0.98353  0.38051  1.0000
  H   H1768     1.0  0.23281  0.96400  0.40271  1.0000
  H   H1769     1.0  0.01725  0.81830  0.39215  1.0000
  C   C1059     1.0  0.01892  0.79293  0.43138  1.0000
  S   S330      1.0  0.11669  0.95630  0.41887  1.0000
  C   C1060     1.0  0.30196  0.93329  0.44561  1.0000
  H   H1770     1.0  0.02234  0.80303  0.43035  1.0000
  H   H1771     1.0  0.40848  0.93751  0.26474  1.0000
  Fe  Fe162     1.0  0.06723  0.85255  0.42879  1.0000
  N   N73       1.0  0.32204  0.88177  0.40142  1.0000
  C   C1061     1.0  0.31867  0.89808  0.40123  1.0000
  C   C1062     1.0  0.33080  0.87949  0.38625  1.0000
  C   C1063     1.0  0.33116  0.87283  0.41275  1.0000
  C   C1064     1.0  0.30756  0.87681  0.40539  1.0000
  C   C1065     1.0  0.31077  0.90270  0.41610  1.0000
  C   C1066     1.0  0.32175  0.88455  0.37394  1.0000
  C   C1067     1.0  0.34579  0.87743  0.41136  1.0000
  C   C1068     1.0  0.30895  0.86033  0.40581  1.0000
  H   H1772     1.0  0.32902  0.90243  0.39711  1.0000
  H   H1773     1.0  0.31161  0.90455  0.39318  1.0000
  H   H1774     1.0  0.33663  0.86768  0.38645  1.0000
  H   H1775     1.0  0.33996  0.88558  0.38232  1.0000
  H   H1776     1.0  0.32444  0.87308  0.42418  1.0000
  H   H1777     1.0  0.33437  0.86091  0.41219  1.0000
  H   H1778     1.0  0.30125  0.87848  0.41660  1.0000
  H   H1779     1.0  0.29979  0.88373  0.39809  1.0000
  H   H1780     1.0  0.29958  0.90013  0.42044  1.0000
  H   H1781     1.0  0.31765  0.89775  0.42457  1.0000
  H   H1782     1.0  0.30883  0.91492  0.41432  1.0000
  H   H1783     1.0  0.31384  0.87744  0.37566  1.0000
  H   H1784     1.0  0.31555  0.89629  0.37291  1.0000
  H   H1785     1.0  0.32955  0.88359  0.36313  1.0000
  H   H1786     1.0  0.35179  0.86972  0.41988  1.0000
  H   H1787     1.0  0.34369  0.88872  0.41337  1.0000
  H   H1788     1.0  0.35340  0.87674  0.40044  1.0000
  H   H1789     1.0  0.30929  0.85356  0.41716  1.0000
  H   H1790     1.0  0.31886  0.85555  0.39803  1.0000
  H   H1791     1.0  0.29911  0.85923  0.40249  1.0000
  H   H1792     1.0  0.06731  0.80308  0.38775  1.0000
  N   N74       1.0  0.06794  0.71641  0.43836  1.0000
  H   H1793     1.0  0.28623  0.97850  0.32782  1.0000
  C   C1069     1.0  0.39037  0.98178  0.39095  1.0000
  C   C1070     1.0  0.46673  0.96959  0.33563  1.0000
  C   C1071     1.0  0.17203  0.91778  0.47718  1.0000
  H   H1794     1.0  0.02773  0.66248  0.38095  1.0000
  H   H1795     1.0  0.13469  0.76116  0.44902  1.0000
  C   C1072     1.0  0.37740  0.96389  0.46039  1.0000
  H   H1796     1.0  0.34329  0.97502  0.34511  1.0000
  H   H1797     1.0  0.21659  0.98168  0.45108  1.0000
  Fe  Fe163     1.0  0.03208  0.76290  0.47437  1.0000
  H   H1798     1.0  0.06935  0.94342  0.46960  1.0000
  N   N75       1.0  0.15550  0.98607  0.40545  1.0000
  C   C1073     1.0  0.00519  0.72826  0.31706  1.0000
  S   S331      1.0  0.40236  0.98716  0.32310  1.0000
  C   C1074     1.0  0.16329  0.97712  0.41786  1.0000
  H   H1799     1.0  0.01409  0.67322  0.43882  1.0000
  S   S332      1.0  0.37659  0.97844  0.40704  1.0000
  H   H1800     1.0  0.26500  0.96552  0.35605  1.0000
  C   C1075     1.0  0.26156  0.98760  0.37024  1.0000
  H   H1801     1.0  0.32021  0.90568  0.45577  1.0000
  H   H1802     1.0  0.39552  0.95431  0.44397  1.0000
  C   C1076     1.0  0.00028  0.84250  0.44076  1.0000
  C   C1077     1.0  0.02113  0.82597  0.39619  1.0000
  H   H1803     1.0  0.47884  0.97102  0.25440  1.0000
  H   H1804     1.0  0.06285  0.96685  0.45745  1.0000
  H   H1805     1.0  0.11540  0.77836  0.46301  1.0000
  H   H1806     1.0  0.06051  0.69580  0.44692  1.0000
  H   H1807     1.0  0.09602  0.77462  0.43673  1.0000
  H   H1808     1.0  0.14709  0.87024  0.45307  1.0000
  C   C1078     1.0  0.07966  0.70335  0.46130  1.0000
  C   C1079     1.0  0.22072  0.98216  0.43902  1.0000
  H   H1809     1.0  0.49049  0.95948  0.29841  1.0000
  H   H1810     1.0  0.39616  0.97652  0.29360  1.0000
  H   H1811     1.0  0.37230  0.97201  0.48777  1.0000
  H   H1812     1.0  0.04833  0.71109  0.45403  1.0000
  H   H1813     1.0  0.45965  0.96493  0.27084  1.0000
  C   C1080     1.0  0.47581  0.97974  0.28971  1.0000
  H   H1814     1.0  0.02457  0.68441  0.42378  1.0000
  H   H1815     1.0  0.17483  0.84211  0.42485  1.0000
  C   C1081     1.0  0.06779  0.91364  0.45177  1.0000
  C   C1082     1.0  0.21407  0.89496  0.43761  1.0000
  C   C1083     1.0  0.19221  0.95050  0.44450  1.0000
  H   H1816     1.0  0.19986  0.91696  0.43714  1.0000
  H   H1817     1.0  0.45311  0.94910  0.27139  1.0000
  H   H1818     1.0  0.00620  0.83810  0.48866  1.0000
  H   H1819     1.0  0.14981  0.89598  0.40502  1.0000
  H   H1820     1.0  0.06907  0.76679  0.46112  1.0000
  H   H1821     1.0  0.06930  0.78168  0.44518  1.0000
  H   H1822     1.0  0.03413  0.81254  0.37260  1.0000
  H   H1823     1.0  0.18510  0.93338  0.47467  1.0000
  Fe  Fe164     1.0  0.03878  0.84467  0.42706  1.0000
  H   H1824     1.0  0.09720  0.75672  0.44791  1.0000
  H   H1825     1.0  0.03626  0.71762  0.36505  1.0000
  H   H1826     1.0  0.27619  0.96479  0.32992  1.0000
  H   H1827     1.0  0.32474  0.93611  0.43457  1.0000
  H   H1828     1.0  0.46720  0.91142  0.26165  1.0000
  C   C1084     1.0  0.23389  0.86756  0.46784  1.0000
  H   H1829     1.0  0.30347  0.88951  0.45855  1.0000
  H   H1830     1.0  0.05237  0.77635  0.48244  1.0000
  H   H1831     1.0  0.01479  0.67224  0.48503  1.0000
  C   C1085     1.0  0.46106  0.92082  0.24053  1.0000
  C   C1086     1.0  0.14679  0.97289  0.47580  1.0000
  C   C1087     1.0  0.01019  0.76679  0.43407  1.0000
  H   H1832     1.0  0.03008  0.73699  0.31523  1.0000
  H   H1833     1.0  0.31252  0.94256  0.46343  1.0000
  S   S333      1.0  0.43898  0.97877  0.31330  1.0000
  C   C1088     1.0  0.38553  0.94318  0.33882  1.0000
  C   C1089     1.0  0.10448  0.98384  0.44766  1.0000
  H   H1834     1.0  0.30915  0.90283  0.47382  1.0000
  H   H1835     1.0  0.10694  0.98418  0.45788  1.0000
  C   C1090     1.0  0.45154  0.96563  0.25093  1.0000
  H   H1836     1.0  0.47487  0.95891  0.33814  1.0000
  H   H1837     1.0  0.00030  0.76268  0.35855  1.0000
  C   C1091     1.0  0.09071  0.93144  0.42259  1.0000
  C   C1092     1.0  0.41192  0.98881  0.36525  1.0000
  S   S334      1.0  0.35199  0.97142  0.38336  1.0000
  H   H1838     1.0  0.26644  0.98416  0.40844  1.0000
  S   S335      1.0  0.03377  0.78101  0.45406  1.0000
  H   H1839     1.0  0.43989  0.96592  0.27406  1.0000
  H   H1840     1.0  0.19911  0.88015  0.46495  1.0000
  H   H1841     1.0  0.35380  0.95129  0.32529  1.0000
  N   N76       1.0  0.21657  0.95946  0.43258  1.0000
  C   C1093     1.0  0.22470  0.94407  0.43040  1.0000
  C   C1094     1.0  0.21125  0.96807  0.41859  1.0000
  C   C1095     1.0  0.20324  0.95913  0.44528  1.0000
  C   C1096     1.0  0.22718  0.96647  0.43588  1.0000
  C   C1097     1.0  0.22954  0.93286  0.44410  1.0000
  C   C1098     1.0  0.22330  0.97326  0.40536  1.0000
  H   H1842     1.0  0.28799  0.92046  0.48204  1.0000
  Fe  Fe165     1.0  0.24055  0.92048  0.48354  1.0000
  H   H1843     1.0  0.21792  0.93908  0.42618  1.0000
  H   H1844     1.0  0.23509  0.94456  0.42174  1.0000
  H   H1845     1.0  0.20228  0.97800  0.42060  1.0000
  H   H1846     1.0  0.20599  0.96138  0.41457  1.0000
  H   H1847     1.0  0.03971  0.80998  0.40402  1.0000
  H   H1848     1.0  0.04088  0.73689  0.44450  1.0000
  H   H1849     1.0  0.10099  0.92414  0.41750  1.0000
  H   H1850     1.0  0.23747  0.96654  0.42708  1.0000
  C   C1099     1.0  0.36468  0.94492  0.32802  1.0000
  N   N77       1.0  0.16633  0.97605  0.48806  1.0000
  H   H1851     1.0  0.22032  0.93189  0.45395  1.0000
  H   H1852     1.0  0.00705  0.75659  0.43501  1.0000
  H   H1853     1.0  0.29055  0.96037  0.33984  1.0000
  H   H1854     1.0  0.39365  0.96006  0.34421  1.0000
  H   H1855     1.0  0.01373  0.72112  0.32345  1.0000
  H   H1856     1.0  0.20930  0.86222  0.46263  1.0000
  H   H1857     1.0  0.19712  0.93846  0.44627  1.0000
  H   H1858     1.0  0.30773  0.92004  0.48930  1.0000
  C   C1100     1.0  0.05437  0.67305  0.40250  1.0000
  C   C1101     1.0  0.27731  0.86130  0.45023  1.0000
  H   H1859     1.0  0.00217  0.70793  0.31374  1.0000
  C   C1102     1.0  0.01098  0.69639  0.38256  1.0000
  H   H1860     1.0  0.47178  0.97449  0.35372  1.0000
  C   C1103     1.0  0.31499  0.93031  0.46539  1.0000
  C   C1104     1.0  0.06407  0.93074  0.44978  1.0000
  N   N78       1.0  0.15050  0.86606  0.41684  1.0000
  C   C1105     1.0  0.14212  0.87627  0.40527  1.0000
  C   C1106     1.0  0.14549  0.85166  0.42123  1.0000
  C   C1107     1.0  0.16693  0.86321  0.40970  1.0000
  C   C1108     1.0  0.14737  0.87350  0.42969  1.0000
  C   C1109     1.0  0.14740  0.89071  0.39731  1.0000
  C   C1110     1.0  0.12843  0.85307  0.42620  1.0000
  C   C1111     1.0  0.17770  0.85297  0.41953  1.0000
  C   C1112     1.0  0.14800  0.86335  0.44515  1.0000
  H   H1861     1.0  0.14264  0.87044  0.39652  1.0000
  H   H1862     1.0  0.13002  0.87972  0.41022  1.0000
  H   H1863     1.0  0.15059  0.84379  0.43027  1.0000
  H   H1864     1.0  0.14936  0.84585  0.41182  1.0000
  H   H1865     1.0  0.16899  0.85855  0.39972  1.0000
  H   H1866     1.0  0.15516  0.88089  0.42756  1.0000
  H   H1867     1.0  0.13608  0.88101  0.43098  1.0000
  H   H1868     1.0  0.13854  0.89878  0.39191  1.0000
  H   H1869     1.0  0.15752  0.88866  0.38846  1.0000
  H   H1870     1.0  0.12317  0.86057  0.43402  1.0000
  H   H1871     1.0  0.12291  0.85713  0.41660  1.0000
  H   H1872     1.0  0.12604  0.84203  0.43185  1.0000
  H   H1873     1.0  0.18910  0.85069  0.41249  1.0000
  H   H1874     1.0  0.13839  0.85797  0.44953  1.0000
  C   C1113     1.0  0.35362  0.94855  0.45997  1.0000
  C   C1114     1.0  0.26949  0.97518  0.34883  1.0000
  C   C1115     1.0  0.02168  0.66461  0.41865  1.0000
  H   H1875     1.0  0.29303  0.93039  0.44236  1.0000
  C   C1116     1.0  0.14461  0.97802  0.40420  1.0000
  H   H1876     1.0  0.07757  0.90755  0.45668  1.0000
  H   H1877     1.0  0.14296  0.98476  0.47095  1.0000
  C   C1117     1.0  0.09598  0.87302  0.45481  1.0000
  H   H1878     1.0  0.36096  0.98906  0.31620  1.0000
  S   S336      1.0  0.01599  0.69144  0.34086  1.0000
  C   C1118     1.0  0.30861  0.90870  0.46220  1.0000
  H   H1879     1.0  0.00157  0.68532  0.37180  1.0000
  H   H1880     1.0  0.18513  0.86834  0.45589  1.0000
  H   H1881     1.0  0.26021  0.98267  0.34371  1.0000
  C   C1119     1.0  0.36196  0.97713  0.31683  1.0000
  C   C1120     1.0  0.00738  0.79064  0.32934  1.0000
  C   C1121     1.0  0.35238  0.96542  0.45568  1.0000
  H   H1882     1.0  0.09074  0.94279  0.41578  1.0000
  C   C1122     1.0  0.37490  0.94090  0.31352  1.0000
  Fe  Fe166     1.0  0.14761  0.92298  0.45566  1.0000
  H   H1883     1.0  0.08964  0.79662  0.44808  1.0000
  Fe  Fe167     1.0  0.15697  0.91091  0.42780  1.0000
  H   H1884     1.0  0.29924  0.96693  0.38199  1.0000
  N   N79       1.0  0.36099  0.97125  0.46298  1.0000
  C   C1123     1.0  0.46943  0.91890  0.25105  1.0000
  H   H1885     1.0  0.01250  0.82369  0.46947  1.0000
  H   H1886     1.0  0.05896  0.93521  0.43986  1.0000
  H   H1887     1.0  0.37899  0.95047  0.30586  1.0000
  C   C1124     1.0  0.49436  0.98083  0.33109  1.0000
  H   H1888     1.0  0.22935  0.85767  0.44349  1.0000
  Fe  Fe168     1.0  0.05087  0.83322  0.45498  1.0000
  C   C1125     1.0  0.35863  0.98790  0.45789  1.0000
  C   C1126     1.0  0.04523  0.80864  0.37568  1.0000
  H   H1889     1.0  0.34736  0.94569  0.45334  1.0000
  H   H1890     1.0  0.18841  0.95429  0.43391  1.0000
  H   H1891     1.0  0.48656  0.92584  0.25633  1.0000
  C   C1127     1.0  0.05637  0.80380  0.36203  1.0000
  H   H1892     1.0  0.02377  0.74465  0.33176  1.0000
  H   H1893     1.0  0.19292  0.90361  0.45234  1.0000
  H   H1894     1.0  0.23613  0.88769  0.45150  1.0000
  H   H1895     1.0  0.04465  0.79834  0.38446  1.0000
  H   H1896     1.0  0.44170  0.96222  0.24988  1.0000
  H   H1897     1.0  0.00165  0.79490  0.48410  1.0000
  H   H1898     1.0  0.26048  0.96959  0.45563  1.0000
  H   H1899     1.0  0.27034  0.98863  0.46268  1.0000
  H   H1900     1.0  0.05827  0.68166  0.39301  1.0000
  C   C1128     1.0  0.06420  0.81533  0.38432  1.0000
  H   H1901     1.0  0.29636  0.96757  0.35666  1.0000
  H   H1902     1.0  0.05798  0.81332  0.35268  1.0000
  H   H1903     1.0  0.06721  0.79718  0.36481  1.0000
  H   H1904     1.0  0.04673  0.85811  0.36731  1.0000
  H   H1905     1.0  0.05188  0.79637  0.35819  1.0000
  C   C1129     1.0  0.15348  0.97468  0.43355  1.0000
  C   C1130     1.0  0.31617  0.93107  0.43339  1.0000
  H   H1906     1.0  0.38700  0.94656  0.36016  1.0000
  H   H1907     1.0  0.03033  0.75567  0.31439  1.0000
  H   H1908     1.0  0.36228  0.93442  0.33557  1.0000
  C   C1131     1.0  0.27020  0.88796  0.44695  1.0000
  C   C1132     1.0  0.07486  0.77009  0.44953  1.0000
  N   N80       1.0  0.30354  0.92520  0.46113  1.0000
  H   H1909     1.0  0.07317  0.76314  0.44289  1.0000
  H   H1910     1.0  0.37945  0.95220  0.46670  1.0000
  H   H1911     1.0  0.49307  0.94036  0.28311  1.0000
  C   C1133     1.0  0.01034  0.79231  0.42191  1.0000
  S   S337      1.0  0.41904  0.95267  0.30476  1.0000
  C   C1134     1.0  0.02862  0.71066  0.36658  1.0000
  H   H1912     1.0  0.00326  0.76312  0.32109  1.0000
  H   H1913     1.0  0.38459  0.93162  0.31566  1.0000
  H   H1914     1.0  0.26487  0.89991  0.42623  1.0000
  H   H1915     1.0  0.36853  0.93715  0.30770  1.0000
  C   C1135     1.0  0.03798  0.82099  0.39629  1.0000
  C   C1136     1.0  0.07958  0.93769  0.46274  1.0000
  H   H1916     1.0  0.40453  0.94160  0.34800  1.0000
  H   H1917     1.0  0.18212  0.95217  0.45341  1.0000
  S   S338      1.0  0.12308  0.92748  0.45607  1.0000
  H   H1918     1.0  0.03446  0.71808  0.43654  1.0000
  H   H1919     1.0  0.13910  0.96982  0.48650  1.0000
  H   H1920     1.0  0.08272  0.95899  0.43724  1.0000
  H   H1921     1.0  0.42160  0.93404  0.28485  1.0000
  C   C1137     1.0  0.26995  0.87640  0.42748  1.0000
  S   S339      1.0  0.01945  0.85279  0.41535  1.0000
  C   C1138     1.0  0.37345  0.96776  0.32638  1.0000
  Fe  Fe169     1.0  0.12849  0.90540  0.44963  1.0000
  C   C1139     1.0  0.08864  0.86871  0.44633  1.0000
  C   C1140     1.0  0.10426  0.88398  0.44838  1.0000
  H   H1922     1.0  0.08101  0.92779  0.42180  1.0000
  C   C1141     1.0  0.28149  0.96950  0.33596  1.0000
  H   H1923     1.0  0.01146  0.73093  0.30541  1.0000
  H   H1924     1.0  0.21153  0.98854  0.43336  1.0000
  N   N81       1.0  0.37077  0.95296  0.33566  1.0000
  S   S340      1.0  0.04362  0.85629  0.44199  1.0000
  H   H1925     1.0  0.08239  0.86017  0.45136  1.0000
  H   H1926     1.0  0.08783  0.81398  0.37485  1.0000
  N   N82       1.0  0.47904  0.99071  0.33448  1.0000
  H   H1927     1.0  0.19669  0.97060  0.44598  1.0000
  C   C1142     1.0  0.05027  0.74221  0.43827  1.0000
  C   C1143     1.0  0.07293  0.95386  0.44006  1.0000
  C   C1144     1.0  0.29862  0.90160  0.45735  1.0000
  H   H1928     1.0  0.45521  0.96768  0.33961  1.0000
  C   C1145     1.0  0.12335  0.75903  0.45408  1.0000
  H   H1929     1.0  0.36010  0.94362  0.35784  1.0000
  N   N83       1.0  0.45139  0.98165  0.24315  1.0000
  C   C1146     1.0  0.28317  0.94410  0.47463  1.0000
  H   H1930     1.0  0.37428  0.97478  0.33345  1.0000
  S   S341      1.0  0.15820  0.93128  0.46905  1.0000
  H   H1931     1.0  0.27969  0.92700  0.46652  1.0000
  H   H1932     1.0  0.39023  0.97422  0.43925  1.0000
  C   C1147     1.0  0.20557  0.87366  0.45635  1.0000
  C   C1148     1.0  0.40568  0.94599  0.27109  1.0000
  N   N84       1.0  0.21880  0.87996  0.44724  1.0000
  H   H1933     1.0  0.24133  0.87014  0.43662  1.0000
  H   H1934     1.0  0.02192  0.75780  0.45167  1.0000
  H   H1935     1.0  0.08149  0.80791  0.47050  1.0000
  H   H1936     1.0  0.09532  0.86773  0.46638  1.0000
  H   H1937     1.0  0.08059  0.72528  0.44817  1.0000
  H   H1938     1.0  0.36461  0.96075  0.35610  1.0000
  H   H1939     1.0  0.05415  0.83484  0.36020  1.0000
  H   H1940     1.0  0.35555  0.96831  0.44344  1.0000
  C   C1149     1.0  0.46829  0.98108  0.34329  1.0000
  H   H1941     1.0  0.01805  0.83742  0.38976  1.0000
  C   C1150     1.0  0.05032  0.81009  0.48832  1.0000
  H   H1942     1.0  0.08036  0.76870  0.48045  1.0000
  H   H1943     1.0  0.19966  0.86517  0.44016  1.0000
  H   H1944     1.0  0.14444  0.96919  0.43449  1.0000
  C   C1151     1.0  0.09206  0.76446  0.47494  1.0000
  H   H1945     1.0  0.22736  0.98208  0.40738  1.0000
  C   C1152     1.0  0.28645  0.97141  0.36507  1.0000
  C   C1153     1.0  0.09118  0.93058  0.43874  1.0000
  H   H1946     1.0  0.07601  0.71706  0.40680  1.0000
  H   H1947     1.0  0.00698  0.79474  0.37126  1.0000
  C   C1154     1.0  0.47671  0.98238  0.24758  1.0000
  H   H1948     1.0  0.23557  0.86225  0.41703  1.0000
  S   S342      1.0  0.23426  0.94466  0.47366  1.0000
  H   H1949     1.0  0.24180  0.85940  0.46155  1.0000
  C   C1155     1.0  0.34410  0.96309  0.35018  1.0000
  H   H1950     1.0  0.05502  0.93371  0.45933  1.0000
  H   H1951     1.0  0.04838  0.80267  0.46992  1.0000
  H   H1952     1.0  0.37929  0.96272  0.43707  1.0000
  H   H1953     1.0  0.07504  0.79034  0.46195  1.0000
  C   C1156     1.0  0.22790  0.87161  0.42188  1.0000
  H   H1954     1.0  0.20839  0.89424  0.42928  1.0000
  C   C1157     1.0  0.26801  0.88910  0.43284  1.0000
  H   H1955     1.0  0.15849  0.85479  0.44549  1.0000
  H   H1956     1.0  0.23398  0.92167  0.44153  1.0000
  H   H1957     1.0  0.20872  0.91042  0.45258  1.0000
  H   H1958     1.0  0.21647  0.87200  0.42107  1.0000
  H   H1959     1.0  0.02298  0.80478  0.47270  1.0000
  H   H1960     1.0  0.22409  0.89934  0.43113  1.0000
  H   H1961     1.0  0.09085  0.70110  0.40825  1.0000
  H   H1962     1.0  0.27627  0.85256  0.43217  1.0000
  H   H1963     1.0  0.46645  0.97470  0.29194  1.0000
  C   C1158     1.0  0.22960  0.86939  0.43792  1.0000
  H   H1964     1.0  0.00920  0.75651  0.30440  1.0000
  H   H1965     1.0  0.09508  0.91876  0.44371  1.0000
  H   H1966     1.0  0.24221  0.98131  0.36739  1.0000
  H   H1967     1.0  0.26851  0.89792  0.45095  1.0000
  H   H1968     1.0  0.23883  0.93551  0.44693  1.0000
  C   C1159     1.0  0.02004  0.71261  0.47245  1.0000
  H   H1969     1.0  0.17020  0.97192  0.46609  1.0000
  C   C1160     1.0  0.02084  0.70541  0.38078  1.0000
  C   C1161     1.0  0.08155  0.70827  0.42904  1.0000
  H   H1970     1.0  0.23152  0.95971  0.44576  1.0000
  C   C1162     1.0  0.27465  0.86245  0.43622  1.0000
  H   H1971     1.0  0.30413  0.96288  0.47501  1.0000
  C   C1163     1.0  0.20331  0.90700  0.44562  1.0000
  H   H1972     1.0  0.17194  0.97541  0.38868  1.0000
  H   H1973     1.0  0.40124  0.97874  0.35484  1.0000
  C   C1164     1.0  0.01851  0.76750  0.44362  1.0000
  H   H1974     1.0  0.44791  0.98953  0.26324  1.0000
  S   S343      1.0  0.04365  0.70678  0.48579  1.0000
  H   H1975     1.0  0.07005  0.95479  0.42932  1.0000
  C   C1165     1.0  0.04592  0.83498  0.37086  1.0000
  H   H1976     1.0  0.36863  0.98970  0.43394  1.0000
  C   C1166     1.0  0.35466  0.96784  0.47946  1.0000
  H   H1977     1.0  0.00094  0.71346  0.42181  1.0000
  H   H1978     1.0  0.28722  0.90286  0.46442  1.0000
  C   C1167     1.0  0.36041  0.95469  0.35037  1.0000
  H   H1979     1.0  0.04187  0.69950  0.43482  1.0000
  C   C1168     1.0  0.41310  0.94401  0.28250  1.0000
  H   H1980     1.0  0.09143  0.74239  0.48834  1.0000
  H   H1981     1.0  0.10038  0.93571  0.43829  1.0000
  H   H1982     1.0  0.20681  0.95455  0.45605  1.0000
  H   H1983     1.0  0.05630  0.84622  0.38136  1.0000
  H   H1984     1.0  0.48779  0.98448  0.24124  1.0000
  H   H1985     1.0  0.32093  0.91930  0.43282  1.0000
  H   H1986     1.0  0.30035  0.98398  0.36912  1.0000
  H   H1987     1.0  0.06277  0.72329  0.45927  1.0000
  H   H1988     1.0  0.03343  0.71011  0.34344  1.0000
  C   C1169     1.0  0.11216  0.77397  0.45507  1.0000
  C   C1170     1.0  0.07256  0.71791  0.45163  1.0000
  C   C1171     1.0  0.00646  0.69445  0.47358  1.0000
  H   H1989     1.0  0.28399  0.95302  0.46455  1.0000
  H   H1990     1.0  0.28094  0.85052  0.45699  1.0000
  H   H1991     1.0  0.06916  0.91046  0.44112  1.0000
  H   H1992     1.0  0.22961  0.98851  0.43486  1.0000
  C   C1172     1.0  0.40974  0.95504  0.29058  1.0000
  H   H1993     1.0  0.49455  0.97351  0.32381  1.0000
  H   H1994     1.0  0.12723  0.97968  0.39278  1.0000
  C   C1173     1.0  0.38589  0.96402  0.44424  1.0000
  H   H1995     1.0  0.22018  0.97452  0.47753  1.0000
  H   H1996     1.0  0.38229  0.97242  0.37756  1.0000
  H   H1997     1.0  0.02183  0.72366  0.46827  1.0000
  H   H1998     1.0  0.35057  0.97516  0.32097  1.0000
  H   H1999     1.0  0.04975  0.71351  0.42139  1.0000
  H   H2000     1.0  0.09441  0.91539  0.46730  1.0000
  H   H2001     1.0  0.29812  0.94542  0.44488  1.0000
  C   C1174     1.0  0.05969  0.96407  0.44841  1.0000
  S   S344      1.0  0.04617  0.82891  0.47986  1.0000
  C   C1175     1.0  0.09345  0.74778  0.47639  1.0000
  H   H2002     1.0  0.16940  0.96596  0.41559  1.0000
  H   H2003     1.0  0.20451  0.91527  0.48695  1.0000
  C   C1176     1.0  0.08722  0.78956  0.45936  1.0000
  C   C1177     1.0  0.23396  0.95405  0.48696  1.0000
  H   H2004     1.0  0.22518  0.86239  0.47609  1.0000
  H   H2005     1.0  0.35732  0.95571  0.48413  1.0000
  C   C1178     1.0  0.26498  0.98010  0.48626  1.0000
  H   H2006     1.0  0.33833  0.95806  0.34496  1.0000
  H   H2007     1.0  0.10095  0.79987  0.46698  1.0000
  H   H2008     1.0  0.16153  0.89960  0.48117  1.0000
  H   H2009     1.0  0.12106  0.75299  0.44697  1.0000
  H   H2010     1.0  0.21833  0.97813  0.39542  1.0000
  H   H2011     1.0  0.05811  0.90933  0.45922  1.0000
  H   H2012     1.0  0.34839  0.94488  0.47175  1.0000
  H   H2013     1.0  0.34035  0.97080  0.45831  1.0000
  H   H2014     1.0  0.36612  0.97572  0.30521  1.0000
  H   H2015     1.0  0.32719  0.91415  0.48159  1.0000
  C   C1179     1.0  0.48947  0.97109  0.29321  1.0000
  C   C1180     1.0  0.01217  0.81208  0.47060  1.0000
  H   H2016     1.0  0.36535  0.94225  0.45745  1.0000
  C   C1181     1.0  0.22544  0.96852  0.48675  1.0000
  H   H2017     1.0  0.09899  0.76542  0.48212  1.0000
  C   C1182     1.0  0.16320  0.96906  0.47730  1.0000
  S   S345      1.0  0.01771  0.74665  0.48080  1.0000
  C   C1183     1.0  0.31118  0.97920  0.45596  1.0000
  C   C1184     1.0  0.08981  0.79717  0.47038  1.0000
  H   H2018     1.0  0.49840  0.94354  0.26348  1.0000
  H   H2019     1.0  0.19057  0.95072  0.48174  1.0000
  H   H2020     1.0  0.34223  0.97130  0.48183  1.0000
  H   H2021     1.0  0.28380  0.98237  0.38360  1.0000
  H   H2022     1.0  0.08047  0.70573  0.47170  1.0000
  C   C1185     1.0  0.48034  0.92705  0.24805  1.0000
  C   C1186     1.0  0.01627  0.68350  0.48147  1.0000
  C   C1187     1.0  0.08421  0.92244  0.47271  1.0000
  N   N85       1.0  0.27442  0.98267  0.35798  1.0000
  H   H2023     1.0  0.26129  0.97887  0.38062  1.0000
  H   H2024     1.0  0.24042  0.87034  0.47424  1.0000
  H   H2025     1.0  0.18837  0.98517  0.39740  1.0000
  H   H2026     1.0  0.00109  0.71737  0.46259  1.0000
  C   C1188     1.0  0.31743  0.92375  0.48138  1.0000
  H   H2027     1.0  0.46143  0.95808  0.24562  1.0000
  C   C1189     1.0  0.00796  0.75285  0.31664  1.0000
  C   C1190     1.0  0.02783  0.68725  0.48512  1.0000
  C   C1191     1.0  0.02952  0.70191  0.48088  1.0000
  H   H2028     1.0  0.14893  0.98517  0.43757  1.0000
  H   H2029     1.0  0.07494  0.91659  0.47683  1.0000
  C   C1192     1.0  0.05032  0.79941  0.48103  1.0000
  C   C1193     1.0  0.05257  0.78446  0.48818  1.0000
  C   C1194     1.0  0.31040  0.97955  0.48136  1.0000
  H   H2030     1.0  0.38354  0.96921  0.46499  1.0000
  C   C1195     1.0  0.16723  0.98667  0.39122  1.0000
  H   H2031     1.0  0.49672  0.98867  0.35555  1.0000
  H   H2032     1.0  0.47800  0.98732  0.36591  1.0000
  H   H2033     1.0  0.43131  0.98973  0.25818  1.0000
  C   C1196     1.0  0.18417  0.92209  0.47884  1.0000
  H   H2034     1.0  0.35607  0.98734  0.48655  1.0000
  H   H2035     1.0  0.00576  0.73271  0.34313  1.0000
  H   H2036     1.0  0.18865  0.97739  0.47530  1.0000
  H   H2037     1.0  0.16630  0.95676  0.48059  1.0000
  C   C1197     1.0  0.99925  0.80714  0.48282  1.0000
  Fe  Fe170     1.0  0.25953  0.88911  0.48492  1.0000
  C   C1198     1.0  0.40137  0.98858  0.39130  1.0000
  H   H2038     1.0  0.25528  0.97633  0.48559  1.0000
  H   H2039     1.0  0.31951  0.93236  0.48577  1.0000
  H   H2040     1.0  0.08686  0.92408  0.48263  1.0000
  H   H2041     1.0  0.27462  0.97043  0.48608  1.0000
  H   H2042     1.0  0.20268  0.95531  0.48991  1.0000
  C   C1199     1.0  0.19518  0.91179  0.48574  1.0000
  C   C1200     1.0  0.36001  0.97510  0.48895  1.0000
  C   C1201     1.0  0.18183  0.89268  0.48955  1.0000
  Fe  Fe171     1.0  0.03697  0.73021  0.48926  1.0000
  H   H2043     1.0  0.47184  0.99065  0.25464  1.0000
  H   H2044     1.0  0.20077  0.95725  0.52487  1.0000
  H   H2045     1.0  0.43482  0.96178  0.63707  1.0000
  S   S346      1.0  0.02983  0.73472  0.51224  1.0000
  C   C1202     1.0  0.36014  0.96958  0.70902  1.0000
  H   H2046     1.0  0.01807  0.79776  0.50209  1.0000
  H   H2047     1.0  0.18659  0.90579  0.54387  1.0000
  H   H2048     1.0  0.25475  0.96886  0.52642  1.0000
  S   S347      1.0  0.40213  0.95810  0.62128  1.0000
  H   H2049     1.0  0.48399  0.97426  0.65399  1.0000
  C   C1203     1.0  0.38252  0.96053  0.55613  1.0000
  Fe  Fe172     1.0  0.32252  0.97489  0.54241  1.0000
  H   H2050     1.0  0.33415  0.98854  0.70909  1.0000
  S   S348      1.0  0.33867  0.96842  0.55790  1.0000
  Fe  Fe173     1.0  0.30346  0.96040  0.53171  1.0000
  H   H2051     1.0  0.41389  0.97622  0.56455  1.0000
  S   S349      1.0  0.30239  0.93770  0.53015  1.0000
  N   N86       1.0  0.45319  0.98497  0.63703  1.0000
  H   H2052     1.0  0.37255  0.95495  0.57879  1.0000
  N   N87       1.0  0.43045  0.88177  0.72296  1.0000
  H   H2053     1.0  0.48336  0.96782  0.63862  1.0000
  S   S350      1.0  0.32602  0.96584  0.52216  1.0000
  S   S351      1.0  0.30104  0.96755  0.55275  1.0000
  S   S352      1.0  0.40981  0.95744  0.69744  1.0000
  S   S353      1.0  0.41066  0.92103  0.68506  1.0000
  Fe  Fe174     1.0  0.43320  0.95423  0.70011  1.0000
  S   S354      1.0  0.45017  0.96645  0.68494  1.0000
  H   H2054     1.0  0.46590  0.94944  0.73851  1.0000
  C   C1204     1.0  0.05306  0.80572  0.50266  1.0000
  S   S355      1.0  0.20734  0.88432  0.50051  1.0000
  Fe  Fe175     1.0  0.24775  0.90242  0.51255  1.0000
  H   H2055     1.0  0.40352  0.94340  0.59881  1.0000
  S   S356      1.0  0.25076  0.90693  0.53347  1.0000
  S   S357      1.0  0.02355  0.76980  0.49599  1.0000
  H   H2056     1.0  0.42614  0.93481  0.58400  1.0000
  N   N88       1.0  0.39595  0.95272  0.57814  1.0000
  H   H2057     1.0  0.48018  0.96981  0.68087  1.0000
  S   S358      1.0  0.22607  0.91433  0.50567  1.0000
  S   S359      1.0  0.24698  0.88097  0.50779  1.0000
  C   C1205     1.0  0.46102  0.97920  0.62316  1.0000
  H   H2058     1.0  0.21581  0.96927  0.58566  1.0000
  C   C1206     1.0  0.25686  0.96344  0.53767  1.0000
  H   H2059     1.0  0.37531  0.97571  0.68864  1.0000
  Fe  Fe176     1.0  0.31295  0.98815  0.51272  1.0000
  H   H2060     1.0  0.24699  0.95184  0.58251  1.0000
  H   H2061     1.0  0.42063  0.99048  0.73195  1.0000
  S   S360      1.0  0.22339  0.97287  0.52782  1.0000
  C   C1207     1.0  0.38368  0.95140  0.57180  1.0000
  C   C1208     1.0  0.19117  0.92294  0.55164  1.0000
  H   H2062     1.0  0.45843  0.98916  0.65591  1.0000
  H   H2063     1.0  0.26299  0.98322  0.49702  1.0000
  H   H2064     1.0  0.27363  0.94457  0.57653  1.0000
  C   C1209     1.0  0.48041  0.97714  0.70007  1.0000
  Fe  Fe177     1.0  0.01114  0.75184  0.50332  1.0000
  H   H2065     1.0  0.20442  0.95053  0.55664  1.0000
  C   C1210     1.0  0.19642  0.90997  0.54353  1.0000
  H   H2066     1.0  0.18567  0.97860  0.49396  1.0000
  Fe  Fe178     1.0  0.43177  0.92718  0.72488  1.0000
  H   H2067     1.0  0.20431  0.90047  0.54885  1.0000
  H   H2068     1.0  0.41922  0.90227  0.71064  1.0000
  H   H2069     1.0  0.23370  0.91518  0.56905  1.0000
  H   H2070     1.0  0.20150  0.91352  0.53171  1.0000
  C   C1211     1.0  0.22609  0.92473  0.56337  1.0000
  H   H2071     1.0  0.23315  0.92985  0.55313  1.0000
  H   H2072     1.0  0.20932  0.94380  0.51353  1.0000
  H   H2073     1.0  0.18562  0.91870  0.56323  1.0000
  H   H2074     1.0  0.47151  0.96270  0.65657  1.0000
  H   H2075     1.0  0.47702  0.98295  0.60229  1.0000
  C   C1212     1.0  0.24030  0.98085  0.57223  1.0000
  H   H2076     1.0  0.23723  0.97628  0.58432  1.0000
  C   C1213     1.0  0.40217  0.89060  0.72178  1.0000
  H   H2077     1.0  0.25240  0.94560  0.56574  1.0000
  H   H2078     1.0  0.01879  0.81597  0.49307  1.0000
  H   H2079     1.0  0.48883  0.91428  0.70391  1.0000
  C   C1214     1.0  0.39171  0.98832  0.72666  1.0000
  N   N89       1.0  0.20316  0.93036  0.55157  1.0000
  H   H2080     1.0  0.00417  0.82480  0.51686  1.0000
  C   C1215     1.0  0.20276  0.94537  0.52466  1.0000
  H   H2081     1.0  0.18130  0.95746  0.54455  1.0000
  H   H2082     1.0  0.43830  0.97694  0.71191  1.0000
  H   H2083     1.0  0.13073  0.99108  0.55371  1.0000
  C   C1216     1.0  0.34434  0.98144  0.56376  1.0000
  H   H2084     1.0  0.30626  0.98084  0.58460  1.0000
  C   C1217     1.0  0.45692  0.98060  0.71778  1.0000
  H   H2085     1.0  0.49646  0.90455  0.73415  1.0000
  H   H2086     1.0  0.41272  0.95373  0.55759  1.0000
  H   H2087     1.0  0.17449  0.96764  0.51723  1.0000
  S   S361      1.0  0.05716  0.76128  0.51162  1.0000
  H   H2088     1.0  0.46895  0.91870  0.70846  1.0000
  C   C1218     1.0  0.19389  0.89711  0.49133  1.0000
  H   H2089     1.0  0.43485  0.94420  0.56642  1.0000
  C   C1219     1.0  0.01148  0.80934  0.50161  1.0000
  S   S362      1.0  0.26227  0.90915  0.49049  1.0000
  C   C1220     1.0  0.22267  0.97474  0.49910  1.0000
  H   H2090     1.0  0.24741  0.93532  0.49908  1.0000
  S   S363      1.0  0.29056  0.98222  0.52090  1.0000
  C   C1221     1.0  0.22894  0.96667  0.51131  1.0000
  C   C1222     1.0  0.23856  0.95282  0.51088  1.0000
  H   H2091     1.0  0.18081  0.88131  0.49390  1.0000
  H   H2092     1.0  0.47634  0.93980  0.71101  1.0000
  H   H2093     1.0  0.31013  0.99048  0.56589  1.0000
  H   H2094     1.0  0.24353  0.94660  0.52023  1.0000
  H   H2095     1.0  0.00564  0.80537  0.52602  1.0000
  H   H2096     1.0  0.02195  0.81246  0.51759  1.0000
  C   C1223     1.0  0.21831  0.96149  0.57823  1.0000
  H   H2097     1.0  0.22117  0.93258  0.57086  1.0000
  H   H2098     1.0  0.39683  0.93105  0.59289  1.0000
  H   H2099     1.0  0.21946  0.92596  0.53155  1.0000
  H   H2100     1.0  0.45350  0.87813  0.69626  1.0000
  C   C1224     1.0  0.47906  0.91625  0.71306  1.0000
  H   H2101     1.0  0.03528  0.67886  0.49146  1.0000
  Fe  Fe179     1.0  0.29012  0.98990  0.54109  1.0000
  H   H2102     1.0  0.26020  0.97922  0.54787  1.0000
  C   C1225     1.0  0.28596  0.93224  0.53102  1.0000
  C   C1226     1.0  0.28280  0.93119  0.51799  1.0000
  C   C1227     1.0  0.27180  0.92383  0.51857  1.0000
  C   C1228     1.0  0.26389  0.91733  0.53221  1.0000
  C   C1229     1.0  0.26674  0.91880  0.54526  1.0000
  C   C1230     1.0  0.27778  0.92613  0.54468  1.0000
  H   H2103     1.0  0.28935  0.93553  0.50745  1.0000
  H   H2104     1.0  0.26976  0.92288  0.50846  1.0000
  H   H2105     1.0  0.26094  0.91360  0.55586  1.0000
  H   H2106     1.0  0.28056  0.92632  0.55479  1.0000
  C   C1231     1.0  0.47850  0.92943  0.71954  1.0000
  H   H2107     1.0  0.30848  0.97431  0.49297  1.0000
  C   C1232     1.0  0.47266  0.98758  0.61243  1.0000
  C   C1233     1.0  0.45851  0.97251  0.69557  1.0000
  H   H2108     1.0  0.37634  0.95845  0.60503  1.0000
  H   H2109     1.0  0.15548  0.96892  0.52689  1.0000
  C   C1234     1.0  0.22816  0.96655  0.56301  1.0000
  C   C1235     1.0  0.39478  0.94289  0.59345  1.0000
  H   H2110     1.0  0.42110  0.97225  0.64964  1.0000
  H   H2111     1.0  0.43870  0.97764  0.65798  1.0000
  H   H2112     1.0  0.48929  0.95202  0.72116  1.0000
  H   H2113     1.0  0.39829  0.89719  0.73052  1.0000
  H   H2114     1.0  0.37403  0.95733  0.55244  1.0000
  C   C1236     1.0  0.42459  0.94511  0.57531  1.0000
  H   H2115     1.0  0.35544  0.98458  0.59355  1.0000
  H   H2116     1.0  0.45090  0.96320  0.65002  1.0000
  C   C1237     1.0  0.21404  0.91896  0.56012  1.0000
  H   H2117     1.0  0.35121  0.99006  0.68188  1.0000
  H   H2118     1.0  0.34560  0.96753  0.58535  1.0000
  H   H2119     1.0  0.26919  0.95995  0.53598  1.0000
  C   C1238     1.0  0.40798  0.93179  0.66755  1.0000
  C   C1239     1.0  0.40245  0.94718  0.66519  1.0000
  C   C1240     1.0  0.40031  0.95540  0.65108  1.0000
  C   C1241     1.0  0.40401  0.94826  0.63925  1.0000
  C   C1242     1.0  0.40944  0.93289  0.64166  1.0000
  C   C1243     1.0  0.41127  0.92467  0.65578  1.0000
  H   H2120     1.0  0.39951  0.95272  0.67428  1.0000
  H   H2121     1.0  0.39588  0.96723  0.64935  1.0000
  H   H2122     1.0  0.41224  0.92730  0.63258  1.0000
  H   H2123     1.0  0.41544  0.91278  0.65753  1.0000
  H   H2124     1.0  0.00850  0.70711  0.51218  1.0000
  H   H2125     1.0  0.39309  0.95850  0.54785  1.0000
  H   H2126     1.0  0.18584  0.95045  0.50121  1.0000
  H   H2127     1.0  0.19458  0.93901  0.57162  1.0000
  H   H2128     1.0  0.44512  0.85976  0.72617  1.0000
  H   H2129     1.0  0.39515  0.89627  0.71344  1.0000
  H   H2130     1.0  0.23001  0.95793  0.55662  1.0000
  H   H2131     1.0  0.38217  0.97398  0.58207  1.0000
  S   S364      1.0  0.43961  0.93002  0.70035  1.0000
  C   C1244     1.0  0.05518  0.78002  0.50255  1.0000
  H   H2132     1.0  0.20742  0.96098  0.57658  1.0000
  C   C1245     1.0  0.40159  0.97885  0.56576  1.0000
  C   C1246     1.0  0.16281  0.97312  0.51632  1.0000
  H   H2133     1.0  0.38470  0.93960  0.57172  1.0000
  C   C1247     1.0  0.05569  0.79066  0.50971  1.0000
  N   N90       1.0  0.24281  0.96927  0.56338  1.0000
  H   H2134     1.0  0.21959  0.94187  0.53660  1.0000
  H   H2135     1.0  0.05306  0.81399  0.50834  1.0000
  H   H2136     1.0  0.05765  0.78732  0.52083  1.0000
  Fe  Fe180     1.0  0.22686  0.89394  0.49841  1.0000
  H   H2137     1.0  0.49205  0.97755  0.69660  1.0000
  C   C1248     1.0  0.45012  0.97656  0.70880  1.0000
  C   C1249     1.0  0.46424  0.98597  0.64513  1.0000
  S   S365      1.0  0.48027  0.98555  0.72516  1.0000
  H   H2138     1.0  0.27506  0.95576  0.55840  1.0000
  H   H2139     1.0  0.39575  0.98983  0.68591  1.0000
  C   C1250     1.0  0.18138  0.95323  0.55642  1.0000
  H   H2140     1.0  0.42843  0.84473  0.73355  1.0000
  C   C1251     1.0  0.47202  0.98089  0.71344  1.0000
  H   H2141     1.0  0.46019  0.89379  0.69576  1.0000
  C   C1252     1.0  0.44422  0.88801  0.71611  1.0000
  Fe  Fe181     1.0  0.40432  0.95188  0.72227  1.0000
  N   N91       1.0  0.49196  0.92827  0.72549  1.0000
  H   H2142     1.0  0.42077  0.88656  0.70366  1.0000
  H   H2143     1.0  0.19210  0.94250  0.52567  1.0000
  C   C1253     1.0  0.49317  0.91503  0.73819  1.0000
  H   H2144     1.0  0.20802  0.91349  0.57097  1.0000
  H   H2145     1.0  0.17888  0.96309  0.56134  1.0000
  H   H2146     1.0  0.22029  0.90991  0.55410  1.0000
  H   H2147     1.0  0.43756  0.86454  0.71043  1.0000
  H   H2148     1.0  0.46820  0.93028  0.72842  1.0000
  H   H2149     1.0  0.17209  0.94749  0.56185  1.0000
  H   H2150     1.0  0.38124  0.94026  0.61583  1.0000
  H   H2151     1.0  0.45375  0.88137  0.72137  1.0000
  H   H2152     1.0  0.18200  0.93081  0.54663  1.0000
  S   S366      1.0  0.38315  0.96183  0.73651  1.0000
  C   C1254     1.0  0.44381  0.97447  0.64707  1.0000
  H   H2153     1.0  0.40096  0.98297  0.71908  1.0000
  H   H2154     1.0  0.49767  0.94759  0.69879  1.0000
  H   H2155     1.0  0.22346  0.95024  0.58385  1.0000
  H   H2156     1.0  0.42823  0.98138  0.63146  1.0000
  C   C1255     1.0  0.37002  0.98007  0.69894  1.0000
  H   H2157     1.0  0.25197  0.95358  0.54143  1.0000
  C   C1256     1.0  0.34752  0.97782  0.57793  1.0000
  C   C1257     1.0  0.26835  0.95514  0.56982  1.0000
  H   H2158     1.0  0.24298  0.98435  0.54202  1.0000
  H   H2159     1.0  0.37923  0.97850  0.70466  1.0000
  H   H2160     1.0  0.16104  0.98514  0.51536  1.0000
  H   H2161     1.0  0.42312  0.89598  0.73877  1.0000
  C   C1258     1.0  0.37983  0.94655  0.60455  1.0000
  Fe  Fe182     1.0  0.41573  0.93285  0.69963  1.0000
  H   H2162     1.0  0.25080  0.98443  0.57073  1.0000
  H   H2163     1.0  0.35202  0.96842  0.70331  1.0000
  C   C1259     1.0  0.41866  0.89042  0.71413  1.0000
  C   C1260     1.0  0.38150  0.98034  0.73647  1.0000
  H   H2164     1.0  0.47879  0.90597  0.72174  1.0000
  H   H2165     1.0  0.39738  0.99042  0.56737  1.0000
  H   H2166     1.0  0.35509  0.97120  0.50080  1.0000
  C   C1261     1.0  0.43139  0.97243  0.64082  1.0000
  H   H2167     1.0  0.46666  0.96728  0.62586  1.0000
  H   H2168     1.0  0.37076  0.94307  0.60217  1.0000
  C   C1262     1.0  0.41087  0.94675  0.56891  1.0000
  H   H2169     1.0  0.11753  0.98659  0.53701  1.0000
  H   H2170     1.0  0.26914  0.96427  0.57431  1.0000
  C   C1263     1.0  0.19649  0.94315  0.55939  1.0000
  C   C1264     1.0  0.49014  0.94232  0.73051  1.0000
  H   H2171     1.0  0.44191  0.89674  0.69276  1.0000
  H   H2172     1.0  0.44213  0.89938  0.71800  1.0000
  Fe  Fe183     1.0  0.39213  0.98253  0.61823  1.0000
  S   S367      1.0  0.42712  0.95124  0.72485  1.0000
  C   C1265     1.0  0.25208  0.95499  0.57056  1.0000
  Fe  Fe184     1.0  0.04308  0.75237  0.50255  1.0000
  H   H2173     1.0  0.36738  0.95835  0.71179  1.0000
  C   C1266     1.0  0.43464  0.86566  0.72215  1.0000
  S   S368      1.0  0.40841  0.92742  0.72438  1.0000
  H   H2174     1.0  0.22136  0.97663  0.55699  1.0000
  H   H2175     1.0  0.45589  0.99006  0.57893  1.0000
  H   H2176     1.0  0.99927  0.69756  0.52930  1.0000
  C   C1267     1.0  0.45010  0.88910  0.69928  1.0000
  C   C1268     1.0  0.01047  0.81328  0.51642  1.0000
  C   C1269     1.0  0.25062  0.97485  0.54775  1.0000
  C   C1270     1.0  0.21179  0.93544  0.53623  1.0000
  C   C1271     1.0  0.35316  0.98742  0.58257  1.0000
  C   C1272     1.0  0.39417  0.96847  0.57936  1.0000
  C   C1273     1.0  0.47366  0.97285  0.69115  1.0000
  H   H2177     1.0  0.41127  0.93562  0.56724  1.0000
  H   H2178     1.0  0.42373  0.95465  0.58009  1.0000
  H   H2179     1.0  0.35446  0.97296  0.71968  1.0000
  H   H2180     1.0  0.39900  0.97885  0.55526  1.0000
  H   H2181     1.0  0.16037  0.95744  0.50536  1.0000
  C   C1274     1.0  0.42534  0.88400  0.73867  1.0000
  H   H2182     1.0  0.39994  0.87944  0.72640  1.0000
  H   H2183     1.0  0.14624  0.97385  0.50491  1.0000
  C   C1275     1.0  0.24082  0.94641  0.49884  1.0000
  H   H2184     1.0  0.45053  0.98361  0.72805  1.0000
  H   H2185     1.0  0.41559  0.85700  0.72242  1.0000
  H   H2186     1.0  0.21525  0.98551  0.49934  1.0000
  H   H2187     1.0  0.39869  0.96870  0.58880  1.0000
  H   H2188     1.0  0.45279  0.97961  0.61669  1.0000
  C   C1276     1.0  0.15856  0.96969  0.50345  1.0000
  C   C1277     1.0  0.47633  0.97175  0.64865  1.0000
  H   H2189     1.0  0.37831  0.97251  0.55614  1.0000
  H   H2190     1.0  0.48242  0.98628  0.61718  1.0000
  C   C1278     1.0  0.42274  0.85650  0.73001  1.0000
  C   C1279     1.0  0.19078  0.95637  0.49018  1.0000
  H   H2191     1.0  0.40188  0.90527  0.87582  1.0000
  S   S369      1.0  0.45259  0.93059  0.82275  1.0000
  H   H2192     1.0  0.42223  0.76643  0.94354  1.0000
  H   H2193     1.0  0.38057  0.78974  0.97643  1.0000
  S   S370      1.0  0.43879  0.95680  0.85226  1.0000
  Fe  Fe185     1.0  0.45296  0.87920  0.90308  1.0000
  S   S371      1.0  0.47125  0.86190  0.91245  1.0000
  S   S372      1.0  0.44967  0.90248  0.90554  1.0000
  Fe  Fe186     1.0  0.44320  0.85727  0.89251  1.0000
  S   S373      1.0  0.46062  0.83803  0.90088  1.0000
  S   S374      1.0  0.42866  0.85512  0.87876  1.0000
  Fe  Fe187     1.0  0.45424  0.84793  0.92104  1.0000
  S   S375      1.0  0.45059  0.83325  0.94382  1.0000
  H   H2194     1.0  0.47089  0.90388  0.85204  1.0000
  H   H2195     1.0  0.31870  0.65841  0.97499  1.0000
  S   S376      1.0  0.43541  0.86597  0.91338  1.0000
  S   S377      1.0  0.45900  0.87218  0.88150  1.0000
  H   H2196     1.0  0.36342  0.71550  0.95986  1.0000
  H   H2197     1.0  0.42672  0.88635  0.86994  1.0000
  H   H2198     1.0  0.45723  0.75040  0.96955  1.0000
  H   H2199     1.0  0.34418  0.80189  0.94312  1.0000
  H   H2200     1.0  0.31828  0.66097  0.90007  1.0000
  H   H2201     1.0  0.48060  0.82072  0.86622  1.0000
  C   C1280     1.0  0.42419  0.89728  0.86225  1.0000
  H   H2202     1.0  0.47726  0.79870  0.87391  1.0000
  Fe  Fe188     1.0  0.39592  0.66536  0.94154  1.0000
  N   N92       1.0  0.41277  0.98030  0.76945  1.0000
  H   H2203     1.0  0.48626  0.68925  0.91116  1.0000
  H   H2204     1.0  0.47549  0.93690  0.75265  1.0000
  H   H2205     1.0  0.40939  0.72842  0.96705  1.0000
  H   H2206     1.0  0.34222  0.79599  0.97297  1.0000
  H   H2207     1.0  0.39619  0.92080  0.83214  1.0000
  C   C1281     1.0  0.43258  0.81575  0.85572  1.0000
  H   H2208     1.0  0.49288  0.75699  0.95271  1.0000
  S   S378      1.0  0.46669  0.96007  0.81497  1.0000
  C   C1282     1.0  0.39258  0.86847  0.98587  1.0000
  H   H2209     1.0  0.42767  0.78163  0.96619  1.0000
  H   H2210     1.0  0.46916  0.90565  0.97993  1.0000
  H   H2211     1.0  0.40729  0.87932  0.86308  1.0000
  H   H2212     1.0  0.43106  0.99103  0.76628  1.0000
  H   H2213     1.0  0.39283  0.72302  0.97767  1.0000
  H   H2214     1.0  0.45635  0.74929  0.98850  1.0000
  H   H2215     1.0  0.39520  0.73046  0.93614  1.0000
  C   C1283     1.0  0.45362  0.68763  0.97701  1.0000
  H   H2216     1.0  0.43707  0.81110  0.84560  1.0000
  H   H2217     1.0  0.37927  0.96920  0.78812  1.0000
  C   C1284     1.0  0.36425  0.81892  0.96754  1.0000
  C   C1285     1.0  0.43786  0.96433  0.75784  1.0000
  H   H2218     1.0  0.39609  0.89726  0.85950  1.0000
  H   H2219     1.0  0.44838  0.89793  0.83119  1.0000
  H   H2220     1.0  0.43104  0.87785  0.76025  1.0000
  C   C1286     1.0  0.48237  0.80043  0.84574  1.0000
  C   C1287     1.0  0.49374  0.89655  0.88509  1.0000
  S   S379      1.0  0.40471  0.67859  0.91919  1.0000
  Fe  Fe189     1.0  0.37668  0.66598  0.97220  1.0000
  C   C1288     1.0  0.38932  0.74323  0.96115  1.0000
  C   C1289     1.0  0.37210  0.72151  0.95893  1.0000
  S   S380      1.0  0.39914  0.67099  0.96143  1.0000
  H   H2221     1.0  0.43578  0.96689  0.74652  1.0000
  Fe  Fe190     1.0  0.45265  0.96995  0.79799  1.0000
  H   H2222     1.0  0.38909  0.88386  0.84648  1.0000
  Fe  Fe191     1.0  0.39571  0.79149  0.90746  1.0000
  S   S381      1.0  0.41974  0.78801  0.89626  1.0000
  S   S382      1.0  0.38581  0.81258  0.91558  1.0000
  Fe  Fe192     1.0  0.39340  0.76121  0.90670  1.0000
  S   S383      1.0  0.41743  0.75465  0.89558  1.0000
  S   S384      1.0  0.37662  0.74687  0.91479  1.0000
  Fe  Fe193     1.0  0.42214  0.76565  0.91095  1.0000
  S   S385      1.0  0.44371  0.75683  0.91842  1.0000
  Fe  Fe194     1.0  0.41367  0.77746  0.88144  1.0000
  S   S386      1.0  0.42668  0.77898  0.85806  1.0000
  S   S387      1.0  0.39855  0.76984  0.92380  1.0000
  S   S388      1.0  0.38898  0.78333  0.89104  1.0000
  C   C1290     1.0  0.44129  0.74932  0.93732  1.0000
  H   H2223     1.0  0.43156  0.82788  0.85285  1.0000
  H   H2224     1.0  0.46001  0.73094  0.93454  1.0000
  H   H2225     1.0  0.48887  0.73341  0.92267  1.0000
  S   S389      1.0  0.49059  0.73737  0.86158  1.0000
  H   H2226     1.0  0.42419  0.70722  0.95746  1.0000
  H   H2227     1.0  0.34271  0.77203  0.98693  1.0000
  C   C1291     1.0  0.45612  0.85396  0.95545  1.0000
  H   H2228     1.0  0.43825  0.86326  0.75027  1.0000
  Fe  Fe195     1.0  0.47592  0.85368  0.89162  1.0000
  H   H2229     1.0  0.48339  0.78351  0.97285  1.0000
  C   C1292     1.0  0.45089  0.83154  0.97249  1.0000
  C   C1293     1.0  0.45289  0.84006  0.95807  1.0000
  H   H2230     1.0  0.48627  0.79951  0.83397  1.0000
  H   H2231     1.0  0.37102  0.81362  0.94592  1.0000
  C   C1294     1.0  0.39842  0.72732  0.96611  1.0000
  H   H2232     1.0  0.40195  0.97454  0.79259  1.0000
  H   H2233     1.0  0.48534  0.90818  0.83649  1.0000
  C   C1295     1.0  0.35417  0.77362  0.98144  1.0000
  C   C1296     1.0  0.39594  0.69750  0.91666  1.0000
  C   C1297     1.0  0.40325  0.70782  0.90613  1.0000
  C   C1298     1.0  0.39726  0.72307  0.90518  1.0000
  C   C1299     1.0  0.38355  0.72800  0.91428  1.0000
  C   C1300     1.0  0.37567  0.71764  0.92394  1.0000
  C   C1301     1.0  0.38202  0.70241  0.92542  1.0000
  H   H2234     1.0  0.41366  0.70400  0.89888  1.0000
  H   H2235     1.0  0.40315  0.73099  0.89734  1.0000
  H   H2236     1.0  0.36484  0.72140  0.93067  1.0000
  H   H2237     1.0  0.37616  0.69449  0.93335  1.0000
  H   H2238     1.0  0.47398  0.92145  0.86557  1.0000
  H   H2239     1.0  0.42751  0.78356  0.98439  1.0000
  H   H2240     1.0  0.47707  0.95573  0.74653  1.0000
  H   H2241     1.0  0.37025  0.77541  0.95071  1.0000
  C   C1302     1.0  0.47632  0.94607  0.74279  1.0000
  H   H2242     1.0  0.49255  0.97883  0.78336  1.0000
  C   C1303     1.0  0.46476  0.75612  0.87212  1.0000
  C   C1304     1.0  0.45043  0.76497  0.87149  1.0000
  C   C1305     1.0  0.44471  0.76787  0.85877  1.0000
  C   C1306     1.0  0.45335  0.76159  0.84675  1.0000
  C   C1307     1.0  0.46748  0.75221  0.84762  1.0000
  H   H2243     1.0  0.46901  0.75400  0.88202  1.0000
  H   H2244     1.0  0.44388  0.76954  0.88092  1.0000
  H   H2245     1.0  0.44895  0.76369  0.83695  1.0000
  C   C1308     1.0  0.47324  0.74959  0.86025  1.0000
  C   C1309     1.0  0.48623  0.72195  0.94551  1.0000
  Fe  Fe196     1.0  0.47154  0.93937  0.80654  1.0000
  C   C1310     1.0  0.38057  0.78728  0.96577  1.0000
  H   H2246     1.0  0.44598  0.69804  0.97279  1.0000
  H   H2247     1.0  0.46831  0.98989  0.80614  1.0000
  H   H2248     1.0  0.49056  0.94721  0.77778  1.0000
  H   H2249     1.0  0.45384  0.67544  0.94378  1.0000
  H   H2250     1.0  0.41158  0.70304  0.98406  1.0000
  H   H2251     1.0  0.47520  0.89594  0.87696  1.0000
  H   H2252     1.0  0.37940  0.74586  0.97005  1.0000
  H   H2253     1.0  0.44718  0.79798  0.89596  1.0000
  H   H2254     1.0  0.45831  0.81128  0.89347  1.0000
  H   H2255     1.0  0.49217  0.92226  0.86574  1.0000
  H   H2256     1.0  0.41472  0.74055  0.93997  1.0000
  H   H2257     1.0  0.40447  0.78541  0.95810  1.0000
  C   C1311     1.0  0.40806  0.98665  0.75481  1.0000
  S   S390      1.0  0.49457  0.92483  0.80469  1.0000
  H   H2258     1.0  0.36350  0.83077  0.96202  1.0000
  H   H2259     1.0  0.49117  0.88205  0.87305  1.0000
  H   H2260     1.0  0.41199  0.91970  0.86533  1.0000
  H   H2261     1.0  0.42259  0.68670  0.97784  1.0000
  H   H2262     1.0  0.35821  0.76675  0.97302  1.0000
  H   H2263     1.0  0.36171  0.98108  0.75385  1.0000
  C   C1312     1.0  0.41663  0.84348  0.88914  1.0000
  C   C1313     1.0  0.40901  0.83818  0.88190  1.0000
  C   C1314     1.0  0.39962  0.82857  0.89003  1.0000
  C   C1315     1.0  0.39739  0.82474  0.90546  1.0000
  C   C1316     1.0  0.40487  0.83018  0.91274  1.0000
  C   C1317     1.0  0.41467  0.83938  0.90455  1.0000
  H   H2264     1.0  0.41046  0.84137  0.87000  1.0000
  H   H2265     1.0  0.39394  0.82426  0.88439  1.0000
  H   H2266     1.0  0.40334  0.82704  0.92465  1.0000
  H   H2267     1.0  0.42063  0.84334  0.91019  1.0000
  H   H2268     1.0  0.43460  0.90142  0.85875  1.0000
  H   H2269     1.0  0.48608  0.78920  0.85239  1.0000
  H   H2270     1.0  0.48725  0.90696  0.88875  1.0000
  C   C1318     1.0  0.42908  0.78899  0.97246  1.0000
  C   C1319     1.0  0.49105  0.74660  0.93637  1.0000
  H   H2271     1.0  0.46208  0.81527  0.84018  1.0000
  H   H2272     1.0  0.40048  0.89460  0.83204  1.0000
  H   H2273     1.0  0.41982  0.79894  0.97096  1.0000
  C   C1320     1.0  0.40574  0.88954  0.85421  1.0000
  C   C1321     1.0  0.49084  0.74729  0.95073  1.0000
  C   C1322     1.0  0.44154  0.94137  0.86681  1.0000
  C   C1323     1.0  0.44373  0.92691  0.86497  1.0000
  C   C1324     1.0  0.44601  0.91482  0.87689  1.0000
  C   C1325     1.0  0.44624  0.91721  0.89054  1.0000
  C   C1326     1.0  0.44399  0.93166  0.89232  1.0000
  C   C1327     1.0  0.44154  0.94370  0.88053  1.0000
  H   H2274     1.0  0.44353  0.92508  0.85447  1.0000
  H   H2275     1.0  0.44768  0.90369  0.87555  1.0000
  H   H2276     1.0  0.44412  0.93356  0.90287  1.0000
  C   C1328     1.0  0.42895  0.92657  0.78448  1.0000
  C   C1329     1.0  0.41881  0.92706  0.77612  1.0000
  C   C1330     1.0  0.42398  0.92258  0.76255  1.0000
  C   C1331     1.0  0.43920  0.91678  0.75772  1.0000
  C   C1332     1.0  0.44926  0.91559  0.76644  1.0000
  C   C1333     1.0  0.44419  0.92082  0.77963  1.0000
  H   H2277     1.0  0.40699  0.93130  0.77990  1.0000
  H   H2278     1.0  0.41613  0.92348  0.75591  1.0000
  H   H2279     1.0  0.46097  0.91084  0.76292  1.0000
  H   H2280     1.0  0.42974  0.88271  0.83191  1.0000
  C   C1334     1.0  0.47704  0.79367  0.96656  1.0000
  H   H2281     1.0  0.45017  0.67861  0.97471  1.0000
  Fe  Fe197     1.0  0.43962  0.94273  0.80512  1.0000
  C   C1335     1.0  0.45561  0.85052  0.98164  1.0000
  H   H2282     1.0  0.43979  0.95485  0.88202  1.0000
  H   H2283     1.0  0.43250  0.87279  0.84979  1.0000
  H   H2284     1.0  0.43197  0.66415  0.95565  1.0000
  H   H2285     1.0  0.30136  0.66431  0.89395  1.0000
  C   C1336     1.0  0.47429  0.68936  0.91252  1.0000
  H   H2286     1.0  0.40777  0.71368  0.93398  1.0000
  C   C1337     1.0  0.48625  0.93125  0.84463  1.0000
  S   S391      1.0  0.43246  0.72540  0.98551  1.0000
  H   H2287     1.0  0.39614  0.95597  0.78374  1.0000
  C   C1338     1.0  0.36960  0.98726  0.74627  1.0000
  H   H2288     1.0  0.39633  0.92039  0.85105  1.0000
  H   H2289     1.0  0.48274  0.88951  0.98539  1.0000
  C   C1339     1.0  0.42316  0.96525  0.76954  1.0000
  H   H2290     1.0  0.47359  0.67758  0.91503  1.0000
  H   H2291     1.0  0.46839  0.79976  0.97440  1.0000
  H   H2292     1.0  0.48527  0.87662  0.85493  1.0000
  H   H2293     1.0  0.45254  0.88472  0.84795  1.0000
  C   C1340     1.0  0.47444  0.89906  0.98937  1.0000
  H   H2294     1.0  0.49244  0.88739  0.89497  1.0000
  C   C1341     1.0  0.42007  0.99013  0.77360  1.0000
  H   H2295     1.0  0.48446  0.71213  0.94349  1.0000
  H   H2296     1.0  0.46569  0.72404  0.87853  1.0000
  H   H2297     1.0  0.36842  0.72702  0.96845  1.0000
  C   C1342     1.0  0.43200  0.88391  0.84224  1.0000
  C   C1343     1.0  0.41231  0.69551  0.97683  1.0000
  H   H2298     1.0  0.46505  0.68828  0.97054  1.0000
  H   H2299     1.0  0.41452  0.88093  0.74421  1.0000
  H   H2300     1.0  0.45138  0.83297  0.85547  1.0000
  H   H2301     1.0  0.44802  0.82100  0.97467  1.0000
  H   H2302     1.0  0.44571  0.79718  0.97641  1.0000
  S   S392      1.0  0.42244  0.93364  0.80066  1.0000
  C   C1344     1.0  0.43626  0.73530  0.96724  1.0000
  H   H2303     1.0  0.46812  0.69383  0.92247  1.0000
  H   H2304     1.0  0.43531  0.81193  0.87791  1.0000
  H   H2305     1.0  0.48410  0.94237  0.84714  1.0000
  H   H2306     1.0  0.38293  0.77501  0.96786  1.0000
  Fe  Fe198     1.0  0.44644  0.95241  0.82942  1.0000
  S   S393      1.0  0.48323  0.70772  0.97469  1.0000
  C   C1345     1.0  0.48569  0.72281  0.95995  1.0000
  H   H2307     1.0  0.47808  0.72638  0.89296  1.0000
  H   H2308     1.0  0.37225  0.72991  0.94847  1.0000
  C   C1346     1.0  0.40302  0.92123  0.83964  1.0000
  H   H2309     1.0  0.45206  0.92023  0.78613  1.0000
  H   H2310     1.0  0.33565  0.66529  0.96913  1.0000
  C   C1347     1.0  0.44825  0.72895  0.95717  1.0000
  S   S394      1.0  0.43185  0.96398  0.81311  1.0000
  C   C1348     1.0  0.41816  0.90983  0.83759  1.0000
  C   C1349     1.0  0.42717  0.74910  0.96241  1.0000
  H   H2311     1.0  0.47398  0.74710  0.83845  1.0000
  H   H2312     1.0  0.44152  0.79589  0.87009  1.0000
  H   H2313     1.0  0.46110  0.79642  0.84781  1.0000
  H   H2314     1.0  0.45443  0.72044  0.86140  1.0000
  H   H2315     1.0  0.37502  0.81484  0.97121  1.0000
  C   C1350     1.0  0.46516  0.80566  0.84919  1.0000
  H   H2316     1.0  0.35183  0.81531  0.95387  1.0000
  H   H2317     1.0  0.40518  0.93256  0.83601  1.0000
  H   H2318     1.0  0.30156  0.65964  0.91357  1.0000
  S   S395      1.0  0.35752  0.67942  0.98631  1.0000
  C   C1351     1.0  0.44792  0.88668  0.83799  1.0000
  H   H2319     1.0  0.47119  0.73524  0.90820  1.0000
  H   H2320     1.0  0.38808  0.96960  0.76914  1.0000
  C   C1352     1.0  0.48788  0.73555  0.96252  1.0000
  C   C1353     1.0  0.39029  0.96766  0.78032  1.0000
  H   H2321     1.0  0.42193  0.85280  0.96502  1.0000
  H   H2322     1.0  0.45745  0.86074  0.94439  1.0000
  H   H2323     1.0  0.42704  0.91558  0.83676  1.0000
  H   H2324     1.0  0.46541  0.78695  0.87557  1.0000
  H   H2325     1.0  0.44689  0.87897  0.74554  1.0000
  H   H2326     1.0  0.38527  0.74535  0.95091  1.0000
  C   C1354     1.0  0.45851  0.80024  0.89199  1.0000
  H   H2327     1.0  0.41729  0.90726  0.88140  1.0000
  N   N93       1.0  0.36562  0.79389  0.96156  1.0000
  H   H2328     1.0  0.42282  0.98510  0.78471  1.0000
  N   N94       1.0  0.45765  0.78247  0.96151  1.0000
  C   C1355     1.0  0.47059  0.79003  0.95522  1.0000
  C   C1356     1.0  0.45560  0.77678  0.94922  1.0000
  C   C1357     1.0  0.46156  0.76978  0.97417  1.0000
  C   C1358     1.0  0.44409  0.79375  0.96694  1.0000
  H   H2329     1.0  0.42327  0.86470  0.98034  1.0000
  C   C1359     1.0  0.45159  0.78863  0.93557  1.0000
  H   H2330     1.0  0.41900  0.83502  0.96636  1.0000
  H   H2331     1.0  0.41766  0.95741  0.76764  1.0000
  H   H2332     1.0  0.48010  0.78315  0.94857  1.0000
  H   H2333     1.0  0.46742  0.80070  0.94738  1.0000
  H   H2334     1.0  0.44692  0.77031  0.95304  1.0000
  H   H2335     1.0  0.46589  0.76877  0.94524  1.0000
  H   H2336     1.0  0.47364  0.76439  0.97178  1.0000
  C   C1360     1.0  0.39411  0.79195  0.95426  1.0000
  C   C1361     1.0  0.38713  0.71021  0.95950  1.0000
  H   H2337     1.0  0.44253  0.80430  0.95853  1.0000
  S   S396      1.0  0.49493  0.76746  0.87991  1.0000
  C   C1362     1.0  0.48713  0.88520  0.84471  1.0000
  H   H2338     1.0  0.47068  0.83903  0.86620  1.0000
  H   H2339     1.0  0.44105  0.79682  0.93846  1.0000
  H   H2340     1.0  0.46077  0.79435  0.92962  1.0000
  H   H2341     1.0  0.44989  0.78304  0.92765  1.0000
  C   C1363     1.0  0.34974  0.78999  0.94560  1.0000
  C   C1364     1.0  0.48318  0.90092  0.84767  1.0000
  C   C1365     1.0  0.48754  0.89402  0.87299  1.0000
  C   C1366     1.0  0.43617  0.87541  0.74907  1.0000
  H   H2342     1.0  0.45543  0.87863  0.83129  1.0000
  H   H2343     1.0  0.45564  0.71857  0.96088  1.0000
  C   C1367     1.0  0.36310  0.81049  0.95649  1.0000
  H   H2344     1.0  0.42614  0.96052  0.78056  1.0000
  H   H2345     1.0  0.41997  0.90749  0.82641  1.0000
  H   H2346     1.0  0.41838  0.75444  0.97017  1.0000
  C   C1368     1.0  0.48573  0.91947  0.85922  1.0000
  H   H2347     1.0  0.38536  0.70288  0.97048  1.0000
  C   C1369     1.0  0.42949  0.75599  0.94737  1.0000
  H   H2348     1.0  0.38870  0.70308  0.95159  1.0000
  C   C1370     1.0  0.47224  0.82952  0.86105  1.0000
  H   H2349     1.0  0.48693  0.73656  0.97365  1.0000
  H   H2350     1.0  0.40302  0.68977  0.98112  1.0000
  H   H2351     1.0  0.42838  0.72354  0.93777  1.0000
  H   H2352     1.0  0.45990  0.86996  0.96515  1.0000
  C   C1371     1.0  0.41370  0.84578  0.96978  1.0000
  H   H2353     1.0  0.34238  0.78384  0.95472  1.0000
  C   C1372     1.0  0.41768  0.73064  0.93523  1.0000
  C   C1373     1.0  0.45749  0.85917  0.96722  1.0000
  H   H2354     1.0  0.48029  0.67156  0.98378  1.0000
  H   H2355     1.0  0.39848  0.87418  0.97506  1.0000
  H   H2356     1.0  0.37235  0.79228  0.93853  1.0000
  C   C1374     1.0  0.45235  0.83668  0.98419  1.0000
  C   C1375     1.0  0.41357  0.70351  0.96040  1.0000
  H   H2357     1.0  0.42106  0.81390  0.86007  1.0000
  C   C1376     1.0  0.36525  0.78753  0.94898  1.0000
  H   H2358     1.0  0.48821  0.80808  0.84734  1.0000
  C   C1377     1.0  0.45344  0.75700  0.97826  1.0000
  N   N95       1.0  0.41972  0.89550  0.84905  1.0000
  H   H2359     1.0  0.49524  0.82014  0.89124  1.0000
  S   S397      1.0  0.48447  0.66592  0.94588  1.0000
  S   S398      1.0  0.45909  0.94976  0.78817  1.0000
  S   S399      1.0  0.49351  0.76199  0.92209  1.0000
  H   H2360     1.0  0.35488  0.81856  0.97734  1.0000
  H   H2361     1.0  0.39391  0.80380  0.95296  1.0000
  H   H2362     1.0  0.40391  0.85080  0.96458  1.0000
  C   C1378     1.0  0.45083  0.73602  0.94228  1.0000
  H   H2363     1.0  0.41965  0.73450  0.92307  1.0000
  C   C1379     1.0  0.46534  0.79845  0.87591  1.0000
  H   H2364     1.0  0.35116  0.78562  0.93560  1.0000
  C   C1380     1.0  0.41297  0.90804  0.87152  1.0000
  C   C1381     1.0  0.40062  0.88565  0.84213  1.0000
  H   H2365     1.0  0.47679  0.83270  0.84900  1.0000
  H   H2366     1.0  0.40778  0.87514  0.83916  1.0000
  H   H2367     1.0  0.46031  0.70222  0.87180  1.0000
  H   H2368     1.0  0.39497  0.78975  0.94331  1.0000
  H   H2369     1.0  0.41544  0.69500  0.95381  1.0000
  N   N96       1.0  0.40076  0.71633  0.95667  1.0000
  H   H2370     1.0  0.44497  0.97128  0.75860  1.0000
  C   C1382     1.0  0.40481  0.72259  0.94031  1.0000
  N   N97       1.0  0.45575  0.71099  0.89916  1.0000
  C   C1383     1.0  0.45513  0.72037  0.88378  1.0000
  C   C1384     1.0  0.45711  0.72099  0.90815  1.0000
  C   C1385     1.0  0.44112  0.70627  0.90537  1.0000
  C   C1386     1.0  0.46880  0.69783  0.89807  1.0000
  C   C1387     1.0  0.45251  0.71309  0.87255  1.0000
  H   H2371     1.0  0.35436  0.79467  0.98424  1.0000
  C   C1388     1.0  0.43933  0.69579  0.92072  1.0000
  H   H2372     1.0  0.48020  0.71604  0.91118  1.0000
  H   H2373     1.0  0.44624  0.73077  0.88420  1.0000
  C   C1389     1.0  0.48893  0.73387  0.93371  1.0000
  H   H2374     1.0  0.45433  0.71652  0.92019  1.0000
  H   H2375     1.0  0.44863  0.73164  0.90660  1.0000
  H   H2376     1.0  0.43165  0.71620  0.90583  1.0000
  H   H2377     1.0  0.43923  0.70010  0.89810  1.0000
  H   H2378     1.0  0.46616  0.68958  0.89361  1.0000
  C   C1390     1.0  0.40921  0.84287  0.98686  1.0000
  C   C1391     1.0  0.45517  0.66483  0.95137  1.0000
  H   H2379     1.0  0.44076  0.71205  0.87494  1.0000
  H   H2380     1.0  0.48504  0.80082  0.96054  1.0000
  H   H2381     1.0  0.46559  0.79194  0.89932  1.0000
  H   H2382     1.0  0.45027  0.82846  0.87450  1.0000
  H   H2383     1.0  0.39617  0.75137  0.95944  1.0000
  H   H2384     1.0  0.44113  0.70012  0.92946  1.0000
  H   H2385     1.0  0.44661  0.68463  0.92023  1.0000
  H   H2386     1.0  0.42772  0.69416  0.92417  1.0000
  H   H2387     1.0  0.45981  0.77388  0.98442  1.0000
  C   C1392     1.0  0.45722  0.82520  0.86407  1.0000
  H   H2388     1.0  0.44442  0.95270  0.75974  1.0000
  N   N98       1.0  0.45772  0.80939  0.86417  1.0000
  C   C1393     1.0  0.44178  0.80777  0.86775  1.0000
  N   N99       1.0  0.49143  0.90348  0.85776  1.0000
  H   H2389     1.0  0.47864  0.70129  0.88989  1.0000
  C   C1394     1.0  0.47256  0.72473  0.90478  1.0000
  C   C1395     1.0  0.35362  0.79027  0.97496  1.0000
  C   C1396     1.0  0.39902  0.97843  0.78147  1.0000
  H   H2390     1.0  0.36875  0.86928  0.98881  1.0000
  H   H2391     1.0  0.39080  0.98924  0.78171  1.0000
  H   H2392     1.0  0.36134  0.76918  0.98974  1.0000
  H   H2393     1.0  0.48215  0.91475  0.74583  1.0000
  S   S400      1.0  0.37248  0.66231  0.95163  1.0000
  H   H2394     1.0  0.44116  0.76067  0.98048  1.0000
  C   C1397     1.0  0.37969  0.86378  0.98274  1.0000
  H   H2395     1.0  0.40612  0.97776  0.75069  1.0000
  H   H2396     1.0  0.47981  0.88480  0.83770  1.0000
  C   C1398     1.0  0.44276  0.65852  0.95822  1.0000
  H   H2397     1.0  0.33691  0.70695  0.98797  1.0000
  H   H2398     1.0  0.47727  0.93173  0.83912  1.0000
  H   H2399     1.0  0.37948  0.86749  0.97078  1.0000
  H   H2400     1.0  0.38032  0.85173  0.98574  1.0000
  H   H2401     1.0  0.42294  0.98876  0.83226  1.0000
  H   H2402     1.0  0.49724  0.92938  0.83688  1.0000
  H   H2403     1.0  0.49885  0.95717  0.79819  1.0000
  H   H2404     1.0  0.49872  0.88241  0.83828  1.0000
  S   S401      1.0  0.44569  0.91145  0.74060  1.0000
  S   S402      1.0  0.49861  0.85028  0.87672  1.0000
  H   H2405     1.0  0.41562  0.85973  0.74029  1.0000
  H   H2406     1.0  0.56654  0.21483  0.00877  1.0000
  S   S403      1.0  0.51819  0.07857  0.17431  1.0000
  H   H2407     1.0  0.56055  0.99168  0.21374  1.0000
  C   C1399     1.0  0.50302  0.05342  0.07632  1.0000
  C   C1400     1.0  0.55586  0.03253  0.21894  1.0000
  C   C1401     1.0  0.54817  0.04533  0.21067  1.0000
  C   C1402     1.0  0.52391  0.99532  0.16041  1.0000
  C   C1403     1.0  0.55322  0.18833  0.00198  1.0000
  C   C1404     1.0  0.53115  0.05092  0.23334  1.0000
  Fe  Fe199     1.0  0.51507  0.06700  0.15827  1.0000
  C   C1405     1.0  0.51008  0.05042  0.13404  1.0000
  C   C1406     1.0  0.51641  0.19075  0.99260  1.0000
  H   H2408     1.0  0.53001  0.07113  0.08180  1.0000
  H   H2409     1.0  0.53613  0.20473  0.02104  1.0000
  H   H2410     1.0  0.53420  0.27241  0.99303  1.0000
  C   C1407     1.0  0.57257  0.18408  0.01611  1.0000
  H   H2411     1.0  0.54620  0.01490  0.16443  1.0000
  H   H2412     1.0  0.55724  0.19593  0.04264  1.0000
  C   C1408     1.0  0.50110  0.06556  0.06231  1.0000
  C   C1409     1.0  0.51637  0.08129  0.06520  1.0000
  Fe  Fe200     1.0  0.53228  0.05614  0.18260  1.0000
  C   C1410     1.0  0.50773  0.17114  0.01202  1.0000
  H   H2413     1.0  0.56557  0.02555  0.21344  1.0000
  S   S404      1.0  0.55332  0.04931  0.19124  1.0000
  Fe  Fe201     1.0  0.50788  0.21922  0.01456  1.0000
  C   C1411     1.0  0.53371  0.00721  0.21125  1.0000
  H   H2414     1.0  0.51454  0.05075  0.07818  1.0000
  C   C1412     1.0  0.54310  0.01010  0.19532  1.0000
  S   S405      1.0  0.51143  0.23015  0.03067  1.0000
  H   H2415     1.0  0.59010  0.19691  0.00924  1.0000
  S   S406      1.0  0.50424  0.26185  0.00699  1.0000
  H   H2416     1.0  0.53870  0.20687  0.04421  1.0000
  H   H2417     1.0  0.55879  0.16459  0.01300  1.0000
  C   C1413     1.0  0.51828  0.07717  0.08144  1.0000
  C   C1414     1.0  0.53585  0.05456  0.21791  1.0000
  H   H2418     1.0  0.57901  0.19791  0.02750  1.0000
  H   H2419     1.0  0.57594  0.99684  0.17290  1.0000
  H   H2420     1.0  0.56928  0.17559  0.02609  1.0000
  C   C1415     1.0  0.54932  0.17307  0.00904  1.0000
  C   C1416     1.0  0.51143  0.18498  0.00762  1.0000
  C   C1417     1.0  0.50482  0.06566  0.12942  1.0000
  N   N100      1.0  0.55885  0.19482  0.01149  1.0000
  H   H2421     1.0  0.56393  0.01000  0.15273  1.0000
  S   S407      1.0  0.50994  0.19458  0.02128  1.0000
  H   H2422     1.0  0.53118  0.99684  0.14957  1.0000
  C   C1418     1.0  0.55663  0.00622  0.16349  1.0000
  Fe  Fe202     1.0  0.52411  0.24330  0.01079  1.0000
  C   C1419     1.0  0.56477  0.00395  0.17604  1.0000
  H   H2423     1.0  0.53002  0.06460  0.21161  1.0000
  H   H2424     1.0  0.59255  0.18143  0.02424  1.0000
  S   S408      1.0  0.51330  0.04858  0.19946  1.0000
  H   H2425     1.0  0.51833  0.04632  0.14082  1.0000
  C   C1420     1.0  0.55081  0.02859  0.23433  1.0000
  H   H2426     1.0  0.51955  0.01814  0.16211  1.0000
  S   S409      1.0  0.54726  0.24423  0.01079  1.0000
  S   S410      1.0  0.52220  0.23091  0.99506  1.0000
  C   C1421     1.0  0.58402  0.19065  0.01945  1.0000
  H   H2427     1.0  0.55415  0.99585  0.16292  1.0000
  H   H2428     1.0  0.52327  0.01600  0.21198  1.0000
  H   H2429     1.0  0.53521  0.01231  0.18794  1.0000
  C   C1422     1.0  0.51020  0.08603  0.03410  1.0000
  H   H2430     1.0  0.55126  0.21758  0.00073  1.0000
  C   C1423     1.0  0.50492  0.04041  0.12966  1.0000
  S   S411      1.0  0.53043  0.04512  0.16557  1.0000
  H   H2431     1.0  0.52562  0.07387  0.05894  1.0000
  H   H2432     1.0  0.56927  0.00596  0.20193  1.0000
  N   N101      1.0  0.55666  0.99802  0.19142  1.0000
  S   S412      1.0  0.50127  0.01906  0.19162  1.0000
  H   H2433     1.0  0.50922  0.02863  0.13314  1.0000
  C   C1424     1.0  0.51753  0.00726  0.16756  1.0000
  H   H2434     1.0  0.54635  0.02078  0.19360  1.0000
  H   H2435     1.0  0.57903  0.17770  0.00740  1.0000
  Fe  Fe203     1.0  0.51007  0.03948  0.18193  1.0000
  C   C1425     1.0  0.50876  0.00495  0.18190  1.0000
  H   H2436     1.0  0.54311  0.18686  0.03118  1.0000
  Fe  Fe204     1.0  0.50122  0.24834  0.99283  1.0000
  C   C1426     1.0  0.54934  0.20408  0.03614  1.0000
  C   C1427     1.0  0.56188  0.20961  0.00264  1.0000
  H   H2437     1.0  0.56716  0.01481  0.17552  1.0000
  H   H2438     1.0  0.55314  0.21455  0.03121  1.0000
  C   C1428     1.0  0.54635  0.19736  0.02474  1.0000
  C   C1429     1.0  0.57066  0.25514  0.99264  1.0000
  S   S413      1.0  0.51094  0.07804  0.13549  1.0000
  H   H2439     1.0  0.50545  0.15265  0.00490  1.0000
  N   N102      1.0  0.50151  0.08099  0.06273  1.0000
  H   H2440     1.0  0.54650  0.16908  0.00055  1.0000
  H   H2441     1.0  0.50128  0.02026  0.23223  1.0000
  C   C1430     1.0  0.55510  0.25753  0.99672  1.0000
  H   H2442     1.0  0.53930  0.17365  0.01816  1.0000
  H   H2443     1.0  0.57753  0.24522  0.99801  1.0000
  H   H2444     1.0  0.54313  0.19612  0.99833  1.0000
  C   C1431     1.0  0.50857  0.16323  0.00144  1.0000
  H   H2445     1.0  0.51008  0.06130  0.05336  1.0000
  C   C1432     1.0  0.56648  0.99540  0.20223  1.0000
  H   H2446     1.0  0.52204  0.08326  0.03503  1.0000
  H   H2447     1.0  0.50201  0.04499  0.23394  1.0000
  H   H2448     1.0  0.51118  0.06995  0.08930  1.0000
  H   H2449     1.0  0.51665  0.08729  0.08567  1.0000
  H   H2450     1.0  0.53030  0.99651  0.21434  1.0000
  H   H2451     1.0  0.50396  0.16660  0.02363  1.0000
  H   H2452     1.0  0.56169  0.18666  0.99169  1.0000
  H   H2453     1.0  0.53951  0.00799  0.21947  1.0000
  H   H2454     1.0  0.50747  0.07659  0.03168  1.0000
  H   H2455     1.0  0.51852  0.09262  0.06066  1.0000
  H   H2456     1.0  0.50886  0.09529  0.02434  1.0000
  H   H2457     1.0  0.50121  0.04309  0.07477  1.0000
  H   H2458     1.0  0.52189  0.05829  0.23888  1.0000
  C   C1433     1.0  0.49931  0.09091  0.04793  1.0000
  H   H2459     1.0  0.50024  0.10234  0.04729  1.0000
  C   C1434     1.0  0.50039  0.99249  0.28343  1.0000
  H   H2460     1.0  0.72793  0.09228  0.42022  1.0000
  H   H2461     1.0  0.98004  0.27028  0.44954  1.0000
  H   H2462     1.0  0.99568  0.29483  0.46753  1.0000
  C   C1435     1.0  0.59109  0.01843  0.32517  1.0000
  Fe  Fe205     1.0  0.62432  0.01638  0.45979  1.0000
  S   S414      1.0  0.63072  0.02935  0.43650  1.0000
  H   H2463     1.0  0.96309  0.22643  0.45691  1.0000
  Fe  Fe206     1.0  0.69967  0.07990  0.45901  1.0000
  H   H2464     1.0  0.56463  0.01553  0.41472  1.0000
  S   S415      1.0  0.68684  0.09990  0.44586  1.0000
  Fe  Fe207     1.0  0.71702  0.04823  0.46027  1.0000
  H   H2465     1.0  0.78624  0.03573  0.32742  1.0000
  H   H2466     1.0  0.81296  0.01012  0.38014  1.0000
  H   H2467     1.0  0.92404  0.21333  0.38672  1.0000
  Fe  Fe208     1.0  0.72460  0.06727  0.47594  1.0000
  H   H2468     1.0  0.96163  0.31044  0.40748  1.0000
  S   S416      1.0  0.69257  0.05850  0.46454  1.0000
  S   S417      1.0  0.72397  0.06981  0.45231  1.0000
  Fe  Fe209     1.0  0.79652  0.10797  0.42200  1.0000
  S   S418      1.0  0.80140  0.08605  0.41565  1.0000
  S   S419      1.0  0.77312  0.11865  0.43185  1.0000
  Fe  Fe210     1.0  0.82850  0.11131  0.41179  1.0000
  S   S420      1.0  0.83634  0.08967  0.40449  1.0000
  S   S421      1.0  0.84440  0.12632  0.40729  1.0000
  Fe  Fe211     1.0  0.81571  0.09643  0.39509  1.0000
  S   S422      1.0  0.81900  0.09224  0.37239  1.0000
  Fe  Fe212     1.0  0.82146  0.08097  0.42555  1.0000
  S   S423      1.0  0.82782  0.05885  0.44046  1.0000
  S   S424      1.0  0.80908  0.11896  0.40046  1.0000
  S   S425      1.0  0.81535  0.10203  0.43385  1.0000
  Fe  Fe213     1.0  0.88084  0.19363  0.43090  1.0000
  S   S426      1.0  0.90034  0.19386  0.43938  1.0000
  S   S427      1.0  0.87029  0.21194  0.41419  1.0000
  Fe  Fe214     1.0  0.87747  0.16338  0.44976  1.0000
  S   S428      1.0  0.89682  0.16102  0.46020  1.0000
  S   S429      1.0  0.86342  0.14612  0.45611  1.0000
  Fe  Fe215     1.0  0.88716  0.18495  0.46151  1.0000
  H   H2469     1.0  0.57199  0.03578  0.38584  1.0000
  Fe  Fe216     1.0  0.90853  0.17020  0.43727  1.0000
  S   S430      1.0  0.93263  0.16194  0.42645  1.0000
  S   S431      1.0  0.86683  0.18659  0.45325  1.0000
  S   S432      1.0  0.89004  0.17065  0.42672  1.0000
  C   C1436     1.0  0.66178  0.05896  0.44502  1.0000
  C   C1437     1.0  0.77929  0.04766  0.39133  1.0000
  H   H2470     1.0  0.80341  0.04085  0.45039  1.0000
  H   H2471     1.0  0.76628  0.03700  0.33250  1.0000
  H   H2472     1.0  0.89535  0.17687  0.39433  1.0000
  C   C1438     1.0  0.84423  0.02069  0.41623  1.0000
  C   C1439     1.0  0.65786  0.04464  0.45532  1.0000
  H   H2473     1.0  0.62876  0.03352  0.29700  1.0000
  H   H2474     1.0  0.84967  0.03714  0.39661  1.0000
  H   H2475     1.0  0.96807  0.32232  0.38143  1.0000
  S   S433      1.0  0.65246  0.05344  0.34628  1.0000
  Fe  Fe217     1.0  0.71907  0.08239  0.37057  1.0000
  S   S434      1.0  0.72928  0.08361  0.34640  1.0000
  S   S435      1.0  0.70073  0.10099  0.37776  1.0000
  Fe  Fe218     1.0  0.73923  0.05293  0.37983  1.0000
  S   S436      1.0  0.75120  0.05177  0.35669  1.0000
  S   S437      1.0  0.74576  0.03396  0.39781  1.0000
  Fe  Fe219     1.0  0.75099  0.07556  0.35416  1.0000
  S   S438      1.0  0.77201  0.08331  0.34198  1.0000
  Fe  Fe220     1.0  0.72831  0.05966  0.35162  1.0000
  S   S439      1.0  0.72192  0.04689  0.33873  1.0000
  S   S440      1.0  0.74079  0.07609  0.37789  1.0000
  S   S441      1.0  0.71628  0.05915  0.37519  1.0000
  Fe  Fe221     1.0  0.92390  0.28428  0.39812  1.0000
  S   S442      1.0  0.92583  0.28629  0.37397  1.0000
  S   S443      1.0  0.91143  0.30190  0.41095  1.0000
  Fe  Fe222     1.0  0.94491  0.25399  0.40175  1.0000
  S   S444      1.0  0.94840  0.25285  0.37797  1.0000
  S   S445      1.0  0.95821  0.23864  0.41813  1.0000
  Fe  Fe223     1.0  0.95024  0.27646  0.37328  1.0000
  S   S446      1.0  0.96851  0.28470  0.35551  1.0000
  Fe  Fe224     1.0  0.92381  0.26260  0.38082  1.0000
  S   S447      1.0  0.90884  0.25585  0.37085  1.0000
  S   S448      1.0  0.94845  0.27695  0.39672  1.0000
  S   S449      1.0  0.92001  0.26127  0.40514  1.0000
  C   C1440     1.0  0.99549  0.24079  0.46193  1.0000
  C   C1441     1.0  0.96878  0.30537  0.37028  1.0000
  C   C1442     1.0  0.96979  0.30210  0.35664  1.0000
  C   C1443     1.0  0.82357  0.05278  0.36125  1.0000
  H   H2476     1.0  0.96786  0.29687  0.38026  1.0000
  H   H2477     1.0  0.73762  0.02829  0.37341  1.0000
  C   C1444     1.0  0.67174  0.05119  0.34492  1.0000
  C   C1445     1.0  0.67696  0.06272  0.34663  1.0000
  C   C1446     1.0  0.69231  0.06129  0.34531  1.0000
  C   C1447     1.0  0.70254  0.04837  0.34207  1.0000
  C   C1448     1.0  0.69731  0.03669  0.34077  1.0000
  C   C1449     1.0  0.68195  0.03811  0.34214  1.0000
  H   H2478     1.0  0.66912  0.07288  0.34880  1.0000
  H   H2479     1.0  0.69626  0.07036  0.34635  1.0000
  H   H2480     1.0  0.70515  0.02648  0.33883  1.0000
  H   H2481     1.0  0.67801  0.02910  0.34104  1.0000
  H   H2482     1.0  0.96428  0.20246  0.48083  1.0000
  C   C1450     1.0  0.99162  0.29551  0.43649  1.0000
  H   H2483     1.0  0.64324  0.06372  0.42830  1.0000
  H   H2484     1.0  0.58930  0.03370  0.37289  1.0000
  C   C1451     1.0  0.92079  0.28335  0.45726  1.0000
  C   C1452     1.0  0.92469  0.27419  0.44717  1.0000
  C   C1453     1.0  0.92178  0.27997  0.43300  1.0000
  C   C1454     1.0  0.91465  0.29484  0.42891  1.0000
  C   C1455     1.0  0.91046  0.30400  0.43911  1.0000
  C   C1456     1.0  0.91357  0.29824  0.45330  1.0000
  H   H2485     1.0  0.93003  0.26261  0.45023  1.0000
  H   H2486     1.0  0.92533  0.27287  0.42523  1.0000
  H   H2487     1.0  0.90486  0.31549  0.43605  1.0000
  H   H2488     1.0  0.91031  0.30527  0.46123  1.0000
  S   S450      1.0  0.62183  0.03047  0.35921  1.0000
  C   C1457     1.0  0.94606  0.16311  0.43532  1.0000
  C   C1458     1.0  0.94180  0.17032  0.44713  1.0000
  C   C1459     1.0  0.96124  0.15689  0.43040  1.0000
  H   H2489     1.0  0.93011  0.17499  0.45112  1.0000
  H   H2490     1.0  0.96458  0.15113  0.42140  1.0000
  C   C1460     1.0  0.88106  0.22432  0.40266  1.0000
  C   C1461     1.0  0.89411  0.22532  0.40592  1.0000
  C   C1462     1.0  0.90256  0.23527  0.39635  1.0000
  C   C1463     1.0  0.89808  0.24401  0.38340  1.0000
  C   C1464     1.0  0.88506  0.24300  0.38015  1.0000
  C   C1465     1.0  0.87647  0.23329  0.38985  1.0000
  H   H2491     1.0  0.89773  0.21841  0.41574  1.0000
  H   H2492     1.0  0.91275  0.23588  0.39876  1.0000
  H   H2493     1.0  0.88159  0.24973  0.37011  1.0000
  H   H2494     1.0  0.86639  0.23255  0.38728  1.0000
  C   C1466     1.0  0.99309  0.25399  0.39048  1.0000
  H   H2495     1.0  0.78164  0.02000  0.42804  1.0000
  S   S451      1.0  0.62950  0.99947  0.34754  1.0000
  H   H2496     1.0  0.82739  0.16897  0.44808  1.0000
  H   H2497     1.0  0.61150  0.01056  0.28304  1.0000
  H   H2498     1.0  0.70055  0.02341  0.37570  1.0000
  C   C1467     1.0  0.72811  0.00282  0.44708  1.0000
  H   H2499     1.0  0.93477  0.31414  0.48353  1.0000
  H   H2500     1.0  0.74002  0.00307  0.31525  1.0000
  S   S452      1.0  0.70083  0.07962  0.48207  1.0000
  C   C1468     1.0  0.84982  0.13131  0.42107  1.0000
  C   C1469     1.0  0.85839  0.14202  0.41678  1.0000
  C   C1470     1.0  0.86263  0.14663  0.42740  1.0000
  C   C1471     1.0  0.85846  0.14044  0.44243  1.0000
  C   C1472     1.0  0.84994  0.12963  0.44674  1.0000
  C   C1473     1.0  0.84556  0.12513  0.43610  1.0000
  H   H2501     1.0  0.86167  0.14691  0.40517  1.0000
  H   H2502     1.0  0.86908  0.15500  0.42393  1.0000
  H   H2503     1.0  0.84664  0.12483  0.45836  1.0000
  H   H2504     1.0  0.83885  0.11697  0.43951  1.0000
  C   C1474     1.0  0.80487  0.09080  0.36466  1.0000
  C   C1475     1.0  0.79096  0.08841  0.37317  1.0000
  C   C1476     1.0  0.78055  0.08615  0.36645  1.0000
  C   C1477     1.0  0.78408  0.08648  0.35120  1.0000
  C   C1478     1.0  0.79788  0.08912  0.34281  1.0000
  C   C1479     1.0  0.80823  0.09117  0.34950  1.0000
  H   H2505     1.0  0.78852  0.08786  0.38490  1.0000
  H   H2506     1.0  0.76999  0.08396  0.37302  1.0000
  H   H2507     1.0  0.80069  0.08942  0.33105  1.0000
  H   H2508     1.0  0.81896  0.09297  0.34286  1.0000
  C   C1480     1.0  0.69068  0.09964  0.42708  1.0000
  C   C1481     1.0  0.68429  0.11205  0.41743  1.0000
  C   C1482     1.0  0.68744  0.11232  0.40229  1.0000
  C   C1483     1.0  0.69695  0.10016  0.39676  1.0000
  C   C1484     1.0  0.70324  0.08761  0.40641  1.0000
  C   C1485     1.0  0.70003  0.08733  0.42163  1.0000
  H   H2509     1.0  0.67703  0.12156  0.42164  1.0000
  H   H2510     1.0  0.68256  0.12200  0.39483  1.0000
  H   H2511     1.0  0.71051  0.07814  0.40216  1.0000
  H   H2512     1.0  0.70486  0.07764  0.42910  1.0000
  C   C1486     1.0  0.75332  0.08285  0.46718  1.0000
  C   C1487     1.0  0.74389  0.09593  0.46135  1.0000
  C   C1488     1.0  0.75001  0.10722  0.45096  1.0000
  C   C1489     1.0  0.76550  0.10511  0.44582  1.0000
  C   C1490     1.0  0.77490  0.09195  0.45153  1.0000
  C   C1491     1.0  0.76882  0.08097  0.46241  1.0000
  H   H2513     1.0  0.73190  0.09748  0.46517  1.0000
  H   H2514     1.0  0.74271  0.11754  0.44693  1.0000
  H   H2515     1.0  0.78687  0.09028  0.44775  1.0000
  H   H2516     1.0  0.77614  0.07094  0.46702  1.0000
  H   H2517     1.0  0.93339  0.16771  0.36697  1.0000
  H   H2518     1.0  0.61702  0.07102  0.45409  1.0000
  C   C1492     1.0  0.63080  0.01972  0.42329  1.0000
  C   C1493     1.0  0.90124  0.18471  0.38554  1.0000
  H   H2519     1.0  0.63559  0.06847  0.46627  1.0000
  H   H2520     1.0  0.68023  0.03533  0.29743  1.0000
  H   H2521     1.0  0.75747  0.02160  0.35157  1.0000
  H   H2522     1.0  0.66475  0.08694  0.43828  1.0000
  H   H2523     1.0  0.66809  0.03728  0.45892  1.0000
  H   H2524     1.0  0.89686  0.06264  0.41996  1.0000
  H   H2525     1.0  0.85390  0.09538  0.45320  1.0000
  H   H2526     1.0  0.93915  0.22978  0.45780  1.0000
  H   H2527     1.0  0.80635  0.04149  0.36286  1.0000
  H   H2528     1.0  0.61849  0.06122  0.44030  1.0000
  C   C1494     1.0  0.97210  0.15784  0.43729  1.0000
  C   C1495     1.0  0.65575  0.08533  0.43400  1.0000
  C   C1496     1.0  0.84516  0.03508  0.40841  1.0000
  C   C1497     1.0  0.83988  0.04689  0.41576  1.0000
  C   C1498     1.0  0.83426  0.04423  0.43104  1.0000
  C   C1499     1.0  0.83379  0.02976  0.43893  1.0000
  H   H2529     1.0  0.84032  0.05800  0.40958  1.0000
  H   H2530     1.0  0.76132  0.00808  0.45714  1.0000
  C   C1500     1.0  0.79359  0.03701  0.45803  1.0000
  C   C1501     1.0  0.96635  0.21434  0.45801  1.0000
  H   H2531     1.0  0.56990  0.01773  0.30187  1.0000
  H   H2532     1.0  0.82255  0.05890  0.34983  1.0000
  H   H2533     1.0  0.96331  0.20748  0.40706  1.0000
  H   H2534     1.0  0.96352  0.18891  0.41848  1.0000
  H   H2535     1.0  0.95619  0.20474  0.42653  1.0000
  N   N103      1.0  0.80325  0.15209  0.43959  1.0000
  C   C1502     1.0  0.80631  0.14512  0.42642  1.0000
  C   C1503     1.0  0.80319  0.13970  0.45318  1.0000
  C   C1504     1.0  0.81571  0.15977  0.43753  1.0000
  C   C1505     1.0  0.78840  0.16307  0.43996  1.0000
  C   C1506     1.0  0.74830  0.01255  0.33921  1.0000
  C   C1507     1.0  0.79076  0.13116  0.45678  1.0000
  C   C1508     1.0  0.63131  0.00421  0.40213  1.0000
  C   C1509     1.0  0.78218  0.17054  0.45336  1.0000
  H   H2536     1.0  0.81608  0.13551  0.42679  1.0000
  H   H2537     1.0  0.79676  0.14056  0.42658  1.0000
  H   H2538     1.0  0.80214  0.14363  0.46330  1.0000
  H   H2539     1.0  0.81411  0.13148  0.45214  1.0000
  H   H2540     1.0  0.76150  0.02603  0.43352  1.0000
  H   H2541     1.0  0.70027  0.00749  0.31265  1.0000
  H   H2542     1.0  0.78905  0.17232  0.43010  1.0000
  H   H2543     1.0  0.77962  0.15815  0.43883  1.0000
  H   H2544     1.0  0.60551  0.00540  0.37589  1.0000
  H   H2545     1.0  0.89221  0.19431  0.38224  1.0000
  H   H2546     1.0  0.67342  0.07548  0.41685  1.0000
  H   H2547     1.0  0.77943  0.13847  0.45867  1.0000
  H   H2548     1.0  0.79186  0.12513  0.44811  1.0000
  H   H2549     1.0  0.79166  0.12263  0.46714  1.0000
  C   C1510     1.0  0.77613  0.01355  0.47489  1.0000
  H   H2550     1.0  0.78632  0.00434  0.47486  1.0000
  C   C1511     1.0  0.63775  0.07051  0.43685  1.0000
  H   H2551     1.0  0.99592  0.30799  0.38068  1.0000
  H   H2552     1.0  0.78447  0.16317  0.46390  1.0000
  H   H2553     1.0  0.76978  0.17376  0.45518  1.0000
  C   C1512     1.0  0.62909  0.99747  0.41717  1.0000
  C   C1513     1.0  0.72382  0.02104  0.30504  1.0000
  C   C1514     1.0  0.70761  0.04101  0.29117  1.0000
  H   H2554     1.0  0.76254  0.99697  0.48055  1.0000
  C   C1515     1.0  0.69783  0.01974  0.30894  1.0000
  C   C1516     1.0  0.93361  0.22093  0.46520  1.0000
  H   H2555     1.0  0.68231  0.03050  0.37130  1.0000
  C   C1517     1.0  0.68266  0.02408  0.30436  1.0000
  C   C1518     1.0  0.93371  0.20020  0.48653  1.0000
  H   H2556     1.0  0.72102  0.02697  0.31422  1.0000
  H   H2557     1.0  0.71780  0.04418  0.28343  1.0000
  N   N104      1.0  0.99381  0.19581  0.40845  1.0000
  H   H2558     1.0  0.57699  0.00436  0.36630  1.0000
  H   H2559     1.0  0.96552  0.21141  0.44794  1.0000
  H   H2560     1.0  0.69617  0.02346  0.31930  1.0000
  C   C1519     1.0  0.73693  0.00779  0.40836  1.0000
  C   C1520     1.0  0.65245  0.07807  0.46763  1.0000
  C   C1521     1.0  0.75993  0.01087  0.34831  1.0000
  H   H2561     1.0  0.69166  0.04888  0.31046  1.0000
  H   H2562     1.0  0.63340  0.08732  0.45730  1.0000
  H   H2563     1.0  0.56917  0.03849  0.36095  1.0000
  H   H2564     1.0  0.78449  0.04705  0.45888  1.0000
  H   H2565     1.0  0.79075  0.03007  0.43985  1.0000
  N   N105      1.0  0.58170  0.01326  0.38265  1.0000
  H   H2566     1.0  0.90402  0.21450  0.37143  1.0000
  C   C1522     1.0  0.59389  0.00338  0.33192  1.0000
  H   H2567     1.0  0.94471  0.15516  0.37912  1.0000
  C   C1523     1.0  0.93498  0.16476  0.37849  1.0000
  H   H2568     1.0  0.75118  0.03170  0.46338  1.0000
  H   H2569     1.0  0.66560  0.09468  0.41136  1.0000
  C   C1524     1.0  0.73586  0.01944  0.38289  1.0000
  H   H2570     1.0  0.77873  0.11509  0.39477  1.0000
  H   H2571     1.0  0.63418  0.03784  0.40474  1.0000
  C   C1525     1.0  0.63338  0.01872  0.39762  1.0000
  H   H2572     1.0  0.68171  0.01585  0.29874  1.0000
  H   H2573     1.0  0.71494  0.11317  0.42906  1.0000
  H   H2574     1.0  0.55810  0.01786  0.39247  1.0000
  H   H2575     1.0  0.79197  0.01278  0.32080  1.0000
  H   H2576     1.0  0.79106  0.01660  0.36514  1.0000
  C   C1526     1.0  0.85832  0.23445  0.47922  1.0000
  H   H2577     1.0  0.65510  0.08181  0.41221  1.0000
  N   N106      1.0  0.87484  0.25800  0.43344  1.0000
  C   C1527     1.0  0.88061  0.24161  0.43902  1.0000
  C   C1528     1.0  0.85820  0.26157  0.43947  1.0000
  C   C1529     1.0  0.88241  0.26646  0.43920  1.0000
  C   C1530     1.0  0.87858  0.26091  0.41679  1.0000
  C   C1531     1.0  0.89771  0.23613  0.43758  1.0000
  C   C1532     1.0  0.84914  0.25297  0.43524  1.0000
  C   C1533     1.0  0.87448  0.28260  0.44035  1.0000
  C   C1534     1.0  0.87370  0.27692  0.40836  1.0000
  H   H2578     1.0  0.87552  0.23819  0.45087  1.0000
  H   H2579     1.0  0.87725  0.23485  0.43327  1.0000
  H   H2580     1.0  0.85312  0.27349  0.43602  1.0000
  H   H2581     1.0  0.85585  0.25940  0.45178  1.0000
  H   H2582     1.0  0.88376  0.26083  0.45070  1.0000
  H   H2583     1.0  0.89390  0.26660  0.43243  1.0000
  H   H2584     1.0  0.89080  0.25781  0.41274  1.0000
  H   H2585     1.0  0.87447  0.25353  0.41249  1.0000
  H   H2586     1.0  0.90036  0.22393  0.44162  1.0000
  H   H2587     1.0  0.90390  0.23848  0.42599  1.0000
  H   H2588     1.0  0.90199  0.24075  0.44455  1.0000
  H   H2589     1.0  0.85029  0.25503  0.42310  1.0000
  H   H2590     1.0  0.85214  0.24089  0.43985  1.0000
  H   H2591     1.0  0.83710  0.25681  0.44005  1.0000
  H   H2592     1.0  0.87201  0.28977  0.42980  1.0000
  H   H2593     1.0  0.88195  0.28748  0.44373  1.0000
  H   H2594     1.0  0.86410  0.28308  0.44910  1.0000
  H   H2595     1.0  0.88212  0.28339  0.40700  1.0000
  H   H2596     1.0  0.86253  0.28274  0.41348  1.0000
  H   H2597     1.0  0.87267  0.27666  0.39719  1.0000
  N   N107      1.0  0.86826  0.07448  0.43456  1.0000
  C   C1535     1.0  0.85499  0.07423  0.44744  1.0000
  C   C1536     1.0  0.86738  0.06452  0.42526  1.0000
  C   C1537     1.0  0.86683  0.09032  0.42587  1.0000
  C   C1538     1.0  0.88226  0.06923  0.44068  1.0000
  C   C1539     1.0  0.85361  0.08371  0.45857  1.0000
  C   C1540     1.0  0.86993  0.04780  0.43235  1.0000
  H   H2598     1.0  0.87459  0.10491  0.40526  1.0000
  C   C1541     1.0  0.89729  0.06670  0.42949  1.0000
  H   H2599     1.0  0.84437  0.07800  0.44336  1.0000
  H   H2600     1.0  0.85500  0.06281  0.45410  1.0000
  H   H2601     1.0  0.87553  0.06545  0.41455  1.0000
  H   H2602     1.0  0.85629  0.06797  0.42217  1.0000
  H   H2603     1.0  0.85489  0.09580  0.42566  1.0000
  H   H2604     1.0  0.87063  0.09704  0.43128  1.0000
  H   H2605     1.0  0.88299  0.07739  0.44658  1.0000
  H   H2606     1.0  0.88193  0.05896  0.44947  1.0000
  H   H2607     1.0  0.69519  0.02434  0.27598  1.0000
  Fe  Fe225     1.0  0.65092  0.00567  0.33436  1.0000
  S   S453      1.0  0.60737  0.00251  0.46549  1.0000
  C   C1542     1.0  0.88273  0.23803  0.47793  1.0000
  H   H2608     1.0  0.86961  0.04173  0.42416  1.0000
  H   H2609     1.0  0.88101  0.04327  0.43534  1.0000
  Fe  Fe226     1.0  0.63422  0.00696  0.36570  1.0000
  N   N108      1.0  0.94158  0.21242  0.47760  1.0000
  C   C1543     1.0  0.70748  0.02202  0.27237  1.0000
  H   H2610     1.0  0.90161  0.07698  0.42542  1.0000
  H   H2611     1.0  0.95392  0.23823  0.47441  1.0000
  H   H2612     1.0  0.64043  0.00883  0.30395  1.0000
  H   H2613     1.0  0.64979  0.04652  0.46569  1.0000
  S   S454      1.0  0.65676  0.01072  0.35328  1.0000
  C   C1544     1.0  0.56870  0.00530  0.41019  1.0000
  H   H2614     1.0  0.60741  0.99920  0.30064  1.0000
  C   C1545     1.0  0.99085  0.23627  0.47720  1.0000
  H   H2615     1.0  0.82599  0.06043  0.36660  1.0000
  H   H2616     1.0  0.56136  0.99754  0.41642  1.0000
  H   H2617     1.0  0.71593  0.01455  0.48080  1.0000
  C   C1546     1.0  0.62498  0.06340  0.44716  1.0000
  C   C1547     1.0  0.95797  0.29583  0.44725  1.0000
  H   H2618     1.0  0.99391  0.32084  0.45126  1.0000
  C   C1548     1.0  0.96165  0.28999  0.46282  1.0000
  H   H2619     1.0  0.97690  0.30742  0.42218  1.0000
  H   H2620     1.0  0.95762  0.30790  0.44418  1.0000
  H   H2621     1.0  0.94619  0.29514  0.44880  1.0000
  H   H2622     1.0  0.57980  0.99945  0.41263  1.0000
  H   H2623     1.0  0.81980  0.15941  0.40904  1.0000
  H   H2624     1.0  0.80893  0.16807  0.45838  1.0000
  H   H2625     1.0  0.95894  0.27904  0.46815  1.0000
  N   N109      1.0  0.92659  0.19181  0.38221  1.0000
  Fe  Fe227     1.0  0.90222  0.27619  0.48969  1.0000
  H   H2626     1.0  0.83317  0.04316  0.36028  1.0000
  C   C1549     1.0  0.80962  0.05013  0.39407  1.0000
  H   H2627     1.0  0.93380  0.32293  0.38719  1.0000
  N   N110      1.0  0.77486  0.02174  0.45929  1.0000
  H   H2628     1.0  0.76334  0.99327  0.39271  1.0000
  C   C1550     1.0  0.80505  0.04528  0.41102  1.0000
  C   C1551     1.0  0.77135  0.01686  0.43520  1.0000
  C   C1552     1.0  0.91179  0.18952  0.39213  1.0000
  H   H2629     1.0  0.83178  0.02958  0.38412  1.0000
  S   S455      1.0  0.92465  0.27600  0.47490  1.0000
  H   H2630     1.0  0.80310  0.06160  0.39083  1.0000
  H   H2631     1.0  0.82133  0.05142  0.39156  1.0000
  H   H2632     1.0  0.73694  0.01558  0.34607  1.0000
  H   H2633     1.0  0.56548  0.99935  0.39130  1.0000
  H   H2634     1.0  0.77748  0.02101  0.48124  1.0000
  H   H2635     1.0  0.79666  0.03198  0.46894  1.0000
  H   H2636     1.0  0.91255  0.21627  0.35219  1.0000
  H   H2637     1.0  0.92528  0.16082  0.38633  1.0000
  C   C1553     1.0  0.87989  0.21368  0.47815  1.0000
  H   H2638     1.0  0.79286  0.04610  0.41469  1.0000
  H   H2639     1.0  0.81120  0.03392  0.41519  1.0000
  H   H2640     1.0  0.80777  0.05284  0.41629  1.0000
  H   H2641     1.0  0.99305  0.17270  0.41542  1.0000
  H   H2642     1.0  0.75118  0.04854  0.44193  1.0000
  N   N111      1.0  0.68157  0.03032  0.40221  1.0000
  C   C1554     1.0  0.69704  0.02788  0.40484  1.0000
  C   C1555     1.0  0.68172  0.01873  0.39427  1.0000
  C   C1556     1.0  0.67024  0.02876  0.41656  1.0000
  C   C1557     1.0  0.67740  0.04576  0.39319  1.0000
  C   C1558     1.0  0.69879  0.03725  0.41473  1.0000
  C   C1559     1.0  0.68933  0.02119  0.37777  1.0000
  C   C1560     1.0  0.67342  0.01386  0.42761  1.0000
  C   C1561     1.0  0.66198  0.05010  0.38898  1.0000
  H   H2643     1.0  0.70134  0.01608  0.40983  1.0000
  H   H2644     1.0  0.70507  0.03022  0.39418  1.0000
  H   H2645     1.0  0.67022  0.01756  0.39514  1.0000
  H   H2646     1.0  0.68749  0.00758  0.39960  1.0000
  H   H2647     1.0  0.66883  0.03779  0.42224  1.0000
  H   H2648     1.0  0.65902  0.03005  0.41446  1.0000
  H   H2649     1.0  0.67712  0.05413  0.39931  1.0000
  H   H2650     1.0  0.68608  0.04796  0.38294  1.0000
  H   H2651     1.0  0.71064  0.03413  0.41588  1.0000
  H   H2652     1.0  0.69640  0.04926  0.40976  1.0000
  H   H2653     1.0  0.69196  0.03504  0.42608  1.0000
  C   C1562     1.0  0.77679  0.03282  0.32508  1.0000
  S   S456      1.0  0.85926  0.26223  0.48074  1.0000
  H   H2654     1.0  0.65354  0.03868  0.44959  1.0000
  Fe  Fe228     1.0  0.59951  0.01063  0.48671  1.0000
  H   H2655     1.0  0.66448  0.01399  0.43781  1.0000
  H   H2656     1.0  0.68417  0.01174  0.43092  1.0000
  H   H2657     1.0  0.65309  0.05489  0.39768  1.0000
  H   H2658     1.0  0.65878  0.04075  0.38701  1.0000
  H   H2659     1.0  0.66232  0.05840  0.37835  1.0000
  C   C1563     1.0  0.76200  0.03512  0.46008  1.0000
  H   H2660     1.0  0.93823  0.31601  0.36611  1.0000
  C   C1564     1.0  0.92563  0.19847  0.36626  1.0000
  C   C1565     1.0  0.95778  0.20541  0.47200  1.0000
  C   C1566     1.0  0.72989  0.99711  0.40772  1.0000
  H   H2661     1.0  0.50201  0.04977  0.25689  1.0000
  H   H2662     1.0  0.90523  0.19995  0.39569  1.0000
  H   H2663     1.0  0.76048  0.05834  0.44851  1.0000
  H   H2664     1.0  0.74000  0.00757  0.41841  1.0000
  H   H2665     1.0  0.94929  0.17932  0.37628  1.0000
  H   H2666     1.0  0.98371  0.15275  0.43364  1.0000
  C   C1567     1.0  0.99889  0.24612  0.41480  1.0000
  C   C1568     1.0  0.96510  0.20007  0.41779  1.0000
  C   C1569     1.0  0.66277  0.08399  0.41776  1.0000
  H   H2667     1.0  0.61164  0.02949  0.29636  1.0000
  C   C1570     1.0  0.57948  0.01461  0.36732  1.0000
  C   C1571     1.0  0.99259  0.20839  0.39509  1.0000
  C   C1572     1.0  0.78187  0.01786  0.35958  1.0000
  H   H2668     1.0  0.82965  0.02761  0.45079  1.0000
  C   C1573     1.0  0.76019  0.10452  0.40536  1.0000
  C   C1574     1.0  0.70200  0.05114  0.30248  1.0000
  H   H2669     1.0  0.69805  0.03045  0.45550  1.0000
  H   H2670     1.0  0.93990  0.17276  0.39460  1.0000
  H   H2671     1.0  0.69918  0.06285  0.29650  1.0000
  H   H2672     1.0  0.91362  0.18126  0.40250  1.0000
  H   H2673     1.0  0.88702  0.08717  0.40782  1.0000
  H   H2674     1.0  0.97338  0.28921  0.46292  1.0000
  C   C1575     1.0  0.63294  0.02651  0.40822  1.0000
  H   H2675     1.0  0.67365  0.02437  0.31449  1.0000
  C   C1576     1.0  0.95925  0.28958  0.42366  1.0000
  C   C1577     1.0  0.98092  0.29555  0.42712  1.0000
  H   H2676     1.0  0.94947  0.28454  0.42882  1.0000
  H   H2677     1.0  0.76001  0.07423  0.41839  1.0000
  H   H2678     1.0  0.74291  0.06846  0.42191  1.0000
  H   H2679     1.0  0.69907  0.04441  0.28434  1.0000
  H   H2680     1.0  0.71064  0.05047  0.30850  1.0000
  H   H2681     1.0  0.66362  0.00437  0.26601  1.0000
  H   H2682     1.0  0.83779  0.00692  0.43757  1.0000
  H   H2683     1.0  0.95459  0.29767  0.47007  1.0000
  H   H2684     1.0  0.74893  0.00212  0.33613  1.0000
  N   N112      1.0  0.96803  0.28826  0.43503  1.0000
  H   H2685     1.0  0.82440  0.02058  0.36493  1.0000
  H   H2686     1.0  0.77471  0.04944  0.38136  1.0000
  H   H2687     1.0  0.99639  0.28428  0.44238  1.0000
  C   C1578     1.0  0.71989  0.00525  0.48970  1.0000
  C   C1579     1.0  0.95266  0.17136  0.45390  1.0000
  C   C1580     1.0  0.64141  0.00091  0.27733  1.0000
  H   H2688     1.0  0.76171  0.04045  0.46913  1.0000
  H   H2689     1.0  0.67340  0.00450  0.42306  1.0000
  H   H2690     1.0  0.85754  0.21225  0.47910  1.0000
  H   H2691     1.0  0.94671  0.31278  0.42365  1.0000
  C   C1581     1.0  0.86460  0.21947  0.47863  1.0000
  C   C1582     1.0  0.69691  0.00874  0.45438  1.0000
  H   H2692     1.0  0.98166  0.19090  0.43119  1.0000
  H   H2693     1.0  0.94926  0.17672  0.46315  1.0000
  H   H2694     1.0  0.96617  0.28330  0.41499  1.0000
  H   H2695     1.0  0.93613  0.20731  0.40655  1.0000
  C   C1583     1.0  0.80879  0.04807  0.36943  1.0000
  H   H2696     1.0  0.55658  0.01851  0.24061  1.0000
  H   H2697     1.0  0.84643  0.23880  0.47999  1.0000
  H   H2698     1.0  0.62774  0.99963  0.43917  1.0000
  H   H2699     1.0  0.78001  0.02919  0.35273  1.0000
  S   S457      1.0  0.72977  0.02982  0.44878  1.0000
  H   H2700     1.0  0.95903  0.26026  0.43726  1.0000
  C   C1584     1.0  0.74898  0.07720  0.41530  1.0000
  H   H2701     1.0  0.74123  0.09261  0.42986  1.0000
  C   C1585     1.0  0.73945  0.01924  0.39613  1.0000
  H   H2702     1.0  0.91998  0.22278  0.36367  1.0000
  C   C1586     1.0  0.70435  0.01973  0.45340  1.0000
  H   H2703     1.0  0.58726  0.02251  0.40652  1.0000
  C   C1587     1.0  0.97419  0.27203  0.44054  1.0000
  H   H2704     1.0  0.60374  0.02352  0.39195  1.0000
  H   H2705     1.0  0.75064  0.07682  0.40356  1.0000
  H   H2706     1.0  0.66013  0.06731  0.47089  1.0000
  H   H2707     1.0  0.94270  0.20374  0.45185  1.0000
  H   H2708     1.0  0.92891  0.21908  0.44491  1.0000
  H   H2709     1.0  0.77518  0.03904  0.31384  1.0000
  H   H2710     1.0  0.74020  0.00047  0.44430  1.0000
  C   C1588     1.0  0.81888  0.16216  0.45151  1.0000
  Fe  Fe229     1.0  0.54322  0.00986  0.27026  1.0000
  H   H2711     1.0  0.76309  0.10312  0.41620  1.0000
  Fe  Fe230     1.0  0.64430  0.03385  0.34560  1.0000
  H   H2712     1.0  0.62188  0.00806  0.31161  1.0000
  H   H2713     1.0  0.63522  0.02399  0.38601  1.0000
  H   H2714     1.0  0.73357  0.02493  0.29712  1.0000
  H   H2715     1.0  0.71072  0.01364  0.26540  1.0000
  C   C1589     1.0  0.93208  0.21161  0.45517  1.0000
  S   S458      1.0  0.84994  0.00618  0.40679  1.0000
  H   H2716     1.0  0.93419  0.24472  0.47403  1.0000
  H   H2717     1.0  0.79315  0.02771  0.40226  1.0000
  C   C1590     1.0  0.76135  0.04752  0.44593  1.0000
  C   C1591     1.0  0.97562  0.24339  0.41134  1.0000
  H   H2718     1.0  0.72615  0.00890  0.37196  1.0000
  H   H2719     1.0  0.92219  0.22698  0.46974  1.0000
  C   C1592     1.0  0.96266  0.26228  0.44642  1.0000
  C   C1593     1.0  0.58318  0.02816  0.38367  1.0000
  H   H2720     1.0  0.96783  0.25132  0.45250  1.0000
  C   C1594     1.0  0.73987  0.09237  0.41876  1.0000
  H   H2721     1.0  0.94472  0.30501  0.40959  1.0000
  H   H2722     1.0  0.86950  0.08961  0.40257  1.0000
  H   H2723     1.0  0.95862  0.19472  0.46912  1.0000
  H   H2724     1.0  0.98761  0.21905  0.39874  1.0000
  H   H2725     1.0  0.62902  0.05265  0.45430  1.0000
  H   H2726     1.0  0.74922  0.02158  0.32922  1.0000
  C   C1595     1.0  0.96784  0.16525  0.44896  1.0000
  C   C1596     1.0  0.64189  0.07665  0.45873  1.0000
  S   S459      1.0  0.61487  0.02626  0.48009  1.0000
  C   C1597     1.0  0.78632  0.00575  0.35048  1.0000
  H   H2727     1.0  0.76673  0.09443  0.40116  1.0000
  C   C1598     1.0  0.79362  0.03511  0.39108  1.0000
  H   H2728     1.0  0.67133  0.06106  0.44798  1.0000
  H   H2729     1.0  0.97246  0.25081  0.38895  1.0000
  C   C1599     1.0  0.98045  0.19922  0.42071  1.0000
  S   S460      1.0  0.88290  0.29080  0.48004  1.0000
  H   H2730     1.0  0.71432  0.00427  0.28997  1.0000
  H   H2731     1.0  0.79787  0.00587  0.34389  1.0000
  H   H2732     1.0  0.68485  0.01088  0.45750  1.0000
  C   C1600     1.0  0.99827  0.29977  0.47543  1.0000
  H   H2733     1.0  0.63201  0.08139  0.43088  1.0000
  H   H2734     1.0  0.77085  0.04596  0.43654  1.0000
  H   H2735     1.0  0.97960  0.21008  0.42319  1.0000
  H   H2736     1.0  0.92147  0.32044  0.35891  1.0000
  H   H2737     1.0  0.90064  0.21851  0.47744  1.0000
  H   H2738     1.0  0.98282  0.26726  0.43163  1.0000
  H   H2739     1.0  0.73914  0.11901  0.42378  1.0000
  C   C1601     1.0  0.77215  0.01125  0.45166  1.0000
  H   H2740     1.0  0.92232  0.19118  0.36123  1.0000
  C   C1602     1.0  0.62976  0.00990  0.30076  1.0000
  H   H2741     1.0  0.84268  0.08382  0.46650  1.0000
  C   C1603     1.0  0.97963  0.24955  0.39630  1.0000
  H   H2742     1.0  0.75734  0.00283  0.35895  1.0000
  S   S461      1.0  0.53665  0.99962  0.29438  1.0000
  H   H2743     1.0  0.60064  0.99925  0.34018  1.0000
  H   H2744     1.0  0.81378  0.17080  0.42987  1.0000
  C   C1604     1.0  0.88890  0.22302  0.47770  1.0000
  H   H2745     1.0  0.95281  0.26714  0.45417  1.0000
  H   H2746     1.0  0.55577  0.02683  0.36923  1.0000
  C   C1605     1.0  0.95281  0.30546  0.41576  1.0000
  N   N113      1.0  0.74367  0.10586  0.40743  1.0000
  H   H2747     1.0  0.76630  0.11781  0.38300  1.0000
  Fe  Fe231     1.0  0.61909  0.02338  0.33979  1.0000
  S   S462      1.0  0.59842  0.03108  0.32988  1.0000
  H   H2748     1.0  0.57988  0.03523  0.30930  1.0000
  C   C1606     1.0  0.76671  0.11729  0.39455  1.0000
  C   C1607     1.0  0.82258  0.01544  0.37688  1.0000
  H   H2749     1.0  0.92315  0.20541  0.46066  1.0000
  H   H2750     1.0  0.59893  0.00053  0.39508  1.0000
  H   H2751     1.0  0.71268  0.13234  0.42049  1.0000
  S   S463      1.0  0.81150  0.99848  0.42696  1.0000
  H   H2752     1.0  0.72132  0.00087  0.32218  1.0000
  C   C1608     1.0  0.57646  0.01371  0.31032  1.0000
  C   C1609     1.0  0.73515  0.11926  0.41386  1.0000
  H   H2753     1.0  0.72406  0.12605  0.38412  1.0000
  C   C1610     1.0  0.62899  0.00515  0.42768  1.0000
  H   H2754     1.0  0.77433  0.01455  0.31764  1.0000
  H   H2755     1.0  0.73981  0.11962  0.37097  1.0000
  C   C1611     1.0  0.71807  0.12101  0.41851  1.0000
  H   H2756     1.0  0.74878  0.09874  0.38676  1.0000
  S   S464      1.0  0.66566  0.99291  0.31735  1.0000
  H   H2757     1.0  0.90669  0.17895  0.37632  1.0000
  H   H2758     1.0  0.64709  0.09593  0.43375  1.0000
  H   H2759     1.0  0.93687  0.19967  0.35940  1.0000
  C   C1612     1.0  0.73970  0.10612  0.39316  1.0000
  H   H2760     1.0  0.73722  0.12972  0.40624  1.0000
  H   H2761     1.0  0.72951  0.10166  0.39560  1.0000
  H   H2762     1.0  0.71335  0.11939  0.40989  1.0000
  H   H2763     1.0  0.76139  0.12811  0.39773  1.0000
  S   S465      1.0  0.64035  0.02924  0.32549  1.0000
  H   H2764     1.0  0.88992  0.24521  0.47702  1.0000
  H   H2765     1.0  0.69067  0.01113  0.37357  1.0000
  H   H2766     1.0  0.78644  0.18066  0.45136  1.0000
  S   S466      1.0  0.64196  0.99846  0.46970  1.0000
  H   H2767     1.0  0.56634  0.02699  0.35081  1.0000
  C   C1613     1.0  0.93824  0.17743  0.38309  1.0000
  H   H2768     1.0  0.50548  0.99566  0.31220  1.0000
  C   C1614     1.0  0.56826  0.00885  0.39365  1.0000
  N   N114      1.0  0.71084  0.02455  0.29755  1.0000
  H   H2769     1.0  0.86100  0.04516  0.44209  1.0000
  H   H2770     1.0  0.94278  0.20462  0.38008  1.0000
  S   S467      1.0  0.56793  0.00189  0.26929  1.0000
  H   H2771     1.0  0.63605  0.01025  0.26933  1.0000
  H   H2772     1.0  0.79898  0.01554  0.45253  1.0000
  C   C1615     1.0  0.58787  0.99359  0.32801  1.0000
  H   H2773     1.0  0.98242  0.23651  0.43224  1.0000
  H   H2774     1.0  0.86238  0.07892  0.46519  1.0000
  C   C1616     1.0  0.53839  0.03778  0.24155  1.0000
  H   H2775     1.0  0.69203  0.00936  0.48563  1.0000
  C   C1617     1.0  0.82086  0.02643  0.38661  1.0000
  H   H2776     1.0  0.65837  0.02328  0.48445  1.0000
  C   C1618     1.0  0.58218  0.02358  0.31452  1.0000
  C   C1619     1.0  0.83842  0.01805  0.43148  1.0000
  H   H2777     1.0  0.81145  0.14895  0.40240  1.0000
  C   C1620     1.0  0.80948  0.15539  0.41101  1.0000
  H   H2778     1.0  0.73163  0.99709  0.30425  1.0000
  H   H2779     1.0  0.83264  0.00644  0.37850  1.0000
  C   C1621     1.0  0.73631  0.12134  0.38252  1.0000
  H   H2780     1.0  0.74213  0.12957  0.38293  1.0000
  C   C1622     1.0  0.72589  0.99762  0.39461  1.0000
  C   C1623     1.0  0.93203  0.20241  0.38741  1.0000
  C   C1624     1.0  0.78973  0.02568  0.45184  1.0000
  H   H2781     1.0  0.81966  0.01996  0.39819  1.0000
  C   C1625     1.0  0.71997  0.01673  0.44967  1.0000
  H   H2782     1.0  0.90560  0.05788  0.43503  1.0000
  N   N115      1.0  0.80819  0.03996  0.38529  1.0000
  H   H2783     1.0  0.79992  0.16486  0.40912  1.0000
  H   H2784     1.0  0.67344  0.04082  0.48380  1.0000
  C   C1626     1.0  0.87510  0.09286  0.40951  1.0000
  H   H2785     1.0  0.82653  0.15340  0.43211  1.0000
  H   H2786     1.0  0.78090  0.05838  0.39191  1.0000
  H   H2787     1.0  0.77070  0.04457  0.40131  1.0000
  C   C1627     1.0  0.77988  0.01608  0.32574  1.0000
  C   C1628     1.0  0.62403  0.02620  0.29331  1.0000
  H   H2788     1.0  0.66678  0.05618  0.43400  1.0000
  S   S468      1.0  0.53158  0.03288  0.26073  1.0000
  H   H2789     1.0  0.92434  0.19460  0.41152  1.0000
  C   C1629     1.0  0.91488  0.21384  0.36342  1.0000
  S   S469      1.0  0.98110  0.16767  0.45730  1.0000
  C   C1630     1.0  0.93427  0.19775  0.40349  1.0000
  N   N116      1.0  0.64921  0.07254  0.44391  1.0000
  H   H2790     1.0  0.97234  0.31045  0.33314  1.0000
  H   H2791     1.0  0.79259  0.02795  0.38427  1.0000
  H   H2792     1.0  0.65887  0.08669  0.46178  1.0000
  H   H2793     1.0  0.62748  0.02851  0.28112  1.0000
  H   H2794     1.0  0.82386  0.15151  0.45832  1.0000
  H   H2795     1.0  0.98604  0.30300  0.44428  1.0000
  C   C1631     1.0  0.98536  0.24144  0.42062  1.0000
  H   H2796     1.0  0.77185  0.01654  0.36858  1.0000
  H   H2797     1.0  0.94426  0.18861  0.40478  1.0000
  C   C1632     1.0  0.96904  0.31968  0.37093  1.0000
  H   H2798     1.0  0.79981  0.05834  0.36871  1.0000
  H   H2799     1.0  0.97844  0.21096  0.45823  1.0000
  C   C1633     1.0  0.71558  0.01591  0.28539  1.0000
  C   C1634     1.0  0.56690  0.02753  0.36205  1.0000
  C   C1635     1.0  0.59596  0.00177  0.38438  1.0000
  H   H2800     1.0  0.71095  0.03216  0.26516  1.0000
  C   C1636     1.0  0.72935  0.00846  0.38205  1.0000
  C   C1637     1.0  0.92867  0.32306  0.47580  1.0000
  H   H2801     1.0  0.50308  0.02018  0.25019  1.0000
  C   C1638     1.0  0.99489  0.24231  0.48681  1.0000
  H   H2802     1.0  0.58997  0.01591  0.35900  1.0000
  H   H2803     1.0  0.75205  0.01491  0.48464  1.0000
  H   H2804     1.0  0.59055  0.03998  0.39569  1.0000
  C   C1639     1.0  0.86734  0.24369  0.47923  1.0000
  H   H2805     1.0  0.72769  0.01500  0.28025  1.0000
  H   H2806     1.0  0.65509  0.01450  0.28034  1.0000
  N   N117      1.0  0.77606  0.00626  0.34074  1.0000
  C   C1640     1.0  0.97149  0.31297  0.34369  1.0000
  C   C1641     1.0  0.59161  0.02831  0.39523  1.0000
  C   C1642     1.0  0.57934  0.99864  0.31704  1.0000
  C   C1643     1.0  0.72935  0.00455  0.31196  1.0000
  H   H2807     1.0  0.76985  0.00775  0.43111  1.0000
  H   H2808     1.0  0.99598  0.25876  0.37879  1.0000
  Fe  Fe232     1.0  0.69518  0.05743  0.48725  1.0000
  C   C1644     1.0  0.65652  0.00377  0.27733  1.0000
  H   H2809     1.0  0.93475  0.19204  0.47986  1.0000
  C   C1645     1.0  0.94015  0.22239  0.48789  1.0000
  H   H2810     1.0  0.73908  0.99859  0.47263  1.0000
  H   H2811     1.0  0.78096  0.00077  0.45254  1.0000
  S   S470      1.0  0.71910  0.04498  0.48356  1.0000
  H   H2812     1.0  0.50976  0.99757  0.28110  1.0000
  C   C1646     1.0  0.76289  0.00672  0.48436  1.0000
  S   S471      1.0  0.63154  0.99415  0.38927  1.0000
  S   S472      1.0  0.98051  0.22267  0.48393  1.0000
  H   H2813     1.0  0.99238  0.23613  0.45449  1.0000
  C   C1647     1.0  0.94248  0.23816  0.48083  1.0000
  H   H2814     1.0  0.98867  0.30880  0.47849  1.0000
  H   H2815     1.0  0.98775  0.29022  0.41776  1.0000
  H   H2816     1.0  0.66275  0.99474  0.28484  1.0000
  S   S473      1.0  0.88755  0.19454  0.48029  1.0000
  S   S474      1.0  0.74591  0.06874  0.48036  1.0000
  H   H2817     1.0  0.98474  0.20733  0.38894  1.0000
  H   H2818     1.0  0.64568  0.08139  0.47809  1.0000
  H   H2819     1.0  0.78739  0.99516  0.35881  1.0000
  H   H2820     1.0  0.91991  0.31860  0.47424  1.0000
  H   H2821     1.0  0.50865  0.99588  0.32990  1.0000
  C   C1648     1.0  0.61565  0.99959  0.28999  1.0000
  C   C1649     1.0  0.99364  0.18145  0.40508  1.0000
  C   C1650     1.0  0.72072  0.99186  0.44817  1.0000
  N   N118      1.0  0.63097  0.99844  0.29224  1.0000
  H   H2822     1.0  0.96651  0.32340  0.46322  1.0000
  S   S475      1.0  0.78846  0.99668  0.40113  1.0000
  H   H2823     1.0  0.93868  0.32344  0.34691  1.0000
  H   H2824     1.0  0.70265  0.99126  0.48450  1.0000
  C   C1651     1.0  0.93175  0.32402  0.35818  1.0000
  H   H2825     1.0  0.98354  0.18260  0.40086  1.0000
  H   H2826     1.0  0.91056  0.32339  0.38340  1.0000
  C   C1652     1.0  0.70516  0.99480  0.45179  1.0000
  C   C1653     1.0  0.73154  0.99321  0.48226  1.0000
  H   H2827     1.0  0.92149  0.20476  0.48989  1.0000
  H   H2828     1.0  0.94084  0.24407  0.48981  1.0000
  C   C1654     1.0  0.53355  0.06876  0.72059  1.0000
  C   C1655     1.0  0.93994  0.27032  0.52365  1.0000
  H   H2829     1.0  0.49982  0.03327  0.62184  1.0000
  H   H2830     1.0  0.91813  0.28452  0.52610  1.0000
  S   S476      1.0  0.98022  0.30034  0.51442  1.0000
  H   H2831     1.0  0.69673  0.02343  0.50069  1.0000
  S   S477      1.0  0.88079  0.25315  0.54260  1.0000
  H   H2832     1.0  0.59279  0.00429  0.52058  1.0000
  H   H2833     1.0  0.91802  0.26548  0.53033  1.0000
  S   S478      1.0  0.50268  0.09540  0.61975  1.0000
  H   H2834     1.0  0.70951  0.00537  0.52835  1.0000
  C   C1656     1.0  0.53530  0.01618  0.63614  1.0000
  H   H2835     1.0  0.51297  0.07814  0.73444  1.0000
  C   C1657     1.0  0.97481  0.30130  0.58602  1.0000
  C   C1658     1.0  0.97958  0.25687  0.52649  1.0000
  H   H2836     1.0  0.52429  0.02213  0.70087  1.0000
  H   H2837     1.0  0.54641  0.04056  0.51564  1.0000
  C   C1659     1.0  0.98176  0.27082  0.51818  1.0000
  S   S479      1.0  0.51111  0.05700  0.57300  1.0000
  H   H2838     1.0  0.54449  0.04097  0.65929  1.0000
  C   C1660     1.0  0.65842  0.03374  0.52064  1.0000
  C   C1661     1.0  0.58136  0.00355  0.52548  1.0000
  C   C1662     1.0  0.89465  0.22527  0.55456  1.0000
  C   C1663     1.0  0.97735  0.28300  0.52494  1.0000
  H   H2839     1.0  0.99111  0.23899  0.49860  1.0000
  H   H2840     1.0  0.54421  0.06050  0.72150  1.0000
  C   C1664     1.0  0.53245  0.02823  0.69993  1.0000
  C   C1665     1.0  0.50640  0.08420  0.60686  1.0000
  S   S480      1.0  0.57520  0.01677  0.49776  1.0000
  H   H2841     1.0  0.56318  0.03197  0.66047  1.0000
  H   H2842     1.0  0.93031  0.27942  0.57230  1.0000
  H   H2843     1.0  0.87045  0.20442  0.50819  1.0000
  H   H2844     1.0  0.92876  0.22396  0.49516  1.0000
  H   H2845     1.0  0.56203  0.05607  0.64433  1.0000
  C   C1666     1.0  0.51219  0.06885  0.61020  1.0000
  H   H2846     1.0  0.88511  0.22564  0.56374  1.0000
  H   H2847     1.0  0.51859  0.04697  0.72246  1.0000
  N   N119      1.0  0.92094  0.27331  0.54829  1.0000
  H   H2848     1.0  0.56881  0.99828  0.62879  1.0000
  C   C1667     1.0  0.51031  0.06712  0.58599  1.0000
  C   C1668     1.0  0.65814  0.02650  0.49445  1.0000
  H   H2849     1.0  0.98382  0.14146  0.50954  1.0000
  S   S481      1.0  0.67834  0.05109  0.50777  1.0000
  C   C1669     1.0  0.86850  0.20124  0.52046  1.0000
  H   H2850     1.0  0.54001  0.00235  0.54361  1.0000
  S   S482      1.0  0.52857  0.01666  0.59360  1.0000
  H   H2851     1.0  0.92070  0.29676  0.54295  1.0000
  C   C1670     1.0  0.91827  0.21188  0.54229  1.0000
  C   C1671     1.0  0.99337  0.13679  0.50127  1.0000
  C   C1672     1.0  0.90593  0.21230  0.55414  1.0000
  H   H2852     1.0  0.54736  0.01195  0.51665  1.0000
  C   C1673     1.0  0.88342  0.21858  0.51885  1.0000
  H   H2853     1.0  0.52648  0.01330  0.64597  1.0000
  H   H2854     1.0  0.84961  0.21901  0.55895  1.0000
  H   H2855     1.0  0.96425  0.26573  0.56015  1.0000
  S   S483      1.0  0.51851  0.06307  0.65100  1.0000
  H   H2856     1.0  0.55796  0.01414  0.67939  1.0000
  C   C1674     1.0  0.55254  0.03167  0.70848  1.0000
  H   H2857     1.0  0.56112  0.05111  0.69665  1.0000
  H   H2858     1.0  0.56012  0.02797  0.71599  1.0000
  H   H2859     1.0  0.57188  0.04263  0.63336  1.0000
  H   H2860     1.0  0.84402  0.20924  0.54859  1.0000
  H   H2861     1.0  0.90521  0.20267  0.56307  1.0000
  H   H2862     1.0  0.99890  0.31729  0.52622  1.0000
  C   C1675     1.0  0.55515  0.00580  0.67527  1.0000
  H   H2863     1.0  0.98672  0.27217  0.50649  1.0000
  S   S484      1.0  0.96890  0.19847  0.55033  1.0000
  C   C1676     1.0  0.54317  0.04965  0.68798  1.0000
  H   H2864     1.0  0.53398  0.08776  0.53429  1.0000
  C   C1677     1.0  0.56211  0.99823  0.54749  1.0000
  H   H2865     1.0  0.54329  0.00610  0.63332  1.0000
  C   C1678     1.0  0.85310  0.20935  0.55357  1.0000
  H   H2866     1.0  0.90874  0.24676  0.52216  1.0000
  H   H2867     1.0  0.56081  0.99207  0.64801  1.0000
  H   H2868     1.0  0.68751  0.01164  0.51529  1.0000
  S   S485      1.0  0.51775  0.01947  0.56267  1.0000
  H   H2869     1.0  0.56547  0.99788  0.67126  1.0000
  C   C1679     1.0  0.91926  0.22432  0.53079  1.0000
  H   H2870     1.0  0.50217  0.08783  0.57193  1.0000
  H   H2871     1.0  0.86534  0.24650  0.52011  1.0000
  C   C1680     1.0  0.54557  0.01291  0.66345  1.0000
  H   H2872     1.0  0.52960  0.02133  0.62671  1.0000
  H   H2873     1.0  0.54910  0.03190  0.62711  1.0000
  C   C1681     1.0  0.57712  0.99830  0.54082  1.0000
  C   C1682     1.0  0.56819  0.01336  0.64263  1.0000
  C   C1683     1.0  0.70685  0.01535  0.51967  1.0000
  C   C1684     1.0  0.97972  0.30775  0.56935  1.0000
  S   S486      1.0  0.89190  0.25660  0.49938  1.0000
  C   C1685     1.0  0.85417  0.19529  0.52584  1.0000
  H   H2874     1.0  0.93019  0.24360  0.54281  1.0000
  S   S487      1.0  0.51861  0.99587  0.70042  1.0000
  C   C1686     1.0  0.50507  0.08248  0.58256  1.0000
  H   H2875     1.0  0.92650  0.29892  0.56500  1.0000
  S   S488      1.0  0.54032  0.00798  0.72421  1.0000
  C   C1687     1.0  0.55317  0.04469  0.69751  1.0000
  N   N120      1.0  0.55310  0.05029  0.53899  1.0000
  C   C1688     1.0  0.55389  0.04782  0.55499  1.0000
  C   C1689     1.0  0.55002  0.06677  0.53280  1.0000
  C   C1690     1.0  0.56807  0.04269  0.53089  1.0000
  C   C1691     1.0  0.54079  0.04359  0.53854  1.0000
  C   C1692     1.0  0.55823  0.03149  0.56308  1.0000
  H   H2876     1.0  0.93820  0.28503  0.54523  1.0000
  C   C1693     1.0  0.57327  0.04937  0.51433  1.0000
  C   C1694     1.0  0.53701  0.04609  0.52337  1.0000
  H   H2877     1.0  0.56201  0.05365  0.55599  1.0000
  H   H2878     1.0  0.52884  0.06712  0.71198  1.0000
  H   H2879     1.0  0.54960  0.06937  0.52092  1.0000
  H   H2880     1.0  0.55935  0.07133  0.53327  1.0000
  H   H2881     1.0  0.57728  0.04248  0.53606  1.0000
  H   H2882     1.0  0.56836  0.03086  0.53185  1.0000
  H   H2883     1.0  0.54360  0.03140  0.54256  1.0000
  N   N121      1.0  0.86891  0.21393  0.52660  1.0000
  H   H2884     1.0  0.55928  0.03115  0.57440  1.0000
  H   H2885     1.0  0.54943  0.02553  0.56446  1.0000
  H   H2886     1.0  0.71710  0.01943  0.51387  1.0000
  Fe  Fe233     1.0  0.50949  0.00560  0.60510  1.0000
  S   S489      1.0  0.99293  0.21269  0.52222  1.0000
  Fe  Fe234     1.0  0.98756  0.19039  0.53237  1.0000
  H   H2887     1.0  0.58329  0.04150  0.50957  1.0000
  H   H2888     1.0  0.57665  0.05988  0.51286  1.0000
  H   H2889     1.0  0.56485  0.05132  0.50768  1.0000
  H   H2890     1.0  0.53336  0.05799  0.51843  1.0000
  H   H2891     1.0  0.52754  0.04091  0.52484  1.0000
  S   S490      1.0  0.64101  0.00616  0.50927  1.0000
  Fe  Fe235     1.0  0.97272  0.22111  0.53872  1.0000
  S   S491      1.0  0.54262  0.06679  0.67543  1.0000
  Fe  Fe236     1.0  0.87541  0.29773  0.50185  1.0000
  H   H2892     1.0  0.89497  0.29248  0.53812  1.0000
  Fe  Fe237     1.0  0.52087  0.07361  0.66799  1.0000
  C   C1695     1.0  0.55570  0.00817  0.52336  1.0000
  C   C1696     1.0  0.90438  0.32012  0.52134  1.0000
  H   H2893     1.0  0.90109  0.31283  0.50339  1.0000
  Fe  Fe238     1.0  0.88255  0.26652  0.51945  1.0000
  C   C1697     1.0  0.54201  0.02354  0.70980  1.0000
  Fe  Fe239     1.0  0.53278  0.00280  0.57673  1.0000
  H   H2894     1.0  0.52538  0.07235  0.54045  1.0000
  N   N122      1.0  0.70681  0.00031  0.50103  1.0000
  C   C1698     1.0  0.90455  0.27433  0.55506  1.0000
  H   H2895     1.0  0.64402  0.01863  0.53149  1.0000
  H   H2896     1.0  0.65859  0.03638  0.53083  1.0000
  C   C1699     1.0  0.51000  0.05069  0.73197  1.0000
  H   H2897     1.0  0.93458  0.23513  0.56045  1.0000
  H   H2898     1.0  0.88334  0.22385  0.50705  1.0000
  H   H2899     1.0  0.88218  0.28827  0.55512  1.0000
  H   H2900     1.0  0.92701  0.25869  0.56834  1.0000
  H   H2901     1.0  0.69926  0.02416  0.52540  1.0000
  Fe  Fe240     1.0  0.96357  0.31950  0.52284  1.0000
  C   C1700     1.0  0.92720  0.24467  0.55448  1.0000
  C   C1701     1.0  0.90789  0.23717  0.53106  1.0000
  S   S492      1.0  0.86171  0.28056  0.51217  1.0000
  Fe  Fe241     1.0  0.95435  0.20238  0.53428  1.0000
  C   C1702     1.0  0.96908  0.26717  0.54842  1.0000
  C   C1703     1.0  0.53311  0.04115  0.68899  1.0000
  H   H2902     1.0  0.67587  0.99249  0.49391  1.0000
  H   H2903     1.0  0.94186  0.25876  0.55275  1.0000
  H   H2904     1.0  0.51505  0.06363  0.62083  1.0000
  H   H2905     1.0  0.98284  0.24752  0.52125  1.0000
  C   C1704     1.0  0.99709  0.31064  0.53772  1.0000
  H   H2906     1.0  0.93708  0.19784  0.50904  1.0000
  C   C1705     1.0  0.92327  0.28852  0.56560  1.0000
  H   H2907     1.0  0.56906  0.02534  0.55753  1.0000
  C   C1706     1.0  0.56933  0.99779  0.64032  1.0000
  H   H2908     1.0  0.54869  0.99932  0.68498  1.0000
  S   S493      1.0  0.97043  0.23771  0.55221  1.0000
  C   C1707     1.0  0.64997  0.02011  0.50795  1.0000
  H   H2909     1.0  0.67590  0.99805  0.51007  1.0000
  H   H2910     1.0  0.99872  0.11388  0.54440  1.0000
  C   C1708     1.0  0.92971  0.25918  0.55623  1.0000
  H   H2911     1.0  0.91138  0.28984  0.57134  1.0000
  H   H2912     1.0  0.91634  0.31578  0.51914  1.0000
  C   C1709     1.0  0.92600  0.28622  0.54973  1.0000
  S   S494      1.0  0.49940  0.00013  0.62927  1.0000
  S   S495      1.0  0.89550  0.28412  0.51071  1.0000
  C   C1710     1.0  0.89391  0.28928  0.55024  1.0000
  S   S496      1.0  0.61492  0.99187  0.49820  1.0000
  H   H2913     1.0  0.98008  0.29907  0.56356  1.0000
  H   H2914     1.0  0.99592  0.31729  0.58500  1.0000
  H   H2915     1.0  0.96753  0.29051  0.54534  1.0000
  H   H2916     1.0  0.97305  0.30944  0.59292  1.0000
  H   H2917     1.0  0.57266  0.01976  0.63157  1.0000
  C   C1711     1.0  0.53536  0.07605  0.54046  1.0000
  C   C1712     1.0  0.51416  0.06028  0.59974  1.0000
  S   S497      1.0  0.93238  0.19580  0.54176  1.0000
  H   H2918     1.0  0.94575  0.27887  0.52341  1.0000
  C   C1713     1.0  0.89570  0.31824  0.51257  1.0000
  H   H2919     1.0  0.53028  0.04764  0.54622  1.0000
  Fe  Fe242     1.0  0.97647  0.21516  0.50849  1.0000
  H   H2920     1.0  0.98274  0.29097  0.58992  1.0000
  H   H2921     1.0  0.55265  0.05234  0.63260  1.0000
  C   C1714     1.0  0.85643  0.22702  0.52275  1.0000
  H   H2922     1.0  0.89895  0.19868  0.51182  1.0000
  S   S498      1.0  0.97254  0.19228  0.51738  1.0000
  S   S499      1.0  0.95671  0.22569  0.52391  1.0000
  H   H2923     1.0  0.91555  0.24349  0.55939  1.0000
  C   C1715     1.0  0.97335  0.25501  0.54164  1.0000
  H   H2924     1.0  0.95144  0.18581  0.49819  1.0000
  H   H2925     1.0  0.53359  0.03654  0.64157  1.0000
  H   H2926     1.0  0.90249  0.27184  0.56736  1.0000
  H   H2927     1.0  0.85405  0.19939  0.56272  1.0000
  H   H2928     1.0  0.51842  0.04842  0.60237  1.0000
  C   C1716     1.0  0.69882  0.01282  0.50893  1.0000
  C   C1717     1.0  0.97089  0.28119  0.54005  1.0000
  H   H2929     1.0  0.85702  0.22983  0.51060  1.0000
  H   H2930     1.0  0.84559  0.24952  0.52562  1.0000
  C   C1718     1.0  0.85615  0.24130  0.52724  1.0000
  H   H2931     1.0  0.84406  0.20387  0.52358  1.0000
  C   C1719     1.0  0.89783  0.20624  0.51915  1.0000
  C   C1720     1.0  0.65016  0.02371  0.52101  1.0000
  H   H2932     1.0  0.85531  0.18671  0.51962  1.0000
  C   C1721     1.0  0.99582  0.32040  0.54853  1.0000
  H   H2933     1.0  0.90057  0.26577  0.55236  1.0000
  H   H2934     1.0  0.89555  0.29836  0.55421  1.0000
  H   H2935     1.0  0.85272  0.18966  0.53767  1.0000
  H   H2936     1.0  0.84526  0.22461  0.52766  1.0000
  H   H2937     1.0  0.94635  0.25921  0.52816  1.0000
  H   H2938     1.0  0.87352  0.21666  0.54634  1.0000
  H   H2939     1.0  0.92861  0.22390  0.52149  1.0000
  H   H2940     1.0  0.85674  0.23938  0.53899  1.0000
  H   H2941     1.0  0.53765  0.03905  0.73512  1.0000
  Fe  Fe243     1.0  0.63087  0.00684  0.49053  1.0000
  C   C1722     1.0  0.89555  0.23760  0.54289  1.0000
  C   C1723     1.0  0.92348  0.27349  0.53206  1.0000
  H   H2942     1.0  0.93331  0.18203  0.50586  1.0000
  H   H2943     1.0  0.89861  0.19985  0.53051  1.0000
  H   H2944     1.0  0.94021  0.27053  0.51196  1.0000
  H   H2945     1.0  0.88489  0.22721  0.52367  1.0000
  H   H2946     1.0  0.52581  0.04443  0.68130  1.0000
  C   C1724     1.0  0.86858  0.20923  0.54299  1.0000
  H   H2947     1.0  0.90761  0.21140  0.51476  1.0000
  H   H2948     1.0  0.54295  0.05251  0.56170  1.0000
  H   H2949     1.0  0.87582  0.19796  0.54563  1.0000
  H   H2950     1.0  0.87763  0.19144  0.52309  1.0000
  H   H2951     1.0  0.98666  0.30693  0.53953  1.0000
  N   N123      1.0  0.55301  0.02179  0.64926  1.0000
  C   C1725     1.0  0.55514  0.03519  0.65305  1.0000
  C   C1726     1.0  0.57061  0.00866  0.51672  1.0000
  C   C1727     1.0  0.54292  0.02731  0.63828  1.0000
  H   H2952     1.0  0.53552  0.07613  0.55193  1.0000
  C   C1728     1.0  0.56078  0.04706  0.63989  1.0000
  S   S500      1.0  0.55680  0.99296  0.56689  1.0000
  C   C1729     1.0  0.52250  0.06840  0.73569  1.0000
  Fe  Fe244     1.0  0.51252  0.03250  0.58027  1.0000
  H   H2953     1.0  0.53494  0.01990  0.66856  1.0000
  H   H2954     1.0  0.54197  0.00374  0.66157  1.0000
  C   C1730     1.0  0.66687  0.03993  0.50726  1.0000
  H   H2955     1.0  0.57657  0.01223  0.64922  1.0000
  C   C1731     1.0  0.93936  0.19108  0.50066  1.0000
  H   H2956     1.0  0.98752  0.12895  0.53329  1.0000
  C   C1732     1.0  0.55149  0.00287  0.53867  1.0000
  S   S501      1.0  0.86912  0.32127  0.50469  1.0000
  H   H2957     1.0  0.96389  0.29838  0.58793  1.0000
  H   H2958     1.0  0.94806  0.21725  0.49551  1.0000
  C   C1733     1.0  0.88016  0.32363  0.51549  1.0000
  H   H2959     1.0  0.53629  0.07983  0.71655  1.0000
  S   S502      1.0  0.50775  0.09616  0.65891  1.0000
  Fe  Fe245     1.0  0.87184  0.27177  0.49131  1.0000
  S   S503      1.0  0.95009  0.32120  0.54561  1.0000
  N   N124      1.0  0.99430  0.31271  0.56463  1.0000
  H   H2960     1.0  0.50464  0.04119  0.73748  1.0000
  C   C1734     1.0  0.99344  0.32339  0.57399  1.0000
  H   H2961     1.0  0.97040  0.31714  0.56624  1.0000
  H   H2962     1.0  0.99005  0.11587  0.51552  1.0000
  H   H2963     1.0  0.58539  0.99474  0.54759  1.0000
  C   C1735     1.0  0.68303  0.99191  0.50154  1.0000
  H   H2964     1.0  0.50682  0.04024  0.63332  1.0000
  H   H2965     1.0  0.50273  0.07257  0.71802  1.0000
  H   H2966     1.0  0.76446  0.00257  0.49593  1.0000
  H   H2967     1.0  0.99831  0.13270  0.54370  1.0000
  C   C1736     1.0  0.69654  0.99846  0.49250  1.0000
  C   C1737     1.0  0.99826  0.12497  0.53697  1.0000
  H   H2968     1.0  0.50402  0.10337  0.71760  1.0000
  H   H2969     1.0  0.72639  0.00978  0.49463  1.0000
  C   C1738     1.0  0.66672  0.03634  0.49412  1.0000
  S   S504      1.0  0.50132  0.06706  0.68495  1.0000
  C   C1739     1.0  0.50309  0.09097  0.59294  1.0000
  Fe  Fe246     1.0  0.50346  0.08467  0.64346  1.0000
  Fe  Fe247     1.0  0.49971  0.00808  0.57708  1.0000
  H   H2970     1.0  0.98875  0.13843  0.49135  1.0000
  Fe  Fe248     1.0  0.53204  0.99147  0.71771  1.0000
  H   H2971     1.0  0.54676  0.14431  0.91463  1.0000
  H   H2972     1.0  0.53326  0.12615  0.90119  1.0000
  H   H2973     1.0  0.52594  0.02645  0.76719  1.0000
  H   H2974     1.0  0.50415  0.19028  0.94477  1.0000
  Fe  Fe249     1.0  0.54527  0.25796  0.88211  1.0000
  S   S505      1.0  0.52619  0.26111  0.90125  1.0000
  S   S506      1.0  0.56362  0.26898  0.88096  1.0000
  Fe  Fe250     1.0  0.52910  0.24246  0.86943  1.0000
  S   S507      1.0  0.50854  0.24535  0.88737  1.0000
  S   S508      1.0  0.52789  0.23253  0.85124  1.0000
  Fe  Fe251     1.0  0.51202  0.26815  0.88443  1.0000
  H   H2975     1.0  0.53855  0.12436  0.91778  1.0000
  Fe  Fe252     1.0  0.52500  0.23797  0.90212  1.0000
  S   S509      1.0  0.52199  0.22090  0.92325  1.0000
  S   S510      1.0  0.53119  0.26594  0.86510  1.0000
  S   S511      1.0  0.54556  0.23393  0.88436  1.0000
  H   H2976     1.0  0.50359  0.25010  0.92211  1.0000
  H   H2977     1.0  0.56940  0.30687  0.90312  1.0000
  H   H2978     1.0  0.52378  0.30431  0.82306  1.0000
  H   H2979     1.0  0.51810  0.12296  0.94946  1.0000
  C   C1740     1.0  0.54494  0.32212  0.82087  1.0000
  C   C1741     1.0  0.50534  0.14178  0.90731  1.0000
  H   H2980     1.0  0.50897  0.31207  0.84534  1.0000
  C   C1742     1.0  0.50484  0.24532  0.93336  1.0000
  S   S512      1.0  0.51469  0.15898  0.97321  1.0000
  H   H2981     1.0  0.53540  0.01770  0.75223  1.0000
  C   C1743     1.0  0.52482  0.29646  0.83377  1.0000
  N   N125      1.0  0.54584  0.26596  0.94278  1.0000
  H   H2982     1.0  0.56636  0.20937  0.97904  1.0000
  H   H2983     1.0  0.53849  0.23234  0.96546  1.0000
  C   C1744     1.0  0.54625  0.27045  0.98979  1.0000
  S   S513      1.0  0.57781  0.29114  0.96104  1.0000
  C   C1745     1.0  0.52086  0.28583  0.94368  1.0000
  C   C1746     1.0  0.52362  0.21494  0.85761  1.0000
  C   C1747     1.0  0.51865  0.20915  0.84840  1.0000
  C   C1748     1.0  0.51497  0.19523  0.85338  1.0000
  C   C1749     1.0  0.51675  0.18681  0.86741  1.0000
  C   C1750     1.0  0.52190  0.19251  0.87655  1.0000
  C   C1751     1.0  0.52505  0.20666  0.87178  1.0000
  H   H2984     1.0  0.51774  0.21541  0.83736  1.0000
  H   H2985     1.0  0.50632  0.13083  0.76499  1.0000
  H   H2986     1.0  0.52351  0.18599  0.88732  1.0000
  H   H2987     1.0  0.52895  0.21101  0.87892  1.0000
  H   H2988     1.0  0.53285  0.13195  0.93806  1.0000
  C   C1752     1.0  0.51282  0.22412  0.95207  1.0000
  H   H2989     1.0  0.51195  0.10819  0.78242  1.0000
  H   H2990     1.0  0.54625  0.29130  0.97400  1.0000
  H   H2991     1.0  0.56582  0.24519  0.92679  1.0000
  C   C1753     1.0  0.51230  0.23059  0.93724  1.0000
  H   H2992     1.0  0.51839  0.21262  0.95512  1.0000
  H   H2993     1.0  0.52102  0.05045  0.77180  1.0000
  H   H2994     1.0  0.51006  0.14196  0.89532  1.0000
  H   H2995     1.0  0.62752  0.32373  0.96749  1.0000
  S   S514      1.0  0.51326  0.16889  0.87352  1.0000
  H   H2996     1.0  0.51814  0.14092  0.95064  1.0000
  H   H2997     1.0  0.52776  0.25450  0.95092  1.0000
  H   H2998     1.0  0.52830  0.07064  0.74315  1.0000
  H   H2999     1.0  0.52173  0.18693  0.97042  1.0000
  C   C1754     1.0  0.50552  0.05635  0.75640  1.0000
  H   H3000     1.0  0.54829  0.24108  0.92700  1.0000
  H   H3001     1.0  0.54218  0.16374  0.90752  1.0000
  N   N126      1.0  0.53063  0.31317  0.84772  1.0000
  H   H3002     1.0  0.53717  0.04513  0.75108  1.0000
  C   C1755     1.0  0.53747  0.25547  0.95456  1.0000
  H   H3003     1.0  0.51621  0.29747  0.94499  1.0000
  H   H3004     1.0  0.57659  0.21990  0.98344  1.0000
  H   H3005     1.0  0.50718  0.22787  0.97425  1.0000
  C   C1756     1.0  0.50544  0.18426  0.93600  1.0000
  H   H3006     1.0  0.53211  0.10192  0.92062  1.0000
  H   H3007     1.0  0.56052  0.26529  0.95662  1.0000
  H   H3008     1.0  0.55330  0.23934  0.96723  1.0000
  H   H3009     1.0  0.53421  0.28805  0.88737  1.0000
  H   H3010     1.0  0.54981  0.27353  0.91887  1.0000
  H   H3011     1.0  0.51896  0.28532  0.93298  1.0000
  H   H3012     1.0  0.52514  0.31045  0.89802  1.0000
  H   H3013     1.0  0.58224  0.20001  0.98752  1.0000
  C   C1757     1.0  0.55701  0.28468  0.88903  1.0000
  C   C1758     1.0  0.56689  0.29010  0.89349  1.0000
  H   H3014     1.0  0.53458  0.26534  0.92641  1.0000
  H   H3015     1.0  0.51582  0.02512  0.75424  1.0000
  H   H3016     1.0  0.51607  0.11013  0.91270  1.0000
  H   H3017     1.0  0.53291  0.15665  0.92571  1.0000
  H   H3018     1.0  0.53610  0.28905  0.83314  1.0000
  C   C1759     1.0  0.56168  0.30268  0.89984  1.0000
  C   C1760     1.0  0.52073  0.13363  0.94267  1.0000
  H   H3019     1.0  0.51555  0.11155  0.93118  1.0000
  H   H3020     1.0  0.54325  0.29295  0.85928  1.0000
  C   C1761     1.0  0.56868  0.27862  0.97492  1.0000
  C   C1762     1.0  0.53678  0.30473  0.89690  1.0000
  H   H3021     1.0  0.57265  0.27280  0.92271  1.0000
  C   C1763     1.0  0.57105  0.27395  0.93424  1.0000
  H   H3022     1.0  0.50411  0.20737  0.90958  1.0000
  C   C1764     1.0  0.54190  0.29195  0.89095  1.0000
  H   H3023     1.0  0.52992  0.15264  0.89593  1.0000
  S   S515      1.0  0.54096  0.31633  0.94823  1.0000
  H   H3024     1.0  0.58947  0.26357  0.97851  1.0000
  C   C1765     1.0  0.56129  0.26375  0.94535  1.0000
  C   C1766     1.0  0.52257  0.11170  0.91989  1.0000
  H   H3025     1.0  0.50531  0.15227  0.93246  1.0000
  H   H3026     1.0  0.57860  0.28454  0.89205  1.0000
  H   H3027     1.0  0.51436  0.27893  0.95291  1.0000
  H   H3028     1.0  0.53263  0.25987  0.96489  1.0000
  C   C1767     1.0  0.55305  0.28114  0.97904  1.0000
  C   C1768     1.0  0.53763  0.28162  0.94409  1.0000
  H   H3029     1.0  0.54273  0.28983  0.93497  1.0000
  C   C1769     1.0  0.54610  0.26428  0.92759  1.0000
  H   H3030     1.0  0.50049  0.25923  0.85757  1.0000
  H   H3031     1.0  0.51696  0.28922  0.83564  1.0000
  H   H3032     1.0  0.51276  0.00214  0.78179  1.0000
  C   C1770     1.0  0.55652  0.30917  0.85359  1.0000
  C   C1771     1.0  0.55512  0.24957  0.92310  1.0000
  C   C1772     1.0  0.52863  0.12592  0.91322  1.0000
  H   H3033     1.0  0.51787  0.29635  0.85695  1.0000
  C   C1773     1.0  0.52378  0.31951  0.86145  1.0000
  H   H3034     1.0  0.55361  0.23448  0.95026  1.0000
  H   H3035     1.0  0.55788  0.31992  0.84613  1.0000
  C   C1774     1.0  0.51053  0.14066  0.93131  1.0000
  H   H3036     1.0  0.55114  0.29758  0.84029  1.0000
  C   C1775     1.0  0.54641  0.23956  0.95950  1.0000
  C   C1776     1.0  0.53740  0.15422  0.91450  1.0000
  H   H3037     1.0  0.56792  0.25228  0.94533  1.0000
  H   H3038     1.0  0.52306  0.31042  0.87150  1.0000
  C   C1777     1.0  0.54525  0.30256  0.85003  1.0000
  C   C1778     1.0  0.52625  0.02712  0.75540  1.0000
  C   C1779     1.0  0.52006  0.30468  0.84655  1.0000
  Fe  Fe253     1.0  0.56401  0.31303  0.95174  1.0000
  C   C1780     1.0  0.52499  0.15301  0.90779  1.0000
  H   H3039     1.0  0.50217  0.05844  0.77905  1.0000
  H   H3040     1.0  0.56658  0.28572  0.93505  1.0000
  H   H3041     1.0  0.55844  0.25148  0.91086  1.0000
  H   H3042     1.0  0.51349  0.07015  0.76611  1.0000
  C   C1781     1.0  0.51369  0.16888  0.98644  1.0000
  H   H3043     1.0  0.58230  0.27075  0.93693  1.0000
  H   H3044     1.0  0.53844  0.28385  0.95459  1.0000
  H   H3045     1.0  0.56761  0.30126  0.85258  1.0000
  H   H3046     1.0  0.50007  0.04678  0.76106  1.0000
  H   H3047     1.0  0.51680  0.16380  0.90778  1.0000
  H   H3048     1.0  0.51169  0.32005  0.96608  1.0000
  C   C1782     1.0  0.54664  0.31017  0.90131  1.0000
  H   H3049     1.0  0.50974  0.17239  0.94068  1.0000
  H   H3050     1.0  0.51403  0.18784  0.92630  1.0000
  N   N127      1.0  0.51750  0.14025  0.91529  1.0000
  C   C1783     1.0  0.57741  0.26555  0.98166  1.0000
  H   H3051     1.0  0.51119  0.19082  0.84620  1.0000
  H   H3052     1.0  0.54432  0.31252  0.81709  1.0000
  C   C1784     1.0  0.51781  0.18255  0.98203  1.0000
  C   C1785     1.0  0.51113  0.05896  0.76888  1.0000
  H   H3053     1.0  0.55324  0.31068  0.86516  1.0000
  H   H3054     1.0  0.52556  0.99842  0.79961  1.0000
  H   H3055     1.0  0.50271  0.99980  0.75407  1.0000
  C   C1786     1.0  0.53019  0.04173  0.74560  1.0000
  C   C1787     1.0  0.50664  0.23277  0.96284  1.0000
  H   H3056     1.0  0.55625  0.32017  0.82299  1.0000
  C   C1788     1.0  0.57244  0.20952  0.98731  1.0000
  C   C1789     1.0  0.50026  0.24788  0.95864  1.0000
  H   H3057     1.0  0.50168  0.25697  0.83958  1.0000
  H   H3058     1.0  0.50107  0.99163  0.79567  1.0000
  H   H3059     1.0  0.51924  0.20145  0.98911  1.0000
  N   N128      1.0  0.51706  0.05429  0.74242  1.0000
  H   H3060     1.0  0.50118  0.13487  0.93516  1.0000
  H   H3061     1.0  0.54250  0.99188  0.77348  1.0000
  H   H3062     1.0  0.49938  0.32311  0.86457  1.0000
  H   H3063     1.0  0.52481  0.99356  0.75854  1.0000
  S   S516      1.0  0.57320  0.32404  0.92850  1.0000
  H   H3064     1.0  0.50287  0.13782  0.74046  1.0000
  H   H3065     1.0  0.50017  0.13209  0.91154  1.0000
  C   C1790     1.0  0.50004  0.11424  0.78400  1.0000
  H   H3066     1.0  0.49912  0.11729  0.76148  1.0000
  C   C1791     1.0  0.49921  0.25404  0.94394  1.0000
  H   H3067     1.0  0.73441  0.49435  0.99618  1.0000
  H   H3068     1.0  0.97091  0.54038  0.10484  1.0000
  H   H3069     1.0  0.86671  0.46710  0.01809  1.0000
  H   H3070     1.0  0.98943  0.42945  0.22924  1.0000
  H   H3071     1.0  0.84212  0.58671  0.10855  1.0000
  S   S517      1.0  0.71025  0.55248  0.01367  1.0000
  N   N129      1.0  0.95022  0.44299  0.12566  1.0000
  H   H3072     1.0  0.72143  0.41548  0.09340  1.0000
  H   H3073     1.0  0.94311  0.46472  0.14340  1.0000
  C   C1792     1.0  0.85397  0.48864  0.02362  1.0000
  Fe  Fe254     1.0  0.69829  0.42166  0.03024  1.0000
  Fe  Fe255     1.0  0.69354  0.45444  0.02737  1.0000
  S   S518      1.0  0.69568  0.43540  0.04671  1.0000
  S   S519      1.0  0.67952  0.47686  0.02985  1.0000
  S   S520      1.0  0.63207  0.42411  0.00345  1.0000
  H   H3074     1.0  0.96339  0.60290  0.21208  1.0000
  C   C1793     1.0  0.91149  0.58681  0.23341  1.0000
  C   C1794     1.0  0.92525  0.52523  0.15684  1.0000
  Fe  Fe256     1.0  0.72033  0.43380  0.03851  1.0000
  S   S521      1.0  0.73517  0.43271  0.05353  1.0000
  C   C1795     1.0  0.98791  0.62887  0.22483  1.0000
  S   S522      1.0  0.71790  0.45389  0.02045  1.0000
  H   H3075     1.0  0.73025  0.46865  0.05853  1.0000
  C   C1796     1.0  0.68675  0.40046  0.07432  1.0000
  H   H3076     1.0  0.67867  0.39976  0.06825  1.0000
  H   H3077     1.0  0.91947  0.50881  0.13989  1.0000
  C   C1797     1.0  0.98962  0.61981  0.20305  1.0000
  S   S523      1.0  0.98644  0.49123  0.11520  1.0000
  H   H3078     1.0  0.84970  0.52341  0.03187  1.0000
  C   C1798     1.0  0.89957  0.49891  0.23539  1.0000
  H   H3079     1.0  0.89226  0.50403  0.02373  1.0000
  Fe  Fe257     1.0  0.89468  0.56787  0.21369  1.0000
  C   C1799     1.0  0.64497  0.51924  0.00132  1.0000
  H   H3080     1.0  0.52923  0.35815  0.00044  1.0000
  Fe  Fe258     1.0  0.88596  0.54816  0.19885  1.0000
  S   S524      1.0  0.90129  0.52802  0.20907  1.0000
  S   S525      1.0  0.87070  0.54373  0.18695  1.0000
  H   H3081     1.0  0.90937  0.50346  0.23244  1.0000
  H   H3082     1.0  0.92372  0.54324  0.08985  1.0000
  Fe  Fe259     1.0  0.91759  0.54229  0.20363  1.0000
  S   S526      1.0  0.94218  0.53352  0.19708  1.0000
  H   H3083     1.0  0.84754  0.49108  0.01485  1.0000
  S   S527      1.0  0.90321  0.56194  0.19136  1.0000
  Fe  Fe260     1.0  0.71886  0.43856  0.00637  1.0000
  S   S528      1.0  0.97167  0.58711  0.16282  1.0000
  Fe  Fe261     1.0  0.81296  0.50195  0.01329  1.0000
  S   S529      1.0  0.82045  0.47796  0.02326  1.0000
  Fe  Fe262     1.0  0.78456  0.50546  0.03697  1.0000
  S   S530      1.0  0.79009  0.48174  0.04903  1.0000
  S   S531      1.0  0.76348  0.52032  0.04659  1.0000
  Fe  Fe263     1.0  0.81336  0.48540  0.04489  1.0000
  S   S532      1.0  0.82916  0.47631  0.06084  1.0000
  Fe  Fe264     1.0  0.79663  0.47688  0.02627  1.0000
  S   S533      1.0  0.79019  0.46090  0.01709  1.0000
  S   S534      1.0  0.80718  0.50954  0.03463  1.0000
  S   S535      1.0  0.78965  0.50043  0.01454  1.0000
  Fe  Fe265     1.0  0.91092  0.49415  0.09826  1.0000
  S   S536      1.0  0.89798  0.51699  0.09029  1.0000
  S   S537      1.0  0.93518  0.48750  0.08713  1.0000
  Fe  Fe266     1.0  0.88468  0.48665  0.12235  1.0000
  S   S538      1.0  0.86985  0.50915  0.11684  1.0000
  S   S539      1.0  0.87530  0.46935  0.14052  1.0000
  Fe  Fe267     1.0  0.87881  0.50650  0.09329  1.0000
  S   S540      1.0  0.86332  0.51590  0.07702  1.0000
  Fe  Fe268     1.0  0.89020  0.51764  0.11431  1.0000
  S   S541      1.0  0.89283  0.53781  0.12009  1.0000
  S   S542      1.0  0.89256  0.48337  0.09895  1.0000
  S   S543      1.0  0.90416  0.49534  0.12214  1.0000
  H   H3084     1.0  0.83964  0.48229  0.99595  1.0000
  H   H3085     1.0  0.70583  0.52068  0.03376  1.0000
  C   C1800     1.0  0.71282  0.40604  0.08026  1.0000
  Fe  Fe269     1.0  0.93936  0.45740  0.19248  1.0000
  S   S544      1.0  0.94703  0.43284  0.19528  1.0000
  S   S545      1.0  0.95434  0.47187  0.17752  1.0000
  Fe  Fe270     1.0  0.92387  0.43425  0.19313  1.0000
  S   S546      1.0  0.91908  0.42260  0.17827  1.0000
  H   H3086     1.0  0.84190  0.53309  0.01603  1.0000
  S   S547      1.0  0.91685  0.45899  0.18869  1.0000
  H   H3087     1.0  0.61310  0.54458  0.99061  1.0000
  H   H3088     1.0  0.88116  0.55009  0.07569  1.0000
  C   C1801     1.0  0.98137  0.52115  0.16746  1.0000
  H   H3089     1.0  0.92272  0.62806  0.22728  1.0000
  C   C1802     1.0  0.87083  0.49704  0.03293  1.0000
  H   H3090     1.0  0.93655  0.56096  0.09175  1.0000
  C   C1803     1.0  0.97266  0.46365  0.17973  1.0000
  C   C1804     1.0  0.97936  0.44928  0.17746  1.0000
  C   C1805     1.0  0.99404  0.44276  0.17929  1.0000
  C   C1806     1.0  0.85971  0.47169  0.02779  1.0000
  C   C1807     1.0  0.99518  0.46484  0.18595  1.0000
  C   C1808     1.0  0.98060  0.47145  0.18390  1.0000
  H   H3091     1.0  0.97327  0.44325  0.17416  1.0000
  H   H3092     1.0  0.95650  0.53983  0.22799  1.0000
  H   H3093     1.0  0.68780  0.41023  0.99590  1.0000
  H   H3094     1.0  0.97534  0.48242  0.18595  1.0000
  H   H3095     1.0  0.95232  0.53692  0.12734  1.0000
  C   C1809     1.0  0.88855  0.45601  0.14948  1.0000
  C   C1810     1.0  0.90086  0.45977  0.15146  1.0000
  C   C1811     1.0  0.91053  0.44937  0.15998  1.0000
  C   C1812     1.0  0.90798  0.43517  0.16640  1.0000
  C   C1813     1.0  0.89606  0.43121  0.16384  1.0000
  C   C1814     1.0  0.88622  0.44169  0.15558  1.0000
  H   H3096     1.0  0.90261  0.47084  0.14694  1.0000
  H   H3097     1.0  0.91998  0.45234  0.16154  1.0000
  H   H3098     1.0  0.89411  0.42020  0.16871  1.0000
  H   H3099     1.0  0.87671  0.43874  0.15402  1.0000
  C   C1815     1.0  0.83796  0.48758  0.06590  1.0000
  C   C1816     1.0  0.83412  0.50306  0.06190  1.0000
  C   C1817     1.0  0.84183  0.51161  0.06556  1.0000
  C   C1818     1.0  0.85336  0.50477  0.07336  1.0000
  C   C1819     1.0  0.85703  0.48932  0.07758  1.0000
  C   C1820     1.0  0.84938  0.48078  0.07383  1.0000
  H   H3100     1.0  0.82524  0.50845  0.05597  1.0000
  H   H3101     1.0  0.83887  0.52356  0.06230  1.0000
  H   H3102     1.0  0.86587  0.48391  0.08359  1.0000
  H   H3103     1.0  0.85238  0.46882  0.07705  1.0000
  N   N130      1.0  0.94136  0.61362  0.19534  1.0000
  H   H3104     1.0  0.79467  0.52696  0.99117  1.0000
  S   S548      1.0  0.68766  0.40249  0.03411  1.0000
  H   H3105     1.0  0.86480  0.53626  0.09412  1.0000
  N   N131      1.0  0.84823  0.55383  0.10326  1.0000
  H   H3106     1.0  0.88738  0.49844  0.00487  1.0000
  H   H3107     1.0  0.65717  0.51513  0.00090  1.0000
  H   H3108     1.0  0.63993  0.50959  0.00744  1.0000
  N   N132      1.0  0.71553  0.39311  0.07311  1.0000
  H   H3109     1.0  0.74270  0.48793  0.05091  1.0000
  C   C1821     1.0  0.87630  0.54273  0.16818  1.0000
  C   C1822     1.0  0.88530  0.55177  0.15806  1.0000
  C   C1823     1.0  0.89015  0.55029  0.14327  1.0000
  C   C1824     1.0  0.88617  0.53966  0.13857  1.0000
  C   C1825     1.0  0.87694  0.53077  0.14861  1.0000
  C   C1826     1.0  0.87179  0.53251  0.16333  1.0000
  H   H3110     1.0  0.88837  0.56002  0.16163  1.0000
  H   H3111     1.0  0.89706  0.55738  0.13548  1.0000
  H   H3112     1.0  0.87372  0.52262  0.14503  1.0000
  H   H3113     1.0  0.86467  0.52561  0.17112  1.0000
  C   C1827     1.0  0.95026  0.54857  0.18797  1.0000
  C   C1828     1.0  0.94332  0.56005  0.17792  1.0000
  C   C1829     1.0  0.95003  0.57187  0.17028  1.0000
  C   C1830     1.0  0.96369  0.57221  0.17267  1.0000
  C   C1831     1.0  0.97058  0.56087  0.18292  1.0000
  C   C1832     1.0  0.96381  0.54900  0.19058  1.0000
  H   H3114     1.0  0.93295  0.55974  0.17574  1.0000
  H   H3115     1.0  0.94469  0.58071  0.16239  1.0000
  H   H3116     1.0  0.98108  0.56125  0.18488  1.0000
  H   H3117     1.0  0.96891  0.54017  0.19857  1.0000
  H   H3118     1.0  0.65236  0.39517  0.00934  1.0000
  H   H3119     1.0  0.91189  0.61132  0.19409  1.0000
  H   H3120     1.0  0.86115  0.49969  0.04200  1.0000
  H   H3121     1.0  0.88372  0.50604  0.04225  1.0000
  H   H3122     1.0  0.94339  0.60906  0.17383  1.0000
  H   H3123     1.0  0.99254  0.50132  0.18187  1.0000
  H   H3124     1.0  0.83844  0.57153  0.08688  1.0000
  C   C1833     1.0  0.53983  0.35406  0.99295  1.0000
  C   C1834     1.0  0.97215  0.49104  0.10702  1.0000
  C   C1835     1.0  0.97506  0.49013  0.09221  1.0000
  C   C1836     1.0  0.96361  0.48912  0.08619  1.0000
  C   C1837     1.0  0.94910  0.48956  0.09478  1.0000
  C   C1838     1.0  0.94612  0.49101  0.10946  1.0000
  C   C1839     1.0  0.95768  0.49145  0.11565  1.0000
  H   H3125     1.0  0.98623  0.48979  0.08548  1.0000
  H   H3126     1.0  0.96601  0.48800  0.07482  1.0000
  H   H3127     1.0  0.93506  0.49132  0.11621  1.0000
  H   H3128     1.0  0.95541  0.49204  0.12715  1.0000
  H   H3129     1.0  0.75843  0.55652  0.99005  1.0000
  C   C1840     1.0  0.95437  0.45731  0.14307  1.0000
  H   H3130     1.0  0.95766  0.42342  0.14171  1.0000
  H   H3131     1.0  0.94217  0.41499  0.12885  1.0000
  C   C1841     1.0  0.61345  0.53256  0.99433  1.0000
  Fe  Fe271     1.0  0.93677  0.43266  0.21925  1.0000
  C   C1842     1.0  0.75043  0.44063  0.04351  1.0000
  C   C1843     1.0  0.75807  0.44593  0.05079  1.0000
  C   C1844     1.0  0.77011  0.45249  0.04275  1.0000
  C   C1845     1.0  0.77475  0.45344  0.02747  1.0000
  C   C1846     1.0  0.76708  0.44815  0.02022  1.0000
  C   C1847     1.0  0.75490  0.44186  0.02819  1.0000
  H   H3132     1.0  0.75467  0.44499  0.06264  1.0000
  H   H3133     1.0  0.77603  0.45647  0.04843  1.0000
  H   H3134     1.0  0.77053  0.44893  0.00842  1.0000
  H   H3135     1.0  0.74920  0.43766  0.02249  1.0000
  H   H3136     1.0  0.98817  0.51851  0.18810  1.0000
  C   C1848     1.0  0.85898  0.51328  0.01220  1.0000
  C   C1849     1.0  0.72950  0.39356  0.06106  1.0000
  H   H3137     1.0  0.99897  0.42657  0.21158  1.0000
  H   H3138     1.0  0.73529  0.37095  0.05666  1.0000
  H   H3139     1.0  0.99223  0.57340  0.12037  1.0000
  H   H3140     1.0  0.97683  0.55449  0.13158  1.0000
  H   H3141     1.0  0.97382  0.50950  0.18992  1.0000
  H   H3142     1.0  0.68689  0.47179  0.00040  1.0000
  H   H3143     1.0  0.74362  0.38423  0.04238  1.0000
  H   H3144     1.0  0.78830  0.54424  0.00753  1.0000
  C   C1850     1.0  0.68400  0.50315  0.01172  1.0000
  C   C1851     1.0  0.68369  0.48852  0.01263  1.0000
  C   C1852     1.0  0.70274  0.39478  0.06589  1.0000
  H   H3145     1.0  0.72666  0.39570  0.09709  1.0000
  H   H3146     1.0  0.55016  0.36940  0.99605  1.0000
  H   H3147     1.0  0.68114  0.50743  0.02168  1.0000
  H   H3148     1.0  0.94353  0.51415  0.22684  1.0000
  H   H3149     1.0  0.92239  0.61087  0.21350  1.0000
  C   C1853     1.0  0.72582  0.54391  0.02180  1.0000
  C   C1854     1.0  0.72437  0.54461  0.03646  1.0000
  C   C1855     1.0  0.73612  0.53746  0.04376  1.0000
  C   C1856     1.0  0.74941  0.52939  0.03653  1.0000
  C   C1857     1.0  0.75093  0.52852  0.02184  1.0000
  C   C1858     1.0  0.73917  0.53594  0.01439  1.0000
  H   H3150     1.0  0.71409  0.55071  0.04224  1.0000
  H   H3151     1.0  0.73487  0.53813  0.05511  1.0000
  H   H3152     1.0  0.76104  0.52203  0.01636  1.0000
  H   H3153     1.0  0.74025  0.53522  0.00311  1.0000
  H   H3154     1.0  0.83656  0.51645  0.02671  1.0000
  H   H3155     1.0  0.90235  0.52313  0.18082  1.0000
  C   C1859     1.0  0.72500  0.40572  0.08817  1.0000
  C   C1860     1.0  0.94862  0.59764  0.20080  1.0000
  H   H3156     1.0  0.99395  0.57247  0.21732  1.0000
  N   N133      1.0  0.72078  0.49069  0.04674  1.0000
  C   C1861     1.0  0.71244  0.49657  0.03431  1.0000
  C   C1862     1.0  0.72174  0.47422  0.05165  1.0000
  C   C1863     1.0  0.71247  0.49866  0.05910  1.0000
  C   C1864     1.0  0.71196  0.51287  0.02636  1.0000
  C   C1865     1.0  0.70700  0.46959  0.06018  1.0000
  C   C1866     1.0  0.71920  0.49378  0.07305  1.0000
  H   H3157     1.0  0.71708  0.48978  0.02575  1.0000
  H   H3158     1.0  0.70059  0.49562  0.03838  1.0000
  H   H3159     1.0  0.71213  0.51073  0.05530  1.0000
  H   H3160     1.0  0.70044  0.49827  0.06237  1.0000
  H   H3161     1.0  0.70594  0.51572  0.01723  1.0000
  C   C1867     1.0  0.87900  0.49151  0.00818  1.0000
  H   H3162     1.0  0.72322  0.51489  0.02120  1.0000
  H   H3163     1.0  0.70897  0.45733  0.06238  1.0000
  H   H3164     1.0  0.70304  0.47278  0.07108  1.0000
  H   H3165     1.0  0.69810  0.47413  0.05372  1.0000
  H   H3166     1.0  0.72747  0.50034  0.07204  1.0000
  H   H3167     1.0  0.72474  0.48189  0.07536  1.0000
  H   H3168     1.0  0.71013  0.49550  0.08292  1.0000
  C   C1868     1.0  0.95895  0.43628  0.11251  1.0000
  C   C1869     1.0  0.96319  0.44743  0.09798  1.0000
  H   H3169     1.0  0.97136  0.44323  0.12995  1.0000
  H   H3170     1.0  0.96261  0.46026  0.11973  1.0000
  H   H3171     1.0  0.95299  0.42933  0.10989  1.0000
  H   H3172     1.0  0.96951  0.42847  0.11501  1.0000
  H   H3173     1.0  0.96831  0.44136  0.08885  1.0000
  H   H3174     1.0  0.95333  0.45585  0.09477  1.0000
  H   H3175     1.0  0.97164  0.45302  0.09852  1.0000
  C   C1870     1.0  0.83702  0.54415  0.10824  1.0000
  C   C1871     1.0  0.82915  0.54364  0.09637  1.0000
  C   C1872     1.0  0.84455  0.55542  0.13049  1.0000
  H   H3176     1.0  0.84237  0.53248  0.11280  1.0000
  H   H3177     1.0  0.82788  0.54782  0.11739  1.0000
  H   H3178     1.0  0.86156  0.53998  0.11902  1.0000
  C   C1873     1.0  0.98438  0.51202  0.18258  1.0000
  H   H3179     1.0  0.82004  0.53765  0.10180  1.0000
  H   H3180     1.0  0.82399  0.55482  0.09066  1.0000
  H   H3181     1.0  0.83649  0.56620  0.12849  1.0000
  H   H3182     1.0  0.83843  0.54654  0.13636  1.0000
  H   H3183     1.0  0.85113  0.55605  0.13815  1.0000
  C   C1874     1.0  0.73638  0.49333  0.04192  1.0000
  H   H3184     1.0  0.92510  0.59433  0.19046  1.0000
  H   H3185     1.0  0.82883  0.57192  0.10547  1.0000
  N   N134      1.0  0.92251  0.51146  0.16820  1.0000
  H   H3186     1.0  0.97446  0.56094  0.06620  1.0000
  C   C1875     1.0  0.97012  0.55704  0.07820  1.0000
  H   H3187     1.0  0.98356  0.55611  0.14649  1.0000
  H   H3188     1.0  0.80071  0.55038  0.99077  1.0000
  H   H3189     1.0  0.71154  0.41663  0.07184  1.0000
  H   H3190     1.0  0.86398  0.55815  0.11346  1.0000
  C   C1876     1.0  0.96026  0.45080  0.12897  1.0000
  C   C1877     1.0  0.92170  0.60643  0.18621  1.0000
  C   C1878     1.0  0.71020  0.39762  0.99572  1.0000
  Fe  Fe272     1.0  0.99451  0.58584  0.16563  1.0000
  H   H3191     1.0  0.73577  0.40674  0.08033  1.0000
  H   H3192     1.0  0.96197  0.62088  0.16664  1.0000
  H   H3193     1.0  0.99253  0.53439  0.20079  1.0000
  H   H3194     1.0  0.69744  0.37133  0.09627  1.0000
  H   H3195     1.0  0.72911  0.37578  0.08699  1.0000
  H   H3196     1.0  0.72440  0.38486  0.04431  1.0000
  H   H3197     1.0  0.93954  0.49727  0.15487  1.0000
  H   H3198     1.0  0.93693  0.52332  0.15033  1.0000
  H   H3199     1.0  0.94005  0.59089  0.20550  1.0000
  C   C1879     1.0  0.71813  0.37838  0.08378  1.0000
  H   H3200     1.0  0.71921  0.36923  0.07829  1.0000
  C   C1880     1.0  0.94519  0.52859  0.09461  1.0000
  C   C1881     1.0  0.84094  0.45642  0.19062  1.0000
  H   H3201     1.0  0.83086  0.46539  0.19278  1.0000
  C   C1882     1.0  0.68733  0.48301  0.99975  1.0000
  H   H3202     1.0  0.92409  0.48904  0.14424  1.0000
  H   H3203     1.0  0.72884  0.40486  0.05390  1.0000
  C   C1883     1.0  0.73319  0.38268  0.05067  1.0000
  H   H3204     1.0  0.71137  0.36806  0.10693  1.0000
  H   H3205     1.0  0.87026  0.48417  0.16639  1.0000
  H   H3206     1.0  0.50541  0.38500  0.99262  1.0000
  H   H3207     1.0  0.70055  0.38608  0.10253  1.0000
  H   H3208     1.0  0.73955  0.39121  0.06579  1.0000
  C   C1884     1.0  0.70605  0.37601  0.09803  1.0000
  C   C1885     1.0  0.84610  0.52188  0.02246  1.0000
  H   H3209     1.0  0.98369  0.52734  0.13801  1.0000
  H   H3210     1.0  0.97343  0.62663  0.17481  1.0000
  H   H3211     1.0  0.83436  0.46691  0.21511  1.0000
  H   H3212     1.0  0.71838  0.48732  0.99810  1.0000
  H   H3213     1.0  0.66689  0.43067  0.02868  1.0000
  H   H3214     1.0  0.70396  0.40274  0.05504  1.0000
  H   H3215     1.0  0.64909  0.53543  0.01116  1.0000
  H   H3216     1.0  0.90623  0.49754  0.19628  1.0000
  C   C1886     1.0  0.96555  0.61931  0.17712  1.0000
  C   C1887     1.0  0.93293  0.62519  0.21874  1.0000
  H   H3217     1.0  0.96725  0.52084  0.12709  1.0000
  H   H3218     1.0  0.98010  0.55235  0.08317  1.0000
  H   H3219     1.0  0.74669  0.47583  0.02900  1.0000
  C   C1888     1.0  0.84022  0.56968  0.09830  1.0000
  H   H3220     1.0  0.93713  0.53780  0.07372  1.0000
  H   H3221     1.0  0.90320  0.49077  0.18177  1.0000
  H   H3222     1.0  0.91449  0.45145  0.12147  1.0000
  H   H3223     1.0  0.74208  0.49431  0.01793  1.0000
  S   S549      1.0  0.93081  0.45736  0.21658  1.0000
  H   H3224     1.0  0.88526  0.48040  0.01312  1.0000
  H   H3225     1.0  0.92896  0.45710  0.13316  1.0000
  H   H3226     1.0  0.73614  0.50531  0.03998  1.0000
  C   C1889     1.0  0.85996  0.54830  0.09067  1.0000
  C   C1890     1.0  0.74608  0.48769  0.02803  1.0000
  H   H3227     1.0  0.95036  0.59202  0.22403  1.0000
  C   C1891     1.0  0.92615  0.45001  0.11486  1.0000
  H   H3228     1.0  0.95337  0.55051  0.07238  1.0000
  H   H3229     1.0  0.94772  0.55990  0.10413  1.0000
  C   C1892     1.0  0.96109  0.54537  0.08012  1.0000
  H   H3230     1.0  0.96906  0.53583  0.07565  1.0000
  H   H3231     1.0  0.83682  0.53728  0.08815  1.0000
  Fe  Fe273     1.0  0.71144  0.55234  0.99013  1.0000
  H   H3232     1.0  0.96326  0.56695  0.08254  1.0000
  C   C1893     1.0  0.86698  0.45024  0.20605  1.0000
  H   H3233     1.0  0.85500  0.54940  0.08110  1.0000
  H   H3234     1.0  0.95592  0.59248  0.19153  1.0000
  H   H3235     1.0  0.91774  0.55565  0.11082  1.0000
  H   H3236     1.0  0.93066  0.62595  0.17700  1.0000
  H   H3237     1.0  0.70848  0.39778  0.00756  1.0000
  H   H3238     1.0  0.85980  0.57873  0.09773  1.0000
  H   H3239     1.0  0.95729  0.62423  0.19859  1.0000
  H   H3240     1.0  0.92956  0.43863  0.11297  1.0000
  Fe  Fe274     1.0  0.89256  0.53664  0.22984  1.0000
  H   H3241     1.0  0.97551  0.51516  0.16337  1.0000
  H   H3242     1.0  0.87949  0.55527  0.09253  1.0000
  C   C1894     1.0  0.92859  0.55019  0.11418  1.0000
  H   H3243     1.0  0.85440  0.51338  0.00266  1.0000
  N   N135      1.0  0.99480  0.52467  0.15587  1.0000
  H   H3244     1.0  0.91785  0.60782  0.17589  1.0000
  C   C1895     1.0  0.96596  0.51008  0.23184  1.0000
  H   H3245     1.0  0.70855  0.38681  0.99533  1.0000
  S   S550      1.0  0.87600  0.55594  0.22021  1.0000
  S   S551      1.0  0.91424  0.43128  0.21756  1.0000
  C   C1896     1.0  0.85507  0.46271  0.18419  1.0000
  H   H3246     1.0  0.83949  0.45100  0.18243  1.0000
  H   H3247     1.0  0.93662  0.41212  0.14843  1.0000
  H   H3248     1.0  0.94099  0.43547  0.14894  1.0000
  C   C1897     1.0  0.87590  0.48384  0.17517  1.0000
  H   H3249     1.0  0.63025  0.54021  0.00812  1.0000
  H   H3250     1.0  0.98198  0.52837  0.23122  1.0000
  C   C1898     1.0  0.95764  0.59421  0.21286  1.0000
  S   S552      1.0  0.89085  0.59130  0.21604  1.0000
  H   H3251     1.0  0.95441  0.44853  0.15332  1.0000
  H   H3252     1.0  0.87294  0.45197  0.21367  1.0000
  H   H3253     1.0  0.92494  0.54860  0.15357  1.0000
  H   H3254     1.0  0.64536  0.43896  0.01646  1.0000
  C   C1899     1.0  0.94777  0.50860  0.17486  1.0000
  H   H3255     1.0  0.94936  0.52003  0.17042  1.0000
  C   C1900     1.0  0.99306  0.56769  0.22931  1.0000
  H   H3256     1.0  0.79887  0.44256  0.99508  1.0000
  C   C1901     1.0  0.91895  0.49899  0.14912  1.0000
  C   C1902     1.0  0.64756  0.41767  0.01190  1.0000
  H   H3257     1.0  0.99231  0.49393  0.15858  1.0000
  H   H3258     1.0  0.96778  0.54780  0.14999  1.0000
  H   H3259     1.0  0.96673  0.58416  0.21158  1.0000
  C   C1903     1.0  0.93110  0.50823  0.18018  1.0000
  H   H3260     1.0  0.91711  0.57668  0.22956  1.0000
  H   H3261     1.0  0.92596  0.51606  0.18774  1.0000
  H   H3262     1.0  0.91052  0.54280  0.16835  1.0000
  H   H3263     1.0  0.70217  0.40727  0.08854  1.0000
  H   H3264     1.0  0.95367  0.51975  0.08951  1.0000
  H   H3265     1.0  0.84536  0.49182  0.03333  1.0000
  H   H3266     1.0  0.84158  0.44758  0.20068  1.0000
  H   H3267     1.0  0.75767  0.48886  0.02655  1.0000
  H   H3268     1.0  0.84735  0.46583  0.22624  1.0000
  H   H3269     1.0  0.96693  0.46452  0.22595  1.0000
  H   H3270     1.0  0.90713  0.49856  0.15413  1.0000
  H   H3271     1.0  0.90922  0.48340  0.22112  1.0000
  H   H3272     1.0  0.94141  0.53175  0.23752  1.0000
  C   C1904     1.0  0.87740  0.46879  0.18634  1.0000
  H   H3273     1.0  0.89943  0.51704  0.16642  1.0000
  H   H3274     1.0  0.86585  0.46834  0.03686  1.0000
  C   C1905     1.0  0.87315  0.55594  0.08419  1.0000
  H   H3275     1.0  0.94032  0.52256  0.10559  1.0000
  H   H3276     1.0  0.77531  0.53453  0.99510  1.0000
  H   H3277     1.0  0.83503  0.48300  0.22051  1.0000
  H   H3278     1.0  0.97313  0.53142  0.16973  1.0000
  H   H3279     1.0  0.93880  0.46470  0.11581  1.0000
  H   H3280     1.0  0.96198  0.46409  0.14323  1.0000
  C   C1906     1.0  0.94701  0.43083  0.13899  1.0000
  H   H3281     1.0  0.92558  0.45776  0.10397  1.0000
  C   C1907     1.0  0.98354  0.62011  0.21806  1.0000
  N   N136      1.0  0.86570  0.49763  0.01921  1.0000
  C   C1908     1.0  0.92232  0.53932  0.16289  1.0000
  H   H3282     1.0  0.93066  0.49706  0.18736  1.0000
  C   C1909     1.0  0.93609  0.45414  0.12272  1.0000
  C   C1910     1.0  0.90608  0.51378  0.17507  1.0000
  H   H3283     1.0  0.88874  0.50374  0.19082  1.0000
  C   C1911     1.0  0.93272  0.53423  0.08572  1.0000
  C   C1912     1.0  0.66765  0.39811  0.02074  1.0000
  H   H3284     1.0  0.99335  0.50406  0.13962  1.0000
  C   C1913     1.0  0.88135  0.50721  0.03123  1.0000
  C   C1914     1.0  0.85535  0.55167  0.11615  1.0000
  H   H3285     1.0  0.72574  0.46882  0.04197  1.0000
  C   C1915     1.0  0.93736  0.42085  0.13810  1.0000
  H   H3286     1.0  0.92570  0.42705  0.13780  1.0000
  C   C1916     1.0  0.95232  0.62355  0.18972  1.0000
  H   H3287     1.0  0.97549  0.61363  0.22438  1.0000
  H   H3288     1.0  0.85699  0.44660  0.21346  1.0000
  H   H3289     1.0  0.88440  0.46040  0.17987  1.0000
  H   H3290     1.0  0.95383  0.50195  0.16642  1.0000
  H   H3291     1.0  0.87765  0.42678  0.20855  1.0000
  H   H3292     1.0  0.86121  0.48149  0.20670  1.0000
  H   H3293     1.0  0.85000  0.46640  0.03193  1.0000
  H   H3294     1.0  0.95317  0.50396  0.18452  1.0000
  H   H3295     1.0  0.95008  0.51999  0.12406  1.0000
  C   C1917     1.0  0.96389  0.53280  0.10524  1.0000
  H   H3296     1.0  0.93699  0.63553  0.21370  1.0000
  N   N137      1.0  0.95260  0.54011  0.09558  1.0000
  H   H3297     1.0  0.52792  0.38812  0.99376  1.0000
  H   H3298     1.0  0.92870  0.55518  0.12329  1.0000
  H   H3299     1.0  0.87625  0.51908  0.02754  1.0000
  C   C1918     1.0  0.95772  0.52743  0.12183  1.0000
  H   H3300     1.0  0.97170  0.52304  0.10113  1.0000
  H   H3301     1.0  0.70294  0.38412  0.06331  1.0000
  H   H3302     1.0  0.84800  0.48614  0.19530  1.0000
  H   H3303     1.0  0.91801  0.52816  0.14869  1.0000
  H   H3304     1.0  0.92751  0.52490  0.08689  1.0000
  Fe  Fe275     1.0  0.90905  0.45606  0.21324  1.0000
  H   H3305     1.0  0.68084  0.39142  0.99210  1.0000
  C   C1919     1.0  0.85382  0.47675  0.20294  1.0000
  H   H3306     1.0  0.92847  0.53843  0.11894  1.0000
  N   N138      1.0  0.86298  0.46446  0.19501  1.0000
  H   H3307     1.0  0.99376  0.54156  0.16742  1.0000
  C   C1920     1.0  0.94169  0.55329  0.10095  1.0000
  H   H3308     1.0  0.68865  0.52345  0.99725  1.0000
  C   C1921     1.0  0.92877  0.61946  0.20722  1.0000
  H   H3309     1.0  0.54627  0.34449  0.99984  1.0000
  H   H3310     1.0  0.86950  0.56755  0.07838  1.0000
  H   H3311     1.0  0.99685  0.46508  0.13679  1.0000
  C   C1922     1.0  0.92762  0.49849  0.16068  1.0000
  C   C1923     1.0  0.90101  0.50055  0.18659  1.0000
  C   C1924     1.0  0.93476  0.61423  0.18250  1.0000
  H   H3312     1.0  0.85138  0.47359  0.17691  1.0000
  H   H3313     1.0  0.99679  0.40105  0.23580  1.0000
  S   S553      1.0  0.91027  0.54923  0.22533  1.0000
  H   H3314     1.0  0.96039  0.44425  0.21964  1.0000
  H   H3315     1.0  0.84560  0.59132  0.08901  1.0000
  C   C1925     1.0  0.98960  0.53347  0.14186  1.0000
  C   C1926     1.0  0.97886  0.54877  0.14280  1.0000
  H   H3316     1.0  0.92711  0.48793  0.16896  1.0000
  C   C1927     1.0  0.84759  0.58198  0.09855  1.0000
  H   H3317     1.0  0.86764  0.51992  0.00735  1.0000
  H   H3318     1.0  0.88846  0.43820  0.19473  1.0000
  H   H3319     1.0  0.92925  0.53806  0.17084  1.0000
  C   C1928     1.0  0.65166  0.42758  0.01750  1.0000
  H   H3320     1.0  0.88187  0.61607  0.22918  1.0000
  H   H3321     1.0  0.94642  0.63517  0.18571  1.0000
  H   H3322     1.0  0.63576  0.52544  0.02269  1.0000
  H   H3323     1.0  0.86278  0.45605  0.17618  1.0000
  C   C1929     1.0  0.87685  0.43684  0.19952  1.0000
  H   H3324     1.0  0.88725  0.48548  0.16941  1.0000
  H   H3325     1.0  0.97189  0.60781  0.18019  1.0000
  H   H3326     1.0  0.87218  0.43461  0.19120  1.0000
  H   H3327     1.0  0.97065  0.51630  0.22073  1.0000
  H   H3328     1.0  0.68405  0.39389  0.08565  1.0000
  H   H3329     1.0  0.61303  0.52884  0.00638  1.0000
  H   H3330     1.0  0.95694  0.49876  0.22092  1.0000
  H   H3331     1.0  0.98490  0.57554  0.23576  1.0000
  H   H3332     1.0  0.87678  0.48560  0.03735  1.0000
  H   H3333     1.0  0.88415  0.46915  0.19398  1.0000
  S   S554      1.0  0.94788  0.41986  0.23820  1.0000
  C   C1930     1.0  0.65562  0.40291  0.01346  1.0000
  S   S555      1.0  0.69409  0.44094  0.01145  1.0000
  C   C1931     1.0  0.84197  0.47267  0.21693  1.0000
  C   C1932     1.0  0.99813  0.63750  0.21651  1.0000
  H   H3334     1.0  0.87016  0.49330  0.18067  1.0000
  C   C1933     1.0  0.66390  0.42290  0.02437  1.0000
  H   H3335     1.0  0.98605  0.61326  0.19782  1.0000
  S   S556      1.0  0.72330  0.41811  0.02392  1.0000
  C   C1934     1.0  0.63961  0.53097  0.01104  1.0000
  H   H3336     1.0  0.92055  0.62894  0.20217  1.0000
  H   H3337     1.0  0.94116  0.61688  0.22463  1.0000
  C   C1935     1.0  0.87576  0.49077  0.99352  1.0000
  H   H3338     1.0  0.67378  0.38668  0.02206  1.0000
  C   C1936     1.0  0.67192  0.40817  0.02602  1.0000
  H   H3339     1.0  0.68467  0.41233  0.07459  1.0000
  C   C1937     1.0  0.68826  0.51218  0.99791  1.0000
  S   S557      1.0  0.88650  0.46761  0.22442  1.0000
  C   C1938     1.0  0.73068  0.48422  0.99713  1.0000
  C   C1939     1.0  0.96027  0.44382  0.23103  1.0000
  C   C1940     1.0  0.88687  0.48164  0.23263  1.0000
  H   H3340     1.0  0.65740  0.49327  0.99307  1.0000
  C   C1941     1.0  0.89954  0.48746  0.22904  1.0000
  C   C1942     1.0  0.89869  0.59581  0.22834  1.0000
  C   C1943     1.0  0.78920  0.54867  0.99543  1.0000
  S   S558      1.0  0.82628  0.51373  0.99259  1.0000
  C   C1944     1.0  0.89169  0.60904  0.23311  1.0000
  H   H3341     1.0  0.98846  0.55770  0.23173  1.0000
  H   H3342     1.0  0.86472  0.48850  0.99484  1.0000
  H   H3343     1.0  0.73309  0.47669  0.00761  1.0000
  H   H3344     1.0  0.78100  0.55944  0.99404  1.0000
  H   H3345     1.0  0.97457  0.49974  0.23419  1.0000
  C   C1945     1.0  0.95283  0.50493  0.23001  1.0000
  H   H3346     1.0  0.60303  0.53102  0.99251  1.0000
  C   C1946     1.0  0.96415  0.45520  0.23457  1.0000
  C   C1947     1.0  0.95175  0.53356  0.23907  1.0000
  H   H3347     1.0  0.54820  0.39846  0.99012  1.0000
  H   H3348     1.0  0.81785  0.45624  0.99016  1.0000
  H   H3349     1.0  0.72193  0.39847  0.99076  1.0000
  H   H3350     1.0  0.96581  0.53657  0.31528  1.0000
  S   S559      1.0  0.96758  0.33527  0.43236  1.0000
  H   H3351     1.0  0.90310  0.58075  0.27714  1.0000
  C   C1948     1.0  0.90699  0.33569  0.38050  1.0000
  H   H3352     1.0  0.93701  0.33867  0.40480  1.0000
  C   C1949     1.0  0.99000  0.56007  0.30158  1.0000
  C   C1950     1.0  0.90963  0.60421  0.24847  1.0000
  H   H3353     1.0  0.90217  0.33512  0.45994  1.0000
  C   C1951     1.0  0.97296  0.56262  0.30769  1.0000
  H   H3354     1.0  0.90407  0.42930  0.25859  1.0000
  H   H3355     1.0  0.93452  0.47931  0.24316  1.0000
  H   H3356     1.0  0.93436  0.51442  0.25503  1.0000
  C   C1952     1.0  0.94088  0.55750  0.32152  1.0000
  C   C1953     1.0  0.89685  0.34794  0.47776  1.0000
  H   H3357     1.0  0.97527  0.58057  0.32341  1.0000
  Fe  Fe276     1.0  0.96745  0.61269  0.25744  1.0000
  S   S560      1.0  0.95901  0.59697  0.25009  1.0000
  Fe  Fe277     1.0  0.95427  0.60275  0.29003  1.0000
  S   S561      1.0  0.94438  0.58614  0.28573  1.0000
  S   S562      1.0  0.95037  0.60618  0.31327  1.0000
  Fe  Fe278     1.0  0.96619  0.58062  0.26989  1.0000
  S   S563      1.0  0.97957  0.55764  0.26795  1.0000
  Fe  Fe279     1.0  0.93790  0.60362  0.26636  1.0000
  H   H3358     1.0  0.86477  0.58752  0.25224  1.0000
  S   S564      1.0  0.97668  0.59574  0.27580  1.0000
  S   S565      1.0  0.94569  0.62088  0.27209  1.0000
  Fe  Fe280     1.0  0.96851  0.46616  0.27729  1.0000
  S   S566      1.0  0.98070  0.47983  0.28294  1.0000
  S   S567      1.0  0.96757  0.46974  0.25358  1.0000
  Fe  Fe281     1.0  0.95970  0.45030  0.30917  1.0000
  S   S568      1.0  0.97112  0.46267  0.31772  1.0000
  S   S569      1.0  0.94838  0.43175  0.32225  1.0000
  Fe  Fe282     1.0  0.96114  0.48267  0.30188  1.0000
  S   S570      1.0  0.94906  0.50526  0.30657  1.0000
  Fe  Fe283     1.0  0.98960  0.45879  0.29791  1.0000
  C   C1954     1.0  0.89475  0.34040  0.39365  1.0000
  S   S571      1.0  0.94810  0.47056  0.29498  1.0000
  S   S572      1.0  0.97904  0.44482  0.29064  1.0000
  H   H3359     1.0  0.88035  0.55438  0.25424  1.0000
  H   H3360     1.0  0.90783  0.36411  0.36662  1.0000
  H   H3361     1.0  0.98670  0.50702  0.26083  1.0000
  S   S573      1.0  0.98662  0.36723  0.40555  1.0000
  H   H3362     1.0  0.87301  0.54640  0.27957  1.0000
  H   H3363     1.0  0.92223  0.46514  0.28403  1.0000
  H   H3364     1.0  0.99856  0.61839  0.30788  1.0000
  H   H3365     1.0  0.98862  0.55085  0.33109  1.0000
  C   C1955     1.0  0.95140  0.42456  0.34036  1.0000
  C   C1956     1.0  0.95224  0.40945  0.34659  1.0000
  C   C1957     1.0  0.95554  0.40334  0.36069  1.0000
  C   C1958     1.0  0.95759  0.41240  0.36879  1.0000
  C   C1959     1.0  0.95610  0.42761  0.36282  1.0000
  C   C1960     1.0  0.95327  0.43365  0.34854  1.0000
  H   H3366     1.0  0.95076  0.40238  0.34033  1.0000
  H   H3367     1.0  0.95651  0.39161  0.36526  1.0000
  H   H3368     1.0  0.95236  0.44535  0.34393  1.0000
  C   C1961     1.0  0.96416  0.45467  0.24924  1.0000
  H   H3369     1.0  0.97254  0.55102  0.34514  1.0000
  C   C1962     1.0  0.94680  0.54414  0.24993  1.0000
  H   H3370     1.0  0.90119  0.33824  0.37117  1.0000
  C   C1963     1.0  0.95705  0.43098  0.25671  1.0000
  C   C1964     1.0  0.96108  0.44234  0.26025  1.0000
  C   C1965     1.0  0.93129  0.33519  0.38575  1.0000
  H   H3371     1.0  0.98628  0.39641  0.25414  1.0000
  H   H3372     1.0  0.95396  0.42181  0.26534  1.0000
  H   H3373     1.0  0.96126  0.44180  0.27157  1.0000
  C   C1966     1.0  0.97099  0.53835  0.32355  1.0000
  H   H3374     1.0  0.94038  0.54566  0.32498  1.0000
  H   H3375     1.0  0.93457  0.47522  0.26231  1.0000
  H   H3376     1.0  0.91902  0.34890  0.40272  1.0000
  C   C1967     1.0  0.99100  0.41708  0.33404  1.0000
  H   H3377     1.0  0.94232  0.33800  0.38059  1.0000
  C   C1968     1.0  0.95765  0.51052  0.25867  1.0000
  C   C1969     1.0  0.97092  0.54313  0.27842  1.0000
  C   C1970     1.0  0.97965  0.52871  0.28128  1.0000
  C   C1971     1.0  0.97303  0.51703  0.29000  1.0000
  C   C1972     1.0  0.95764  0.51972  0.29580  1.0000
  C   C1973     1.0  0.94890  0.53416  0.29292  1.0000
  C   C1974     1.0  0.95551  0.54582  0.28414  1.0000
  H   H3378     1.0  0.99158  0.52657  0.27690  1.0000
  H   H3379     1.0  0.97990  0.50599  0.29244  1.0000
  H   H3380     1.0  0.93698  0.53626  0.29736  1.0000
  H   H3381     1.0  0.94866  0.55684  0.28171  1.0000
  C   C1975     1.0  0.92824  0.34008  0.36032  1.0000
  C   C1976     1.0  0.96686  0.62878  0.33279  1.0000
  C   C1977     1.0  0.95739  0.62207  0.32916  1.0000
  C   C1978     1.0  0.96262  0.61430  0.31765  1.0000
  C   C1979     1.0  0.97744  0.61320  0.30983  1.0000
  H   H3382     1.0  0.88844  0.55005  0.29843  1.0000
  H   H3383     1.0  0.93648  0.64714  0.28659  1.0000
  H   H3384     1.0  0.98162  0.60726  0.30095  1.0000
  H   H3385     1.0  0.91925  0.43323  0.29780  1.0000
  H   H3386     1.0  0.92383  0.43342  0.26883  1.0000
  C   C1980     1.0  0.95671  0.36621  0.45723  1.0000
  C   C1981     1.0  0.96048  0.35948  0.44503  1.0000
  H   H3387     1.0  0.96835  0.57478  0.30624  1.0000
  H   H3388     1.0  0.95373  0.37817  0.45558  1.0000
  H   H3389     1.0  0.96041  0.36626  0.43403  1.0000
  H   H3390     1.0  0.99216  0.43900  0.26001  1.0000
  H   H3391     1.0  0.86442  0.48272  0.24558  1.0000
  Fe  Fe284     1.0  0.99122  0.64204  0.46179  1.0000
  C   C1982     1.0  0.96380  0.34403  0.44720  1.0000
  H   H3392     1.0  0.96727  0.51703  0.33686  1.0000
  C   C1983     1.0  0.91176  0.36327  0.48092  1.0000
  N   N139      1.0  0.96271  0.51920  0.24334  1.0000
  H   H3393     1.0  0.98246  0.41096  0.34131  1.0000
  C   C1984     1.0  0.99729  0.39859  0.24763  1.0000
  S   S574      1.0  0.96771  0.34921  0.35862  1.0000
  H   H3394     1.0  0.86392  0.57538  0.24175  1.0000
  H   H3395     1.0  0.93059  0.64642  0.30591  1.0000
  H   H3396     1.0  0.90771  0.56228  0.25956  1.0000
  S   S575      1.0  0.99432  0.63483  0.33001  1.0000
  H   H3397     1.0  0.92272  0.36653  0.47735  1.0000
  H   H3398     1.0  0.95951  0.51537  0.26710  1.0000
  H   H3399     1.0  0.96119  0.33528  0.48441  1.0000
  C   C1985     1.0  0.97537  0.57276  0.33422  1.0000
  H   H3400     1.0  0.95162  0.65351  0.30779  1.0000
  C   C1986     1.0  0.96066  0.34209  0.47355  1.0000
  H   H3401     1.0  0.90355  0.37315  0.47652  1.0000
  C   C1987     1.0  0.98953  0.51033  0.24860  1.0000
  C   C1988     1.0  0.87651  0.55303  0.29793  1.0000
  H   H3402     1.0  0.88590  0.58749  0.26071  1.0000
  H   H3403     1.0  0.92323  0.37940  0.36996  1.0000
  C   C1989     1.0  0.88688  0.50473  0.24523  1.0000
  H   H3404     1.0  0.98231  0.64633  0.28852  1.0000
  C   C1990     1.0  0.91545  0.35909  0.37454  1.0000
  C   C1991     1.0  0.92811  0.36753  0.36961  1.0000
  C   C1992     1.0  0.87431  0.49865  0.24917  1.0000
  N   N140      1.0  0.91253  0.35008  0.47482  1.0000
  C   C1993     1.0  0.92241  0.33684  0.48273  1.0000
  C   C1994     1.0  0.97376  0.65506  0.42979  1.0000
  H   H3405     1.0  0.99216  0.56570  0.28974  1.0000
  H   H3406     1.0  0.98780  0.43221  0.36987  1.0000
  H   H3407     1.0  0.90280  0.48598  0.27606  1.0000
  H   H3408     1.0  0.92160  0.34387  0.45336  1.0000
  H   H3409     1.0  0.96272  0.63470  0.34170  1.0000
  H   H3410     1.0  0.93566  0.51333  0.27360  1.0000
  C   C1995     1.0  0.89699  0.61309  0.24325  1.0000
  H   H3411     1.0  0.91667  0.36757  0.43726  1.0000
  H   H3412     1.0  0.97267  0.52731  0.34658  1.0000
  C   C1996     1.0  0.97661  0.55659  0.33353  1.0000
  H   H3413     1.0  0.88365  0.48531  0.28138  1.0000
  C   C1997     1.0  0.95661  0.35752  0.47156  1.0000
  C   C1998     1.0  0.91708  0.59110  0.24341  1.0000
  S   S576      1.0  0.95710  0.36373  0.39587  1.0000
  H   H3414     1.0  0.93612  0.36332  0.37706  1.0000
  H   H3415     1.0  0.94593  0.62300  0.33524  1.0000
  C   C1999     1.0  0.96988  0.33074  0.35801  1.0000
  H   H3416     1.0  0.88886  0.57580  0.29321  1.0000
  C   C2000     1.0  0.89517  0.47845  0.28146  1.0000
  H   H3417     1.0  0.98965  0.42049  0.25176  1.0000
  H   H3418     1.0  0.88728  0.59445  0.28298  1.0000
  C   C2001     1.0  0.94124  0.50896  0.26340  1.0000
  H   H3419     1.0  0.90345  0.44853  0.30105  1.0000
  H   H3420     1.0  0.88631  0.33361  0.39643  1.0000
  S   S577      1.0  0.88620  0.52070  0.25103  1.0000
  H   H3421     1.0  0.88970  0.45882  0.28045  1.0000
  C   C2002     1.0  0.92183  0.45432  0.28235  1.0000
  H   H3422     1.0  0.92213  0.32914  0.40960  1.0000
  C   C2003     1.0  0.98686  0.64433  0.42661  1.0000
  C   C2004     1.0  0.98178  0.62737  0.32522  1.0000
  H   H3423     1.0  0.89365  0.47071  0.26307  1.0000
  H   H3424     1.0  0.93423  0.36722  0.35806  1.0000
  C   C2005     1.0  0.92747  0.47674  0.25440  1.0000
  S   S578      1.0  0.98447  0.62703  0.48371  1.0000
  H   H3425     1.0  0.95745  0.43469  0.36915  1.0000
  C   C2006     1.0  0.91254  0.44108  0.26975  1.0000
  H   H3426     1.0  0.91592  0.53526  0.26807  1.0000
  H   H3427     1.0  0.98299  0.43756  0.35224  1.0000
  Fe  Fe285     1.0  0.97151  0.38017  0.38980  1.0000
  H   H3428     1.0  0.98314  0.53367  0.32004  1.0000
  H   H3429     1.0  0.90867  0.36203  0.38510  1.0000
  S   S579      1.0  0.98671  0.37114  0.37063  1.0000
  H   H3430     1.0  0.90213  0.53905  0.25750  1.0000
  H   H3431     1.0  0.87056  0.56230  0.30367  1.0000
  S   S580      1.0  0.98869  0.33814  0.39226  1.0000
  H   H3432     1.0  0.91414  0.44228  0.24617  1.0000
  C   C2007     1.0  0.93646  0.65254  0.29540  1.0000
  H   H3433     1.0  0.95839  0.63962  0.29753  1.0000
  C   C2008     1.0  0.87428  0.48716  0.24280  1.0000
  H   H3434     1.0  0.96516  0.57682  0.34223  1.0000
  Fe  Fe286     1.0  0.97351  0.34987  0.40997  1.0000
  H   H3435     1.0  0.96990  0.65742  0.44068  1.0000
  H   H3436     1.0  0.86440  0.50323  0.25664  1.0000
  H   H3437     1.0  0.95382  0.53213  0.34350  1.0000
  N   N141      1.0  0.92039  0.34256  0.37569  1.0000
  C   C2009     1.0  0.99142  0.64103  0.41251  1.0000
  H   H3438     1.0  0.92153  0.34709  0.35201  1.0000
  H   H3439     1.0  0.97189  0.33590  0.33440  1.0000
  C   C2010     1.0  0.91082  0.36684  0.44905  1.0000
  H   H3440     1.0  0.91046  0.37739  0.45184  1.0000
  H   H3441     1.0  0.90549  0.43596  0.28006  1.0000
  H   H3442     1.0  0.89601  0.47423  0.29321  1.0000
  H   H3443     1.0  0.98537  0.57343  0.33757  1.0000
  H   H3444     1.0  0.91571  0.46538  0.24691  1.0000
  C   C2011     1.0  0.89090  0.58267  0.28194  1.0000
  C   C2012     1.0  0.90393  0.54016  0.26799  1.0000
  H   H3445     1.0  0.94947  0.57332  0.32685  1.0000
  H   H3446     1.0  0.93094  0.35527  0.45704  1.0000
  H   H3447     1.0  0.86206  0.56353  0.28286  1.0000
  C   C2013     1.0  0.90039  0.55648  0.26918  1.0000
  C   C2014     1.0  0.88049  0.56553  0.25543  1.0000
  Fe  Fe287     1.0  0.97360  0.35366  0.37771  1.0000
  S   S581      1.0  0.96273  0.40484  0.38603  1.0000
  H   H3448     1.0  0.91810  0.48649  0.25529  1.0000
  H   H3449     1.0  0.93688  0.32515  0.46524  1.0000
  H   H3450     1.0  0.93239  0.45434  0.25216  1.0000
  S   S582      1.0  0.91468  0.60959  0.26215  1.0000
  H   H3451     1.0  0.92069  0.44707  0.30610  1.0000
  H   H3452     1.0  0.98295  0.41660  0.31519  1.0000
  C   C2015     1.0  0.86532  0.57574  0.25273  1.0000
  C   C2016     1.0  0.92220  0.46270  0.25566  1.0000
  H   H3453     1.0  0.88917  0.56945  0.24596  1.0000
  C   C2017     1.0  0.98702  0.61953  0.31376  1.0000
  C   C2018     1.0  0.87371  0.55678  0.28213  1.0000
  C   C2019     1.0  0.96388  0.33536  0.46147  1.0000
  H   H3454     1.0  0.89117  0.62319  0.24715  1.0000
  H   H3455     1.0  0.89934  0.36577  0.44991  1.0000
  N   N142      1.0  0.91343  0.45628  0.27049  1.0000
  H   H3456     1.0  0.96830  0.55931  0.30002  1.0000
  C   C2020     1.0  0.91959  0.35338  0.45857  1.0000
  C   C2021     1.0  0.96579  0.52836  0.33857  1.0000
  H   H3457     1.0  0.94319  0.53845  0.26153  1.0000
  N   N143      1.0  0.88428  0.56468  0.26997  1.0000
  H   H3458     1.0  0.96482  0.49909  0.26011  1.0000
  C   C2022     1.0  0.89433  0.33664  0.47049  1.0000
  H   H3459     1.0  0.94818  0.55729  0.34093  1.0000
  H   H3460     1.0  0.85574  0.57210  0.26101  1.0000
  H   H3461     1.0  0.89745  0.53345  0.27746  1.0000
  C   C2023     1.0  0.88229  0.58034  0.27163  1.0000
  C   C2024     1.0  0.91578  0.44529  0.29765  1.0000
  H   H3462     1.0  0.92942  0.56408  0.32506  1.0000
  H   H3463     1.0  0.87227  0.54302  0.30433  1.0000
  H   H3464     1.0  0.99545  0.56493  0.30731  1.0000
  H   H3465     1.0  0.93230  0.34000  0.48387  1.0000
  H   H3466     1.0  0.96780  0.64360  0.27197  1.0000
  H   H3467     1.0  0.88871  0.35213  0.39083  1.0000
  H   H3468     1.0  0.88883  0.35864  0.47480  1.0000
  N   N144      1.0  0.96807  0.55463  0.32340  1.0000
  H   H3469     1.0  0.93909  0.34348  0.35676  1.0000
  C   C2025     1.0  0.92687  0.33821  0.40153  1.0000
  H   H3470     1.0  0.97527  0.53149  0.24943  1.0000
  H   H3471     1.0  0.88306  0.34057  0.46780  1.0000
  H   H3472     1.0  0.99071  0.33192  0.47121  1.0000
  H   H3473     1.0  0.90454  0.55637  0.27890  1.0000
  H   H3474     1.0  0.89529  0.44866  0.25614  1.0000
  H   H3475     1.0  0.93373  0.44869  0.27892  1.0000
  C   C2026     1.0  0.90607  0.44052  0.25688  1.0000
  C   C2027     1.0  0.89774  0.46571  0.27352  1.0000
  C   C2028     1.0  0.95170  0.56101  0.32874  1.0000
  H   H3476     1.0  0.89899  0.33832  0.40379  1.0000
  C   C2029     1.0  0.95611  0.43203  0.24217  1.0000
  H   H3477     1.0  0.92684  0.58417  0.24747  1.0000
  H   H3478     1.0  0.87026  0.58540  0.27546  1.0000
  H   H3479     1.0  0.94100  0.49703  0.26637  1.0000
  H   H3480     1.0  0.94384  0.56050  0.30933  1.0000
  C   C2030     1.0  0.99234  0.43198  0.35797  1.0000
  H   H3481     1.0  0.89460  0.32570  0.47826  1.0000
  H   H3482     1.0  0.93712  0.55302  0.24687  1.0000
  H   H3483     1.0  0.95568  0.54979  0.24923  1.0000
  S   S583      1.0  0.95063  0.36610  0.48685  1.0000
  H   H3484     1.0  0.99543  0.54820  0.30204  1.0000
  C   C2031     1.0  0.98320  0.64870  0.40153  1.0000
  H   H3485     1.0  0.98672  0.64594  0.39076  1.0000
  H   H3486     1.0  0.99016  0.40929  0.36262  1.0000
  H   H3487     1.0  0.99200  0.50040  0.24392  1.0000
  C   C2032     1.0  0.97716  0.52314  0.24273  1.0000
  H   H3488     1.0  0.98547  0.42904  0.33291  1.0000
  S   S584      1.0  0.99793  0.63507  0.43985  1.0000
  Fe  Fe288     1.0  0.98632  0.65460  0.34103  1.0000
  C   C2033     1.0  0.97126  0.32734  0.34440  1.0000
  C   C2034     1.0  0.95248  0.65145  0.29678  1.0000
  S   S585      1.0  0.98107  0.62909  0.24370  1.0000
  H   H3489     1.0  0.99576  0.58934  0.24257  1.0000
  C   C2035     1.0  0.99386  0.41383  0.31851  1.0000
  C   C2036     1.0  0.96312  0.65581  0.27043  1.0000
  H   H3490     1.0  0.99700  0.34669  0.44225  1.0000
  H   H3491     1.0  0.99567  0.44670  0.24028  1.0000
  S   S586      1.0  0.99540  0.65766  0.35917  1.0000
  H   H3492     1.0  0.99876  0.40198  0.31830  1.0000
  H   H3493     1.0  0.90457  0.65736  0.47636  1.0000
  Fe  Fe289     1.0  0.96755  0.64736  0.48924  1.0000
  H   H3494     1.0  0.95210  0.65773  0.26757  1.0000
  H   H3495     1.0  0.94874  0.49704  0.24001  1.0000
  C   C2037     1.0  0.99884  0.41571  0.35649  1.0000
  H   H3496     1.0  0.89257  0.34433  0.48982  1.0000
  H   H3497     1.0  0.93816  0.42871  0.58540  1.0000
  C   C2038     1.0  0.92355  0.53013  0.72771  1.0000
  H   H3498     1.0  0.93666  0.56725  0.64455  1.0000
  H   H3499     1.0  0.94796  0.60062  0.56094  1.0000
  C   C2039     1.0  0.97079  0.36273  0.57487  1.0000
  C   C2040     1.0  0.97228  0.44144  0.66339  1.0000
  S   S587      1.0  0.95074  0.39841  0.69027  1.0000
  Fe  Fe290     1.0  0.90582  0.54680  0.70035  1.0000
  C   C2041     1.0  0.99470  0.40595  0.73681  1.0000
  H   H3500     1.0  0.99039  0.52681  0.67541  1.0000
  N   N145      1.0  0.98901  0.43826  0.65806  1.0000
  C   C2042     1.0  0.96929  0.59467  0.64946  1.0000
  Fe  Fe291     1.0  0.94997  0.35051  0.50918  1.0000
  Fe  Fe292     1.0  0.90756  0.53208  0.67582  1.0000
  S   S588      1.0  0.90168  0.51346  0.67068  1.0000
  H   H3501     1.0  0.96329  0.38654  0.66423  1.0000
  S   S589      1.0  0.98236  0.65476  0.49873  1.0000
  S   S590      1.0  0.89225  0.55238  0.68300  1.0000
  C   C2043     1.0  0.99237  0.50199  0.71696  1.0000
  S   S591      1.0  0.94929  0.42614  0.62266  1.0000
  Fe  Fe293     1.0  0.94837  0.41372  0.70516  1.0000
  S   S592      1.0  0.96789  0.42240  0.70484  1.0000
  Fe  Fe294     1.0  0.93530  0.53923  0.67924  1.0000
  C   C2044     1.0  0.96376  0.45732  0.65786  1.0000
  Fe  Fe295     1.0  0.95097  0.44391  0.70593  1.0000
  S   S593      1.0  0.95550  0.46585  0.69303  1.0000
  H   H3502     1.0  0.92859  0.50356  0.63992  1.0000
  S   S594      1.0  0.93200  0.43556  0.70433  1.0000
  C   C2045     1.0  0.94958  0.41856  0.64148  1.0000
  C   C2046     1.0  0.95002  0.40640  0.67159  1.0000
  C   C2047     1.0  0.94239  0.42106  0.66719  1.0000
  C   C2048     1.0  0.94195  0.42704  0.65218  1.0000
  H   H3503     1.0  0.93678  0.42779  0.67529  1.0000
  H   H3504     1.0  0.93596  0.43834  0.64881  1.0000
  H   H3505     1.0  0.96740  0.46572  0.66107  1.0000
  C   C2049     1.0  0.93139  0.38115  0.58792  1.0000
  C   C2050     1.0  0.91682  0.49901  0.67476  1.0000
  C   C2051     1.0  0.93112  0.50183  0.67066  1.0000
  C   C2052     1.0  0.94303  0.49136  0.67592  1.0000
  C   C2053     1.0  0.94063  0.47810  0.68555  1.0000
  C   C2054     1.0  0.92637  0.47513  0.68945  1.0000
  C   C2055     1.0  0.91448  0.48551  0.68393  1.0000
  H   H3506     1.0  0.93296  0.51232  0.66382  1.0000
  H   H3507     1.0  0.95399  0.49380  0.67289  1.0000
  H   H3508     1.0  0.92426  0.46523  0.69725  1.0000
  H   H3509     1.0  0.90335  0.48347  0.68743  1.0000
  H   H3510     1.0  0.96330  0.39738  0.63773  1.0000
  H   H3511     1.0  0.92649  0.38996  0.71395  1.0000
  C   C2056     1.0  0.95730  0.39785  0.66092  1.0000
  S   S595      1.0  0.95926  0.34870  0.56089  1.0000
  H   H3512     1.0  0.95610  0.48438  0.73492  1.0000
  C   C2057     1.0  0.96693  0.61190  0.52514  1.0000
  H   H3513     1.0  0.91329  0.41187  0.72373  1.0000
  H   H3514     1.0  0.92025  0.52718  0.64065  1.0000
  C   C2058     1.0  0.97850  0.37287  0.57566  1.0000
  H   H3515     1.0  0.97831  0.60461  0.52475  1.0000
  H   H3516     1.0  0.95169  0.45832  0.66302  1.0000
  H   H3517     1.0  0.96472  0.45988  0.64573  1.0000
  C   C2059     1.0  0.91293  0.48865  0.73563  1.0000
  H   H3518     1.0  0.94378  0.59874  0.54505  1.0000
  C   C2060     1.0  0.95736  0.40400  0.64589  1.0000
  C   C2061     1.0  0.89664  0.50402  0.71911  1.0000
  H   H3519     1.0  0.95928  0.57569  0.55187  1.0000
  C   C2062     1.0  0.97735  0.48328  0.70808  1.0000
  H   H3520     1.0  0.98018  0.37332  0.58620  1.0000
  C   C2063     1.0  0.93756  0.63087  0.55498  1.0000
  H   H3521     1.0  0.91833  0.44284  0.57467  1.0000
  H   H3522     1.0  0.91748  0.40247  0.58127  1.0000
  C   C2064     1.0  0.92011  0.58510  0.63535  1.0000
  C   C2065     1.0  0.93336  0.53586  0.58819  1.0000
  C   C2066     1.0  0.88200  0.33264  0.53604  1.0000
  C   C2067     1.0  0.98404  0.38239  0.56279  1.0000
  C   C2068     1.0  0.94612  0.62657  0.54009  1.0000
  H   H3523     1.0  0.92185  0.37563  0.59167  1.0000
  C   C2069     1.0  0.95314  0.59972  0.54927  1.0000
  H   H3524     1.0  0.91036  0.40776  0.68773  1.0000
  H   H3525     1.0  0.92850  0.64088  0.55285  1.0000
  H   H3526     1.0  0.88252  0.51924  0.70468  1.0000
  H   H3527     1.0  0.92715  0.53496  0.71621  1.0000
  H   H3528     1.0  0.97030  0.58282  0.55973  1.0000
  H   H3529     1.0  0.98491  0.52332  0.64814  1.0000
  S   S596      1.0  0.89539  0.54540  0.72447  1.0000
  H   H3530     1.0  0.91144  0.65012  0.49305  1.0000
  H   H3531     1.0  0.91268  0.37958  0.72299  1.0000
  H   H3532     1.0  0.91241  0.53613  0.60385  1.0000
  H   H3533     1.0  0.88857  0.42792  0.69214  1.0000
  H   H3534     1.0  0.90515  0.43459  0.68414  1.0000
  C   C2070     1.0  0.96601  0.47491  0.73409  1.0000
  H   H3535     1.0  0.98339  0.45058  0.72476  1.0000
  H   H3536     1.0  0.95958  0.56162  0.66617  1.0000
  H   H3537     1.0  0.98864  0.57720  0.66417  1.0000
  H   H3538     1.0  0.92362  0.42200  0.59846  1.0000
  C   C2071     1.0  0.92562  0.48265  0.72341  1.0000
  H   H3539     1.0  0.93210  0.62209  0.56262  1.0000
  H   H3540     1.0  0.98613  0.32996  0.54705  1.0000
  H   H3541     1.0  0.89415  0.41912  0.72481  1.0000
  C   C2072     1.0  0.89930  0.42809  0.69439  1.0000
  S   S597      1.0  0.94591  0.43991  0.73056  1.0000
  H   H3542     1.0  0.98102  0.60858  0.65464  1.0000
  C   C2073     1.0  0.96485  0.58484  0.55031  1.0000
  H   H3543     1.0  0.93662  0.37979  0.57641  1.0000
  H   H3544     1.0  0.96253  0.46711  0.72974  1.0000
  Fe  Fe296     1.0  0.99807  0.43229  0.58851  1.0000
  H   H3545     1.0  0.90037  0.46818  0.73790  1.0000
  H   H3546     1.0  0.93943  0.37512  0.59515  1.0000
  H   H3547     1.0  0.97582  0.47327  0.70556  1.0000
  H   H3548     1.0  0.93458  0.40644  0.61557  1.0000
  S   S598      1.0  0.94250  0.40691  0.72995  1.0000
  C   C2074     1.0  0.94844  0.39996  0.59470  1.0000
  Fe  Fe297     1.0  0.99668  0.55364  0.56547  1.0000
  H   H3549     1.0  0.96677  0.58316  0.69317  1.0000
  N   N146      1.0  0.97940  0.48012  0.72373  1.0000
  H   H3550     1.0  0.94290  0.52523  0.64029  1.0000
  H   H3551     1.0  0.86140  0.33526  0.52942  1.0000
  H   H3552     1.0  0.93770  0.40782  0.56168  1.0000
  H   H3553     1.0  0.91649  0.33308  0.49418  1.0000
  H   H3554     1.0  0.97509  0.59744  0.67961  1.0000
  H   H3555     1.0  0.89744  0.43418  0.70322  1.0000
  H   H3556     1.0  0.90801  0.52673  0.63024  1.0000
  H   H3557     1.0  0.92481  0.60323  0.59924  1.0000
  C   C2075     1.0  0.96882  0.36182  0.56120  1.0000
  C   C2076     1.0  0.87484  0.40939  0.71669  1.0000
  N   N147      1.0  0.92938  0.53047  0.61685  1.0000
  H   H3558     1.0  0.93770  0.62488  0.53504  1.0000
  H   H3559     1.0  0.90638  0.60346  0.62306  1.0000
  C   C2077     1.0  0.97615  0.58539  0.68372  1.0000
  C   C2078     1.0  0.96989  0.60931  0.65259  1.0000
  C   C2079     1.0  0.93809  0.50295  0.63026  1.0000
  C   C2080     1.0  0.88165  0.50958  0.71412  1.0000
  C   C2081     1.0  0.91669  0.53248  0.63006  1.0000
  C   C2082     1.0  0.94940  0.53123  0.63041  1.0000
  H   H3560     1.0  0.96886  0.48202  0.60929  1.0000
  H   H3561     1.0  0.99195  0.41944  0.67651  1.0000
  C   C2083     1.0  0.99765  0.49420  0.58367  1.0000
  H   H3562     1.0  0.89843  0.47682  0.71961  1.0000
  H   H3563     1.0  0.98646  0.58103  0.68821  1.0000
  H   H3564     1.0  0.96771  0.63918  0.54269  1.0000
  C   C2084     1.0  0.99608  0.44745  0.66340  1.0000
  H   H3565     1.0  0.96495  0.61461  0.56058  1.0000
  H   H3566     1.0  0.90693  0.42935  0.58300  1.0000
  S   S599      1.0  0.91974  0.52552  0.69422  1.0000
  S   S600      1.0  0.93509  0.35555  0.53068  1.0000
  S   S601      1.0  0.99313  0.39583  0.56327  1.0000
  C   C2085     1.0  0.98224  0.38136  0.54911  1.0000
  H   H3567     1.0  0.96189  0.41532  0.55085  1.0000
  H   H3568     1.0  0.95023  0.59653  0.67764  1.0000
  H   H3569     1.0  0.93581  0.38753  0.61480  1.0000
  H   H3570     1.0  0.94040  0.49163  0.62818  1.0000
  H   H3571     1.0  0.96509  0.60671  0.50516  1.0000
  Fe  Fe298     1.0  0.91044  0.56381  0.66873  1.0000
  C   C2086     1.0  0.96407  0.49603  0.70425  1.0000
  S   S602      1.0  0.92447  0.54383  0.66021  1.0000
  Fe  Fe299     1.0  0.93090  0.33290  0.53446  1.0000
  C   C2087     1.0  0.91696  0.59544  0.62257  1.0000
  Fe  Fe300     1.0  0.95519  0.34374  0.54064  1.0000
  C   C2088     1.0  0.95876  0.60620  0.51678  1.0000
  H   H3572     1.0  0.96742  0.43410  0.65987  1.0000
  C   C2089     1.0  0.90273  0.40863  0.72466  1.0000
  H   H3573     1.0  0.94983  0.63653  0.53265  1.0000
  H   H3574     1.0  0.96101  0.61287  0.66185  1.0000
  H   H3575     1.0  0.96053  0.52376  0.62774  1.0000
  H   H3576     1.0  0.99079  0.50520  0.70545  1.0000
  S   S603      1.0  0.97799  0.42811  0.58394  1.0000
  H   H3577     1.0  0.96917  0.43894  0.67561  1.0000
  C   C2090     1.0  0.92738  0.59530  0.60911  1.0000
  H   H3578     1.0  0.90484  0.50020  0.70947  1.0000
  H   H3579     1.0  0.96377  0.49731  0.69250  1.0000
  Fe  Fe301     1.0  0.96075  0.41747  0.72953  1.0000
  C   C2091     1.0  0.97464  0.37112  0.54829  1.0000
  C   C2092     1.0  0.93390  0.57487  0.63466  1.0000
  H   H3580     1.0  0.96889  0.62280  0.51826  1.0000
  H   H3581     1.0  0.95111  0.54072  0.63369  1.0000
  H   H3582     1.0  0.91657  0.55549  0.63022  1.0000
  Fe  Fe302     1.0  0.97198  0.41929  0.60844  1.0000
  C   C2093     1.0  0.99438  0.45346  0.72197  1.0000
  H   H3583     1.0  0.90078  0.54875  0.64191  1.0000
  S   S604      1.0  0.99549  0.56938  0.57932  1.0000
  S   S605      1.0  0.94381  0.32897  0.51223  1.0000
  C   C2094     1.0  0.93698  0.59337  0.66465  1.0000
  C   C2095     1.0  0.92326  0.53875  0.60317  1.0000
  H   H3584     1.0  0.94838  0.50361  0.63296  1.0000
  S   S606      1.0  0.92259  0.56025  0.68679  1.0000
  H   H3585     1.0  0.96511  0.50680  0.70540  1.0000
  H   H3586     1.0  0.92362  0.47315  0.72045  1.0000
  S   S607      1.0  0.90665  0.58515  0.65200  1.0000
  H   H3587     1.0  0.95825  0.59445  0.52157  1.0000
  C   C2096     1.0  0.98052  0.49383  0.72766  1.0000
  N   N148      1.0  0.96537  0.58268  0.66264  1.0000
  H   H3588     1.0  0.98398  0.56846  0.63825  1.0000
  H   H3589     1.0  0.90189  0.55397  0.62247  1.0000
  H   H3590     1.0  0.91613  0.35308  0.50341  1.0000
  H   H3591     1.0  0.98136  0.45906  0.59983  1.0000
  H   H3592     1.0  0.98057  0.59069  0.64291  1.0000
  N   N149      1.0  0.95904  0.61325  0.54079  1.0000
  C   C2097     1.0  0.97741  0.57717  0.67157  1.0000
  H   H3593     1.0  0.97366  0.58409  0.54018  1.0000
  C   C2098     1.0  0.95036  0.58761  0.67235  1.0000
  C   C2099     1.0  0.94101  0.58483  0.60837  1.0000
  C   C2100     1.0  0.90868  0.54866  0.63101  1.0000
  C   C2101     1.0  0.94434  0.57471  0.62119  1.0000
  S   S608      1.0  0.94459  0.64596  0.50264  1.0000
  C   C2102     1.0  0.93456  0.51428  0.61613  1.0000
  C   C2103     1.0  0.94210  0.53689  0.61680  1.0000
  C   C2104     1.0  0.99048  0.53651  0.69308  1.0000
  C   C2105     1.0  0.99301  0.44081  0.64136  1.0000
  H   H3594     1.0  0.96797  0.61836  0.64281  1.0000
  C   C2106     1.0  0.96996  0.61488  0.54863  1.0000
  C   C2107     1.0  0.89417  0.47821  0.73127  1.0000
  S   S609      1.0  0.98422  0.39576  0.60761  1.0000
  C   C2108     1.0  0.99537  0.42216  0.66424  1.0000
  H   H3595     1.0  0.99757  0.45655  0.62063  1.0000
  C   C2109     1.0  0.98598  0.46879  0.59536  1.0000
  C   C2110     1.0  0.97890  0.48181  0.60068  1.0000
  H   H3596     1.0  0.94780  0.57830  0.68178  1.0000
  Fe  Fe303     1.0  0.99172  0.40490  0.58327  1.0000
  C   C2111     1.0  0.90918  0.41237  0.69751  1.0000
  H   H3597     1.0  0.94477  0.63379  0.56051  1.0000
  C   C2112     1.0  0.96625  0.54708  0.70665  1.0000
  H   H3598     1.0  0.97325  0.37048  0.53770  1.0000
  H   H3599     1.0  0.87569  0.42094  0.71508  1.0000
  H   H3600     1.0  0.95131  0.53494  0.60713  1.0000
  H   H3601     1.0  0.98269  0.62909  0.53046  1.0000
  H   H3602     1.0  0.93871  0.54919  0.61496  1.0000
  H   H3603     1.0  0.94736  0.61309  0.51638  1.0000
  H   H3604     1.0  0.92613  0.38592  0.68963  1.0000
  C   C2113     1.0  0.97645  0.62882  0.54206  1.0000
  H   H3605     1.0  0.87934  0.50108  0.70980  1.0000
  H   H3606     1.0  0.96962  0.50202  0.72853  1.0000
  H   H3607     1.0  0.94873  0.42906  0.56003  1.0000
  H   H3608     1.0  0.97965  0.60521  0.54861  1.0000
  S   S610      1.0  0.97055  0.34087  0.51869  1.0000
  S   S611      1.0  0.90790  0.32886  0.54493  1.0000
  S   S612      1.0  0.99068  0.42572  0.61298  1.0000
  H   H3609     1.0  0.87662  0.33808  0.54523  1.0000
  H   H3610     1.0  0.95499  0.56685  0.62077  1.0000
  H   H3611     1.0  0.96642  0.35548  0.58490  1.0000
  Fe  Fe304     1.0  0.97288  0.56487  0.59029  1.0000
  C   C2114     1.0  0.96815  0.53513  0.68679  1.0000
  C   C2115     1.0  0.99403  0.44511  0.68030  1.0000
  H   H3612     1.0  0.99000  0.42479  0.71923  1.0000
  S   S613      1.0  0.96002  0.53036  0.67505  1.0000
  H   H3613     1.0  0.99187  0.45948  0.65938  1.0000
  C   C2116     1.0  0.98470  0.49453  0.59484  1.0000
  H   H3614     1.0  0.97776  0.56545  0.67745  1.0000
  H   H3615     1.0  0.97902  0.41019  0.66400  1.0000
  H   H3616     1.0  0.93612  0.47852  0.72755  1.0000
  C   C2117     1.0  0.90739  0.36126  0.49796  1.0000
  H   H3617     1.0  0.89971  0.51389  0.72034  1.0000
  H   H3618     1.0  0.94547  0.51712  0.72994  1.0000
  C   C2118     1.0  0.97928  0.56139  0.64867  1.0000
  S   S614      1.0  0.97557  0.51055  0.60193  1.0000
  H   H3619     1.0  0.96194  0.59722  0.64144  1.0000
  C   C2119     1.0  0.94549  0.40623  0.56903  1.0000
  H   H3620     1.0  0.91019  0.37748  0.69786  1.0000
  H   H3621     1.0  0.94740  0.54446  0.70024  1.0000
  H   H3622     1.0  0.89649  0.35811  0.50275  1.0000
  S   S615      1.0  0.97347  0.55023  0.57552  1.0000
  C   C2120     1.0  0.95541  0.41749  0.56185  1.0000
  S   S616      1.0  0.95362  0.58468  0.59128  1.0000
  H   H3623     1.0  0.92082  0.55095  0.60224  1.0000
  H   H3624     1.0  0.92590  0.51075  0.61298  1.0000
  H   H3625     1.0  0.98754  0.48574  0.69996  1.0000
  H   H3626     1.0  0.93845  0.60290  0.65526  1.0000
  H   H3627     1.0  0.98455  0.62861  0.54854  1.0000
  C   C2121     1.0  0.95940  0.54229  0.69818  1.0000
  H   H3628     1.0  0.95684  0.57371  0.64907  1.0000
  H   H3629     1.0  0.98703  0.46549  0.63552  1.0000
  H   H3630     1.0  0.92092  0.42785  0.56630  1.0000
  H   H3631     1.0  0.95948  0.55323  0.71499  1.0000
  H   H3632     1.0  0.95289  0.39513  0.56821  1.0000
  H   H3633     1.0  0.98221  0.44705  0.68597  1.0000
  C   C2122     1.0  0.87338  0.33105  0.52710  1.0000
  H   H3634     1.0  0.98412  0.43889  0.63713  1.0000
  H   H3635     1.0  0.95593  0.38951  0.59195  1.0000
  H   H3636     1.0  0.95326  0.49373  0.71098  1.0000
  H   H3637     1.0  0.91543  0.49865  0.73727  1.0000
  H   H3638     1.0  0.92049  0.41365  0.69714  1.0000
  C   C2123     1.0  0.91598  0.38787  0.71285  1.0000
  Fe  Fe305     1.0  0.98388  0.53158  0.59203  1.0000
  C   C2124     1.0  0.94190  0.39654  0.61151  1.0000
  C   C2125     1.0  0.99365  0.46857  0.72512  1.0000
  H   H3639     1.0  0.98873  0.51047  0.63660  1.0000
  C   C2126     1.0  0.99615  0.45602  0.63259  1.0000
  H   H3640     1.0  0.98778  0.55645  0.65559  1.0000
  S   S617      1.0  0.98118  0.54598  0.60791  1.0000
  H   H3641     1.0  0.95601  0.40749  0.59286  1.0000
  H   H3642     1.0  0.92811  0.54348  0.57909  1.0000
  H   H3643     1.0  0.93453  0.52443  0.58697  1.0000
  C   C2127     1.0  0.91833  0.43087  0.57716  1.0000
  H   H3644     1.0  0.87220  0.51351  0.72282  1.0000
  C   C2128     1.0  0.92550  0.39765  0.58878  1.0000
  C   C2129     1.0  0.98183  0.54457  0.70374  1.0000
  H   H3645     1.0  0.86660  0.40975  0.71029  1.0000
  H   H3646     1.0  0.98188  0.33024  0.57641  1.0000
  N   N150      1.0  0.93729  0.40648  0.58482  1.0000
  H   H3647     1.0  0.94457  0.53802  0.58639  1.0000
  C   C2130     1.0  0.92983  0.42205  0.58684  1.0000
  C   C2131     1.0  0.99079  0.41066  0.65893  1.0000
  H   H3648     1.0  0.98661  0.38862  0.53908  1.0000
  H   H3649     1.0  0.94479  0.51243  0.60733  1.0000
  H   H3650     1.0  0.96364  0.41635  0.56847  1.0000
  C   C2132     1.0  0.98367  0.53215  0.68434  1.0000
  H   H3651     1.0  0.91854  0.39830  0.60005  1.0000
  H   H3652     1.0  0.97702  0.55205  0.64560  1.0000
  C   C2133     1.0  0.96445  0.56989  0.65694  1.0000
  H   H3653     1.0  0.92765  0.49144  0.71337  1.0000
  H   H3654     1.0  0.95123  0.39266  0.61747  1.0000
  H   H3655     1.0  0.92675  0.59726  0.67272  1.0000
  H   H3656     1.0  0.90636  0.37194  0.50089  1.0000
  H   H3657     1.0  0.91908  0.65162  0.52591  1.0000
  Fe  Fe306     1.0  0.92810  0.42988  0.72903  1.0000
  N   N151      1.0  0.90395  0.40202  0.71172  1.0000
  C   C2134     1.0  0.99213  0.51257  0.64580  1.0000
  H   H3658     1.0  0.98962  0.50405  0.65598  1.0000
  H   H3659     1.0  0.92789  0.36895  0.70283  1.0000
  H   H3660     1.0  0.88970  0.39717  0.70043  1.0000
  H   H3661     1.0  0.93470  0.58450  0.66090  1.0000
  C   C2135     1.0  0.88959  0.39841  0.71165  1.0000
  H   H3662     1.0  0.99388  0.52777  0.73575  1.0000
  C   C2136     1.0  0.92007  0.37978  0.69995  1.0000
  H   H3663     1.0  0.87008  0.48633  0.73043  1.0000
  H   H3664     1.0  0.88864  0.38747  0.71916  1.0000
  H   H3665     1.0  0.99258  0.41254  0.64674  1.0000
  S   S618      1.0  0.99055  0.55303  0.71184  1.0000
  C   C2137     1.0  0.93394  0.52007  0.73555  1.0000
  C   C2138     1.0  0.90857  0.53399  0.73475  1.0000
  H   H3666     1.0  0.99121  0.51250  0.72021  1.0000
  N   N152      1.0  0.89729  0.49212  0.73301  1.0000
  H   H3667     1.0  0.86975  0.40532  0.72845  1.0000
  H   H3668     1.0  0.99646  0.46671  0.73609  1.0000
  C   C2139     1.0  0.89751  0.32728  0.53313  1.0000
  H   H3669     1.0  0.98311  0.49115  0.73883  1.0000
  H   H3670     1.0  0.87713  0.46677  0.73254  1.0000
  C   C2140     1.0  0.87777  0.47675  0.73582  1.0000
  C   C2141     1.0  0.99859  0.41622  0.72385  1.0000
  H   H3671     1.0  0.99766  0.39948  0.66265  1.0000
  H   H3672     1.0  0.99889  0.33768  0.49083  1.0000
  C   C2142     1.0  0.99903  0.46838  0.58433  1.0000
  H   H3673     1.0  0.99885  0.45322  0.68268  1.0000
  Fe  Fe307     1.0  0.93251  0.49020  0.78301  1.0000
  S   S619      1.0  0.90866  0.48941  0.79431  1.0000
  S   S620      1.0  0.94241  0.50049  0.75979  1.0000
  Fe  Fe308     1.0  0.94519  0.46988  0.80884  1.0000
  S   S621      1.0  0.92275  0.46709  0.82256  1.0000
  Fe  Fe309     1.0  0.53616  0.64032  0.95721  1.0000
  Fe  Fe310     1.0  0.91808  0.46514  0.80169  1.0000
  S   S622      1.0  0.90670  0.44725  0.80331  1.0000
  Fe  Fe311     1.0  0.91521  0.49148  0.81430  1.0000
  S   S623      1.0  0.90145  0.50543  0.83078  1.0000
  S   S624      1.0  0.94124  0.46569  0.78867  1.0000
  S   S625      1.0  0.93824  0.49452  0.80231  1.0000
  Fe  Fe312     1.0  0.83873  0.48324  0.92806  1.0000
  S   S626      1.0  0.84645  0.49908  0.90727  1.0000
  S   S627      1.0  0.85074  0.47217  0.94666  1.0000
  Fe  Fe313     1.0  0.80954  0.48526  0.92034  1.0000
  S   S628      1.0  0.81439  0.50140  0.89891  1.0000
  S   S629      1.0  0.78782  0.47817  0.92981  1.0000
  Fe  Fe314     1.0  0.83746  0.48683  0.89612  1.0000
  S   S630      1.0  0.84746  0.47999  0.87422  1.0000
  Fe  Fe315     1.0  0.82280  0.51236  0.91172  1.0000
  S   S631      1.0  0.81824  0.53706  0.90904  1.0000
  S   S632      1.0  0.83185  0.46965  0.91662  1.0000
  S   S633      1.0  0.81586  0.49756  0.93348  1.0000
  H   H3674     1.0  0.50765  0.61741  0.91250  1.0000
  Fe  Fe316     1.0  0.62544  0.52520  0.94378  1.0000
  S   S634      1.0  0.60711  0.54415  0.95043  1.0000
  S   S635      1.0  0.62779  0.50273  0.95911  1.0000
  Fe  Fe317     1.0  0.63776  0.54416  0.91479  1.0000
  S   S636      1.0  0.62025  0.56480  0.91847  1.0000
  S   S637      1.0  0.65554  0.54082  0.89458  1.0000
  Fe  Fe318     1.0  0.62463  0.55749  0.94153  1.0000
  C   C2143     1.0  0.50111  0.32787  0.96563  1.0000
  Fe  Fe319     1.0  0.60422  0.54974  0.92709  1.0000
  S   S638      1.0  0.58216  0.55187  0.92164  1.0000
  S   S639      1.0  0.64339  0.53797  0.93716  1.0000
  S   S640      1.0  0.62138  0.52983  0.92105  1.0000
  Fe  Fe320     1.0  0.76207  0.55844  0.86211  1.0000
  S   S641      1.0  0.76778  0.53476  0.86014  1.0000
  S   S642      1.0  0.77923  0.57054  0.86127  1.0000
  Fe  Fe321     1.0  0.72861  0.56048  0.87059  1.0000
  S   S643      1.0  0.73120  0.53688  0.86963  1.0000
  S   S644      1.0  0.70683  0.57505  0.87960  1.0000
  Fe  Fe322     1.0  0.75022  0.53179  0.88078  1.0000
  S   S645      1.0  0.75455  0.51275  0.89955  1.0000
  Fe  Fe323     1.0  0.74849  0.54172  0.84892  1.0000
  S   S646      1.0  0.75058  0.53194  0.82958  1.0000
  S   S647      1.0  0.74615  0.55490  0.88375  1.0000
  S   S648      1.0  0.74424  0.56600  0.84876  1.0000
  C   C2144     1.0  0.72934  0.60305  0.89903  1.0000
  S   S649      1.0  0.75407  0.54697  0.94682  1.0000
  C   C2145     1.0  0.50715  0.36846  0.92876  1.0000
  H   H3675     1.0  0.91095  0.51349  0.76933  1.0000
  Fe  Fe324     1.0  0.64813  0.40060  0.95844  1.0000
  H   H3676     1.0  0.67105  0.40264  0.97753  1.0000
  S   S650      1.0  0.66896  0.38567  0.94843  1.0000
  Fe  Fe325     1.0  0.62344  0.42823  0.95471  1.0000
  H   H3677     1.0  0.95498  0.46123  0.87632  1.0000
  S   S651      1.0  0.61617  0.45000  0.93961  1.0000
  H   H3678     1.0  0.59097  0.35652  0.97956  1.0000
  H   H3679     1.0  0.72658  0.51834  0.94918  1.0000
  Fe  Fe326     1.0  0.61597  0.39867  0.97183  1.0000
  H   H3680     1.0  0.52231  0.36017  0.89976  1.0000
  S   S652      1.0  0.64495  0.42333  0.96217  1.0000
  S   S653      1.0  0.62795  0.40623  0.94860  1.0000
  H   H3681     1.0  0.64097  0.43093  0.92019  1.0000
  H   H3682     1.0  0.92112  0.45247  0.74956  1.0000
  H   H3683     1.0  0.51471  0.35748  0.88571  1.0000
  H   H3684     1.0  0.97087  0.47470  0.75535  1.0000
  S   S654      1.0  0.54351  0.35064  0.93270  1.0000
  H   H3685     1.0  0.66120  0.34869  0.92689  1.0000
  S   S655      1.0  0.55155  0.63974  0.97151  1.0000
  C   C2146     1.0  0.79779  0.44589  0.98330  1.0000
  Fe  Fe327     1.0  0.56633  0.34463  0.93784  1.0000
  S   S656      1.0  0.57941  0.36265  0.93104  1.0000
  H   H3686     1.0  0.73823  0.60946  0.89525  1.0000
  H   H3687     1.0  0.93414  0.42146  0.78145  1.0000
  Fe  Fe328     1.0  0.74836  0.44436  0.89486  1.0000
  S   S657      1.0  0.73397  0.46742  0.89398  1.0000
  S   S658      1.0  0.77274  0.43868  0.89560  1.0000
  Fe  Fe329     1.0  0.72294  0.43152  0.89408  1.0000
  S   S659      1.0  0.70673  0.45345  0.89302  1.0000
  S   S660      1.0  0.71578  0.41129  0.89398  1.0000
  Fe  Fe330     1.0  0.72542  0.46247  0.87674  1.0000
  S   S661      1.0  0.72102  0.47734  0.85515  1.0000
  Fe  Fe331     1.0  0.71687  0.45598  0.91031  1.0000
  S   S662      1.0  0.70177  0.46381  0.93040  1.0000
  S   S663      1.0  0.74103  0.44023  0.87636  1.0000
  S   S664      1.0  0.73186  0.43329  0.91254  1.0000
  C   C2147     1.0  0.64215  0.33757  0.95228  1.0000
  C   C2148     1.0  0.53824  0.38657  0.94871  1.0000
  C   C2149     1.0  0.71100  0.45813  0.94515  1.0000
  C   C2150     1.0  0.70305  0.46009  0.95930  1.0000
  C   C2151     1.0  0.71020  0.45469  0.97131  1.0000
  C   C2152     1.0  0.72531  0.44743  0.96913  1.0000
  C   C2153     1.0  0.73340  0.44615  0.95485  1.0000
  C   C2154     1.0  0.72627  0.45154  0.94288  1.0000
  H   H3688     1.0  0.69130  0.46548  0.96105  1.0000
  C   C2155     1.0  0.50797  0.32966  0.86212  1.0000
  H   H3689     1.0  0.74517  0.44079  0.95305  1.0000
  H   H3690     1.0  0.73263  0.45054  0.93190  1.0000
  H   H3691     1.0  0.77994  0.48864  0.95896  1.0000
  H   H3692     1.0  0.82778  0.56772  0.83957  1.0000
  H   H3693     1.0  0.75395  0.54821  0.97753  1.0000
  H   H3694     1.0  0.80323  0.55478  0.96524  1.0000
  H   H3695     1.0  0.66016  0.36546  0.93206  1.0000
  H   H3696     1.0  0.54952  0.39969  0.96250  1.0000
  H   H3697     1.0  0.51658  0.37550  0.88542  1.0000
  C   C2156     1.0  0.81157  0.44320  0.94843  1.0000
  H   H3698     1.0  0.74368  0.51614  0.95413  1.0000
  H   H3699     1.0  0.66512  0.44549  0.88102  1.0000
  C   C2157     1.0  0.64070  0.43701  0.90864  1.0000
  H   H3700     1.0  0.83296  0.51704  0.83712  1.0000
  H   H3701     1.0  0.74563  0.60418  0.91729  1.0000
  H   H3702     1.0  0.74243  0.50555  0.94162  1.0000
  C   C2158     1.0  0.65376  0.59453  0.95827  1.0000
  C   C2159     1.0  0.59621  0.37641  0.96455  1.0000
  C   C2160     1.0  0.59668  0.38489  0.95015  1.0000
  C   C2161     1.0  0.59178  0.38037  0.93989  1.0000
  C   C2162     1.0  0.58646  0.36733  0.94391  1.0000
  C   C2163     1.0  0.58648  0.35861  0.95816  1.0000
  C   C2164     1.0  0.59125  0.36319  0.96846  1.0000
  H   H3703     1.0  0.60043  0.39511  0.94704  1.0000
  H   H3704     1.0  0.59184  0.38716  0.92886  1.0000
  H   H3705     1.0  0.58263  0.34843  0.96131  1.0000
  H   H3706     1.0  0.65180  0.34473  0.97261  1.0000
  C   C2165     1.0  0.68142  0.39358  0.93328  1.0000
  C   C2166     1.0  0.68456  0.40719  0.93240  1.0000
  C   C2167     1.0  0.69567  0.41245  0.92073  1.0000
  C   C2168     1.0  0.70284  0.40458  0.90946  1.0000
  C   C2169     1.0  0.69942  0.39117  0.91027  1.0000
  C   C2170     1.0  0.68900  0.38554  0.92228  1.0000
  H   H3707     1.0  0.67874  0.41340  0.94091  1.0000
  H   H3708     1.0  0.69866  0.42258  0.92030  1.0000
  H   H3709     1.0  0.70504  0.38500  0.90166  1.0000
  H   H3710     1.0  0.68674  0.37496  0.92297  1.0000
  H   H3711     1.0  0.64714  0.45523  0.93055  1.0000
  C   C2171     1.0  0.75489  0.52171  0.91289  1.0000
  C   C2172     1.0  0.76733  0.51836  0.91925  1.0000
  C   C2173     1.0  0.76758  0.52666  0.92912  1.0000
  C   C2174     1.0  0.75525  0.53803  0.93279  1.0000
  C   C2175     1.0  0.74314  0.54151  0.92603  1.0000
  C   C2176     1.0  0.74294  0.53340  0.91616  1.0000
  H   H3712     1.0  0.77682  0.50958  0.91635  1.0000
  H   H3713     1.0  0.77718  0.52408  0.93405  1.0000
  H   H3714     1.0  0.73405  0.55074  0.92806  1.0000
  H   H3715     1.0  0.73358  0.53636  0.91085  1.0000
  C   C2177     1.0  0.74527  0.51495  0.83613  1.0000
  C   C2178     1.0  0.74063  0.50914  0.82676  1.0000
  C   C2179     1.0  0.73368  0.49716  0.83260  1.0000
  C   C2180     1.0  0.73167  0.49077  0.84774  1.0000
  C   C2181     1.0  0.73714  0.49601  0.85693  1.0000
  C   C2182     1.0  0.74398  0.50805  0.85112  1.0000
  H   H3716     1.0  0.74171  0.51437  0.81514  1.0000
  H   H3717     1.0  0.72954  0.49304  0.82545  1.0000
  H   H3718     1.0  0.73563  0.49115  0.86860  1.0000
  H   H3719     1.0  0.74798  0.51217  0.85833  1.0000
  C   C2183     1.0  0.62473  0.48812  0.95344  1.0000
  C   C2184     1.0  0.62503  0.47431  0.96322  1.0000
  C   C2185     1.0  0.62223  0.46260  0.95911  1.0000
  C   C2186     1.0  0.61904  0.46467  0.94523  1.0000
  C   C2187     1.0  0.61877  0.47844  0.93543  1.0000
  C   C2188     1.0  0.62170  0.49009  0.93950  1.0000
  H   H3720     1.0  0.62738  0.47265  0.97403  1.0000
  H   H3721     1.0  0.62244  0.45201  0.96678  1.0000
  H   H3722     1.0  0.61642  0.48006  0.92465  1.0000
  H   H3723     1.0  0.62165  0.50053  0.93180  1.0000
  C   C2189     1.0  0.66912  0.55110  0.89054  1.0000
  C   C2190     1.0  0.66803  0.56171  0.89847  1.0000
  C   C2191     1.0  0.67946  0.56945  0.89488  1.0000
  C   C2192     1.0  0.69197  0.56636  0.88354  1.0000
  C   C2193     1.0  0.69287  0.55586  0.87564  1.0000
  C   C2194     1.0  0.68147  0.54827  0.87916  1.0000
  H   H3724     1.0  0.65846  0.56394  0.90733  1.0000
  H   H3725     1.0  0.67875  0.57757  0.90106  1.0000
  H   H3726     1.0  0.70230  0.55378  0.86671  1.0000
  H   H3727     1.0  0.68222  0.53995  0.87329  1.0000
  Fe  Fe332     1.0  0.53640  0.33767  0.95550  1.0000
  H   H3728     1.0  0.78096  0.43302  0.98894  1.0000
  C   C2195     1.0  0.82010  0.56055  0.84064  1.0000
  H   H3729     1.0  0.80679  0.53343  0.94513  1.0000
  H   H3730     1.0  0.51168  0.36558  0.93891  1.0000
  C   C2196     1.0  0.54035  0.58463  0.93942  1.0000
  C   C2197     1.0  0.53938  0.57383  0.93274  1.0000
  C   C2198     1.0  0.55230  0.56388  0.92734  1.0000
  C   C2199     1.0  0.56627  0.56436  0.92896  1.0000
  C   C2200     1.0  0.56726  0.57474  0.93616  1.0000
  C   C2201     1.0  0.55431  0.58506  0.94121  1.0000
  H   H3731     1.0  0.66639  0.44073  0.97215  1.0000
  H   H3732     1.0  0.55148  0.55584  0.92181  1.0000
  H   H3733     1.0  0.57801  0.57484  0.93769  1.0000
  H   H3734     1.0  0.55508  0.59315  0.94669  1.0000
  C   C2202     1.0  0.84593  0.48395  0.95909  1.0000
  C   C2203     1.0  0.84592  0.47796  0.97409  1.0000
  C   C2204     1.0  0.64054  0.59058  0.95888  1.0000
  Fe  Fe333     1.0  0.70370  0.53676  0.97090  1.0000
  C   C2205     1.0  0.83605  0.50848  0.96452  1.0000
  C   C2206     1.0  0.84121  0.49926  0.95428  1.0000
  H   H3735     1.0  0.88841  0.50929  0.74573  1.0000
  S   S665      1.0  0.71074  0.55262  0.95026  1.0000
  H   H3736     1.0  0.83261  0.52029  0.96066  1.0000
  H   H3737     1.0  0.84154  0.50400  0.94264  1.0000
  C   C2207     1.0  0.80607  0.54684  0.89706  1.0000
  C   C2208     1.0  0.80736  0.56106  0.88896  1.0000
  C   C2209     1.0  0.79876  0.56849  0.87828  1.0000
  C   C2210     1.0  0.78868  0.56181  0.87579  1.0000
  C   C2211     1.0  0.78683  0.54790  0.88443  1.0000
  C   C2212     1.0  0.79559  0.54039  0.89499  1.0000
  H   H3738     1.0  0.81539  0.56612  0.89059  1.0000
  H   H3739     1.0  0.80015  0.57927  0.87170  1.0000
  H   H3740     1.0  0.77893  0.54272  0.88278  1.0000
  H   H3741     1.0  0.79419  0.52963  0.90154  1.0000
  C   C2213     1.0  0.78392  0.46708  0.92022  1.0000
  C   C2214     1.0  0.79533  0.45674  0.91343  1.0000
  C   C2215     1.0  0.79180  0.44757  0.90635  1.0000
  C   C2216     1.0  0.77692  0.44896  0.90584  1.0000
  C   C2217     1.0  0.76557  0.45919  0.91279  1.0000
  C   C2218     1.0  0.76907  0.46827  0.91989  1.0000
  H   H3742     1.0  0.80683  0.45572  0.91369  1.0000
  H   H3743     1.0  0.80061  0.43961  0.90103  1.0000
  H   H3744     1.0  0.75409  0.46021  0.91263  1.0000
  H   H3745     1.0  0.76023  0.47648  0.92476  1.0000
  C   C2219     1.0  0.88746  0.49730  0.84357  1.0000
  C   C2220     1.0  0.88274  0.48618  0.84053  1.0000
  C   C2221     1.0  0.87073  0.48062  0.85027  1.0000
  C   C2222     1.0  0.86356  0.48594  0.86321  1.0000
  C   C2223     1.0  0.86863  0.49670  0.86651  1.0000
  C   C2224     1.0  0.88050  0.50245  0.85664  1.0000
  H   H3746     1.0  0.88801  0.48218  0.83043  1.0000
  H   H3747     1.0  0.86683  0.47232  0.84764  1.0000
  H   H3748     1.0  0.86311  0.50093  0.87641  1.0000
  H   H3749     1.0  0.88413  0.51105  0.85903  1.0000
  C   C2225     1.0  0.90589  0.44453  0.78630  1.0000
  C   C2226     1.0  0.91462  0.45072  0.77309  1.0000
  C   C2227     1.0  0.91441  0.44765  0.75970  1.0000
  C   C2228     1.0  0.90522  0.43871  0.75945  1.0000
  C   C2229     1.0  0.89614  0.43296  0.77261  1.0000
  C   C2230     1.0  0.89664  0.43568  0.78604  1.0000
  H   H3750     1.0  0.92167  0.45767  0.77321  1.0000
  H   H3751     1.0  0.99629  0.45547  0.82017  1.0000
  H   H3752     1.0  0.88897  0.42610  0.77249  1.0000
  H   H3753     1.0  0.88984  0.43093  0.79626  1.0000
  N   N153      1.0  0.54295  0.37926  0.97524  1.0000
  N   N154      1.0  0.96067  0.42055  0.79214  1.0000
  H   H3754     1.0  0.77297  0.46545  0.96328  1.0000
  H   H3755     1.0  0.70386  0.56322  0.83775  1.0000
  C   C2231     1.0  0.99475  0.46787  0.77862  1.0000
  Fe  Fe334     1.0  0.54959  0.32893  0.92572  1.0000
  H   H3756     1.0  0.88402  0.48146  0.98904  1.0000
  H   H3757     1.0  0.81983  0.46069  0.95114  1.0000
  C   C2232     1.0  0.74288  0.57869  0.91231  1.0000
  H   H3758     1.0  0.55344  0.36714  0.95773  1.0000
  S   S666      1.0  0.55199  0.65415  0.90250  1.0000
  C   C2233     1.0  0.84194  0.54586  0.86517  1.0000
  H   H3759     1.0  0.62678  0.36608  0.96055  1.0000
  H   H3760     1.0  0.82699  0.51998  0.86956  1.0000
  H   H3761     1.0  0.51598  0.37211  0.91937  1.0000
  C   C2234     1.0  0.67027  0.45046  0.93121  1.0000
  S   S667      1.0  0.51673  0.63862  0.92742  1.0000
  C   C2235     1.0  0.82453  0.43481  0.97549  1.0000
  H   H3762     1.0  0.75883  0.58805  0.89290  1.0000
  H   H3763     1.0  0.50925  0.33897  0.90581  1.0000
  H   H3764     1.0  0.81202  0.43169  0.95466  1.0000
  H   H3765     1.0  0.65060  0.47878  0.91931  1.0000
  C   C2236     1.0  0.73519  0.60033  0.92312  1.0000
  H   H3766     1.0  0.83818  0.54851  0.82701  1.0000
  H   H3767     1.0  0.64383  0.37534  0.91704  1.0000
  H   H3768     1.0  0.97411  0.42565  0.80423  1.0000
  H   H3769     1.0  0.68341  0.44788  0.88005  1.0000
  H   H3770     1.0  0.81190  0.51625  0.85354  1.0000
  H   H3771     1.0  0.89251  0.53127  0.75537  1.0000
  H   H3772     1.0  0.75960  0.45381  0.97124  1.0000
  C   C2237     1.0  0.69162  0.50672  0.98504  1.0000
  H   H3773     1.0  0.56049  0.36037  0.98131  1.0000
  H   H3774     1.0  0.55900  0.53814  0.96043  1.0000
  C   C2238     1.0  0.58585  0.62138  0.95237  1.0000
  C   C2239     1.0  0.65240  0.47990  0.90721  1.0000
  N   N155      1.0  0.57408  0.51037  0.95386  1.0000
  C   C2240     1.0  0.57197  0.51541  0.93807  1.0000
  C   C2241     1.0  0.66759  0.58604  0.95253  1.0000
  C   C2242     1.0  0.57958  0.49374  0.95680  1.0000
  C   C2243     1.0  0.58531  0.51777  0.95557  1.0000
  C   C2244     1.0  0.58597  0.51168  0.92592  1.0000
  H   H3775     1.0  0.95180  0.43794  0.77498  1.0000
  C   C2245     1.0  0.58961  0.60710  0.96408  1.0000
  N   N156      1.0  0.64222  0.52424  0.98578  1.0000
  H   H3776     1.0  0.56317  0.51074  0.93660  1.0000
  H   H3777     1.0  0.56795  0.52764  0.93520  1.0000
  C   C2246     1.0  0.80571  0.47565  0.97732  1.0000
  H   H3778     1.0  0.80307  0.53596  0.85064  1.0000
  H   H3779     1.0  0.57153  0.48846  0.95480  1.0000
  H   H3780     1.0  0.59028  0.49045  0.94907  1.0000
  H   H3781     1.0  0.59687  0.51206  0.95099  1.0000
  H   H3782     1.0  0.58380  0.52930  0.94885  1.0000
  H   H3783     1.0  0.58913  0.49974  0.92566  1.0000
  H   H3784     1.0  0.58344  0.51780  0.91496  1.0000
  H   H3785     1.0  0.59559  0.51526  0.92698  1.0000
  H   H3786     1.0  0.82554  0.43133  0.98731  1.0000
  H   H3787     1.0  0.54787  0.39166  0.94258  1.0000
  H   H3788     1.0  0.59244  0.48904  0.97403  1.0000
  C   C2247     1.0  0.59498  0.63901  0.93040  1.0000
  H   H3789     1.0  0.80425  0.51461  0.97150  1.0000
  H   H3790     1.0  0.78880  0.45614  0.98248  1.0000
  H   H3791     1.0  0.72893  0.61987  0.93264  1.0000
  H   H3792     1.0  0.99195  0.43622  0.78360  1.0000
  H   H3793     1.0  0.71803  0.42176  0.96622  1.0000
  H   H3794     1.0  0.94442  0.42202  0.76294  1.0000
  H   H3795     1.0  0.52864  0.57337  0.93142  1.0000
  H   H3796     1.0  0.84417  0.50975  0.85055  1.0000
  C   C2248     1.0  0.94629  0.42394  0.80340  1.0000
  H   H3797     1.0  0.72160  0.56094  0.82525  1.0000
  H   H3798     1.0  0.66791  0.44683  0.94344  1.0000
  S   S668      1.0  0.52379  0.59709  0.94570  1.0000
  S   S669      1.0  0.72428  0.53319  0.97955  1.0000
  H   H3799     1.0  0.67290  0.33420  0.94887  1.0000
  C   C2249     1.0  0.65340  0.51415  0.97627  1.0000
  H   H3800     1.0  0.87777  0.49206  0.76959  1.0000
  H   H3801     1.0  0.66489  0.51552  0.97478  1.0000
  H   H3802     1.0  0.98963  0.53346  0.77513  1.0000
  C   C2250     1.0  0.90407  0.52814  0.74984  1.0000
  H   H3803     1.0  0.72380  0.49357  0.96284  1.0000
  H   H3804     1.0  0.79657  0.55255  0.94168  1.0000
  H   H3805     1.0  0.62098  0.36047  0.94137  1.0000
  S   S670      1.0  0.96600  0.45912  0.81775  1.0000
  H   H3806     1.0  0.84018  0.44063  0.95412  1.0000
  H   H3807     1.0  0.81761  0.53872  0.86752  1.0000
  C   C2251     1.0  0.73026  0.59607  0.88597  1.0000
  C   C2252     1.0  0.97106  0.42929  0.79321  1.0000
  H   H3808     1.0  0.97268  0.40124  0.80538  1.0000
  C   C2253     1.0  0.65898  0.35380  0.93660  1.0000
  N   N157      1.0  0.79119  0.48055  0.86331  1.0000
  C   C2254     1.0  0.78633  0.46730  0.86236  1.0000
  C   C2255     1.0  0.80804  0.47683  0.86054  1.0000
  C   C2256     1.0  0.78612  0.49406  0.85201  1.0000
  C   C2257     1.0  0.78422  0.48394  0.87841  1.0000
  C   C2258     1.0  0.76960  0.46958  0.86273  1.0000
  C   C2259     1.0  0.81497  0.46555  0.87307  1.0000
  C   C2260     1.0  0.79113  0.49236  0.83579  1.0000
  C   C2261     1.0  0.78899  0.49635  0.88198  1.0000
  H   H3809     1.0  0.79272  0.46312  0.85220  1.0000
  H   H3810     1.0  0.78890  0.45786  0.87167  1.0000
  H   H3811     1.0  0.81251  0.48692  0.85807  1.0000
  H   H3812     1.0  0.81297  0.47214  0.85043  1.0000
  H   H3813     1.0  0.77375  0.49784  0.85450  1.0000
  H   H3814     1.0  0.79025  0.50357  0.85256  1.0000
  H   H3815     1.0  0.77183  0.48744  0.88003  1.0000
  H   H3816     1.0  0.78597  0.47395  0.88730  1.0000
  H   H3817     1.0  0.76619  0.47765  0.85291  1.0000
  H   H3818     1.0  0.76742  0.45888  0.86262  1.0000
  H   H3819     1.0  0.76240  0.47291  0.87298  1.0000
  H   H3820     1.0  0.82734  0.46303  0.86940  1.0000
  H   H3821     1.0  0.81233  0.47002  0.88320  1.0000
  H   H3822     1.0  0.81148  0.45492  0.87583  1.0000
  H   H3823     1.0  0.78641  0.50292  0.82865  1.0000
  H   H3824     1.0  0.78689  0.48359  0.83390  1.0000
  H   H3825     1.0  0.80345  0.49018  0.83206  1.0000
  H   H3826     1.0  0.78215  0.50736  0.87789  1.0000
  H   H3827     1.0  0.80089  0.49645  0.87743  1.0000
  H   H3828     1.0  0.78747  0.49455  0.89417  1.0000
  N   N158      1.0  0.69894  0.41174  0.97275  1.0000
  C   C2262     1.0  0.71444  0.41274  0.96387  1.0000
  H   H3829     1.0  0.70480  0.38827  0.97278  1.0000
  C   C2263     1.0  0.68805  0.42566  0.96701  1.0000
  C   C2264     1.0  0.69558  0.39814  0.97067  1.0000
  C   C2265     1.0  0.71655  0.41542  0.94695  1.0000
  H   H3830     1.0  0.98486  0.43208  0.77032  1.0000
  H   H3831     1.0  0.63592  0.35685  0.98117  1.0000
  H   H3832     1.0  0.77112  0.52822  0.97401  1.0000
  H   H3833     1.0  0.53494  0.33505  0.83741  1.0000
  H   H3834     1.0  0.72280  0.40237  0.96695  1.0000
  S   S671      1.0  0.63653  0.39173  0.98148  1.0000
  C   C2266     1.0  0.55133  0.53109  0.96123  1.0000
  H   H3835     1.0  0.78148  0.53301  0.95609  1.0000
  H   H3836     1.0  0.68424  0.42429  0.95762  1.0000
  H   H3837     1.0  0.69495  0.39935  0.95902  1.0000
  H   H3838     1.0  0.99359  0.41737  0.78396  1.0000
  H   H3839     1.0  0.72833  0.41614  0.94196  1.0000
  H   H3840     1.0  0.71481  0.40611  0.94341  1.0000
  H   H3841     1.0  0.70937  0.42598  0.94227  1.0000
  H   H3842     1.0  0.57966  0.62074  0.92682  1.0000
  H   H3843     1.0  0.54388  0.33182  0.81147  1.0000
  C   C2267     1.0  0.88800  0.48852  0.76136  1.0000
  Fe  Fe335     1.0  0.53741  0.64659  0.92435  1.0000
  H   H3844     1.0  0.71949  0.62209  0.91820  1.0000
  H   H3845     1.0  0.97602  0.45664  0.75061  1.0000
  H   H3846     1.0  0.95234  0.43106  0.82050  1.0000
  C   C2268     1.0  0.57904  0.64845  0.92951  1.0000
  H   H3847     1.0  0.95148  0.47353  0.88828  1.0000
  N   N159      1.0  0.69754  0.53644  0.83493  1.0000
  C   C2269     1.0  0.70910  0.54511  0.82566  1.0000
  C   C2270     1.0  0.69643  0.52651  0.82574  1.0000
  C   C2271     1.0  0.70323  0.52711  0.84850  1.0000
  C   C2272     1.0  0.68307  0.54739  0.83901  1.0000
  C   C2273     1.0  0.69068  0.53450  0.81143  1.0000
  C   C2274     1.0  0.69533  0.51467  0.85800  1.0000
  C   C2275     1.0  0.66870  0.54141  0.84575  1.0000
  H   H3848     1.0  0.71965  0.53753  0.82128  1.0000
  H   H3849     1.0  0.70524  0.55276  0.81578  1.0000
  H   H3850     1.0  0.68913  0.51879  0.83199  1.0000
  H   H3851     1.0  0.70755  0.51907  0.82258  1.0000
  H   H3852     1.0  0.71514  0.52162  0.84533  1.0000
  H   H3853     1.0  0.70305  0.53409  0.85601  1.0000
  H   H3854     1.0  0.68401  0.55325  0.84710  1.0000
  H   H3855     1.0  0.68084  0.55650  0.82930  1.0000
  H   H3856     1.0  0.71937  0.54804  0.84234  1.0000
  H   H3857     1.0  0.68913  0.52611  0.80636  1.0000
  H   H3858     1.0  0.67970  0.54233  0.81361  1.0000
  H   H3859     1.0  0.69887  0.54032  0.80309  1.0000
  H   H3860     1.0  0.70059  0.50920  0.86768  1.0000
  H   H3861     1.0  0.69691  0.50580  0.85204  1.0000
  H   H3862     1.0  0.68336  0.51880  0.86252  1.0000
  H   H3863     1.0  0.66526  0.54112  0.85783  1.0000
  H   H3864     1.0  0.66940  0.53033  0.84409  1.0000
  H   H3865     1.0  0.65942  0.54898  0.84064  1.0000
  C   C2276     1.0  0.66813  0.57385  0.94694  1.0000
  H   H3866     1.0  0.53453  0.36686  0.96465  1.0000
  C   C2277     1.0  0.61220  0.61605  0.93871  1.0000
  C   C2278     1.0  0.98610  0.42851  0.78197  1.0000
  C   C2279     1.0  0.84118  0.51960  0.84174  1.0000
  H   H3867     1.0  0.93651  0.42300  0.82677  1.0000
  H   H3868     1.0  0.64808  0.42997  0.90089  1.0000
  H   H3869     1.0  0.93680  0.46580  0.88816  1.0000
  H   H3870     1.0  0.83353  0.55624  0.86274  1.0000
  H   H3871     1.0  0.97354  0.51967  0.77423  1.0000
  H   H3872     1.0  0.83766  0.53914  0.87611  1.0000
  H   H3873     1.0  0.61377  0.60434  0.94465  1.0000
  H   H3874     1.0  0.61540  0.62173  0.94565  1.0000
  C   C2280     1.0  0.94781  0.42207  0.81941  1.0000
  C   C2281     1.0  0.59298  0.59910  0.93161  1.0000
  H   H3875     1.0  0.53552  0.38173  0.94080  1.0000
  H   H3876     1.0  0.97521  0.55168  0.76019  1.0000
  H   H3877     1.0  0.76614  0.49764  0.94798  1.0000
  C   C2282     1.0  0.78243  0.52981  0.96789  1.0000
  C   C2283     1.0  0.51379  0.36515  0.89286  1.0000
  H   H3878     1.0  0.80028  0.46306  0.95677  1.0000
  S   S672      1.0  0.51447  0.34825  0.96876  1.0000
  H   H3879     1.0  0.67001  0.42844  0.90844  1.0000
  H   H3880     1.0  0.76343  0.48235  0.98018  1.0000
  H   H3881     1.0  0.66460  0.53663  0.98674  1.0000
  S   S673      1.0  0.71928  0.56978  0.97100  1.0000
  H   H3882     1.0  0.65331  0.60385  0.96273  1.0000
  C   C2284     1.0  0.84675  0.53680  0.85298  1.0000
  H   H3883     1.0  0.58531  0.63057  0.95763  1.0000
  N   N160      1.0  0.94261  0.48201  0.85392  1.0000
  C   C2285     1.0  0.93167  0.49450  0.84642  1.0000
  C   C2286     1.0  0.93899  0.46773  0.85394  1.0000
  C   C2287     1.0  0.95804  0.48271  0.84464  1.0000
  C   C2288     1.0  0.94111  0.48415  0.86930  1.0000
  C   C2289     1.0  0.93436  0.51021  0.84342  1.0000
  C   C2290     1.0  0.92283  0.46626  0.86146  1.0000
  C   C2291     1.0  0.97110  0.47009  0.84914  1.0000
  C   C2292     1.0  0.94646  0.47024  0.88085  1.0000
  H   H3884     1.0  0.93147  0.49251  0.83559  1.0000
  H   H3885     1.0  0.92006  0.49510  0.85311  1.0000
  H   H3886     1.0  0.94645  0.45785  0.85924  1.0000
  H   H3887     1.0  0.94105  0.46632  0.84239  1.0000
  H   H3888     1.0  0.95832  0.48314  0.83286  1.0000
  H   H3889     1.0  0.96104  0.49304  0.84466  1.0000
  H   H3890     1.0  0.94708  0.49270  0.86886  1.0000
  H   H3891     1.0  0.92914  0.48856  0.87412  1.0000
  H   H3892     1.0  0.94420  0.51177  0.83433  1.0000
  H   H3893     1.0  0.92456  0.51838  0.83966  1.0000
  H   H3894     1.0  0.93550  0.51293  0.85348  1.0000
  H   H3895     1.0  0.92206  0.45465  0.86282  1.0000
  H   H3896     1.0  0.91926  0.46897  0.87256  1.0000
  H   H3897     1.0  0.91479  0.47332  0.85450  1.0000
  H   H3898     1.0  0.97322  0.47051  0.85978  1.0000
  H   H3899     1.0  0.98143  0.47161  0.84068  1.0000
  H   H3900     1.0  0.96971  0.45900  0.84934  1.0000
  H   H3901     1.0  0.91417  0.48010  0.74592  1.0000
  C   C2293     1.0  0.99580  0.45914  0.80859  1.0000
  H   H3902     1.0  0.90945  0.39004  0.74255  1.0000
  N   N161      1.0  0.69989  0.51590  0.91962  1.0000
  C   C2294     1.0  0.69081  0.53027  0.92402  1.0000
  C   C2295     1.0  0.68953  0.50550  0.92371  1.0000
  C   C2296     1.0  0.70522  0.51923  0.90303  1.0000
  C   C2297     1.0  0.71296  0.50997  0.92721  1.0000
  C   C2298     1.0  0.69925  0.54272  0.92057  1.0000
  C   C2299     1.0  0.68133  0.50258  0.94011  1.0000
  C   C2300     1.0  0.71477  0.50613  0.89592  1.0000
  C   C2301     1.0  0.71918  0.49304  0.93042  1.0000
  H   H3903     1.0  0.68094  0.53477  0.91873  1.0000
  H   H3904     1.0  0.68625  0.52849  0.93617  1.0000
  H   H3905     1.0  0.69549  0.49460  0.92103  1.0000
  H   H3906     1.0  0.68076  0.50980  0.91696  1.0000
  H   H3907     1.0  0.69551  0.52428  0.89758  1.0000
  H   H3908     1.0  0.71229  0.52746  0.89949  1.0000
  H   H3909     1.0  0.72248  0.51508  0.92069  1.0000
  H   H3910     1.0  0.71007  0.51316  0.93810  1.0000
  H   H3911     1.0  0.69155  0.55227  0.92504  1.0000
  H   H3912     1.0  0.70893  0.53919  0.92595  1.0000
  H   H3913     1.0  0.70286  0.54699  0.90857  1.0000
  H   H3914     1.0  0.68855  0.50139  0.94783  1.0000
  H   H3915     1.0  0.67133  0.51164  0.94216  1.0000
  H   H3916     1.0  0.67734  0.49218  0.94280  1.0000
  H   H3917     1.0  0.70929  0.49673  0.89874  1.0000
  H   H3918     1.0  0.72601  0.50245  0.89861  1.0000
  H   H3919     1.0  0.71669  0.50994  0.88371  1.0000
  H   H3920     1.0  0.71166  0.48746  0.93982  1.0000
  H   H3921     1.0  0.73006  0.49054  0.93369  1.0000
  H   H3922     1.0  0.72131  0.48797  0.92082  1.0000
  S   S674      1.0  0.69008  0.55435  0.98334  1.0000
  C   C2302     1.0  0.83482  0.50235  0.97967  1.0000
  C   C2303     1.0  0.82877  0.54574  0.83622  1.0000
  C   C2304     1.0  0.94550  0.41827  0.77468  1.0000
  C   C2305     1.0  0.84025  0.43589  0.96599  1.0000
  H   H3923     1.0  0.56446  0.38394  0.96326  1.0000
  H   H3924     1.0  0.70134  0.42109  0.98975  1.0000
  C   C2306     1.0  0.97890  0.39726  0.78319  1.0000
  H   H3925     1.0  0.78818  0.50706  0.98062  1.0000
  C   C2307     1.0  0.96732  0.40411  0.79572  1.0000
  H   H3926     1.0  0.81598  0.54800  0.94212  1.0000
  C   C2308     1.0  0.68097  0.39400  0.98013  1.0000
  H   H3927     1.0  0.69359  0.43514  0.96236  1.0000
  C   C2309     1.0  0.79143  0.43409  0.98054  1.0000
  S   S675      1.0  0.60117  0.38220  0.97811  1.0000
  H   H3928     1.0  0.79507  0.50923  0.96085  1.0000
  H   H3929     1.0  0.98365  0.40517  0.77366  1.0000
  C   C2310     1.0  0.80524  0.54456  0.94733  1.0000
  H   H3930     1.0  0.76377  0.58526  0.91057  1.0000
  C   C2311     1.0  0.80161  0.54419  0.96408  1.0000
  C   C2312     1.0  0.72360  0.61404  0.92771  1.0000
  C   C2313     1.0  0.97945  0.51694  0.76327  1.0000
  C   C2314     1.0  0.58488  0.51904  0.97143  1.0000
  S   S676      1.0  0.51511  0.63183  0.96350  1.0000
  H   H3931     1.0  0.74076  0.59695  0.87757  1.0000
  C   C2315     1.0  0.69112  0.49216  0.98592  1.0000
  C   C2316     1.0  0.52801  0.38788  0.98221  1.0000
  H   H3932     1.0  0.75176  0.56771  0.97408  1.0000
  S   S677      1.0  0.54005  0.32698  0.90744  1.0000
  N   N162      1.0  0.74491  0.48550  0.96987  1.0000
  H   H3933     1.0  0.65531  0.56096  0.94251  1.0000
  C   C2317     1.0  0.75053  0.47591  0.95855  1.0000
  C   C2318     1.0  0.73234  0.49799  0.96517  1.0000
  C   C2319     1.0  0.73835  0.47615  0.98421  1.0000
  H   H3934     1.0  0.72935  0.58444  0.88903  1.0000
  C   C2320     1.0  0.76335  0.46234  0.96166  1.0000
  C   C2321     1.0  0.73676  0.51000  0.95169  1.0000
  C   C2322     1.0  0.76882  0.49628  0.95878  1.0000
  Fe  Fe336     1.0  0.69903  0.57007  0.96323  1.0000
  H   H3935     1.0  0.84552  0.44243  0.97009  1.0000
  H   H3936     1.0  0.75431  0.48228  0.94736  1.0000
  H   H3937     1.0  0.74126  0.47172  0.95738  1.0000
  C   C2323     1.0  0.50318  0.35462  0.92704  1.0000
  N   N163      1.0  0.83454  0.53331  0.84816  1.0000
  H   H3938     1.0  0.81053  0.53564  0.96894  1.0000
  H   H3939     1.0  0.94932  0.40605  0.77681  1.0000
  H   H3940     1.0  0.66332  0.49127  0.97433  1.0000
  H   H3941     1.0  0.63176  0.38353  0.93231  1.0000
  C   C2324     1.0  0.71351  0.55482  0.83342  1.0000
  H   H3942     1.0  0.63459  0.35229  0.92745  1.0000
  H   H3943     1.0  0.85392  0.54275  0.84336  1.0000
  N   N164      1.0  0.73085  0.59261  0.91372  1.0000
  H   H3944     1.0  0.76602  0.56991  0.90266  1.0000
  H   H3945     1.0  0.81203  0.56646  0.83336  1.0000
  H   H3946     1.0  0.65660  0.43669  0.93018  1.0000
  H   H3947     1.0  0.60164  0.64066  0.91886  1.0000
  N   N165      1.0  0.81237  0.44870  0.97333  1.0000
  H   H3948     1.0  0.77407  0.55844  0.95704  1.0000
  C   C2325     1.0  0.63276  0.35972  0.93519  1.0000
  H   H3949     1.0  0.56967  0.64769  0.98586  1.0000
  H   H3950     1.0  0.71403  0.61083  0.93643  1.0000
  H   H3951     1.0  0.67079  0.46226  0.92878  1.0000
  H   H3952     1.0  0.57402  0.64506  0.92220  1.0000
  S   S678      1.0  0.60957  0.42132  0.97713  1.0000
  H   H3953     1.0  0.81310  0.55920  0.85188  1.0000
  C   C2326     1.0  0.54240  0.37415  0.96192  1.0000
  H   H3954     1.0  0.80058  0.52433  0.86861  1.0000
  H   H3955     1.0  0.70401  0.45613  0.98220  1.0000
  H   H3956     1.0  0.67696  0.43617  0.98612  1.0000
  C   C2327     1.0  0.92939  0.51384  0.75051  1.0000
  H   H3957     1.0  0.62909  0.43888  0.90724  1.0000
  H   H3958     1.0  0.57961  0.53055  0.97294  1.0000
  H   H3959     1.0  0.69372  0.48793  0.97595  1.0000
  H   H3960     1.0  0.72100  0.60237  0.88021  1.0000
  C   C2328     1.0  0.75899  0.55694  0.97828  1.0000
  H   H3961     1.0  0.72994  0.47109  0.98253  1.0000
  H   H3962     1.0  0.79465  0.47546  0.98483  1.0000
  C   C2329     1.0  0.64531  0.35628  0.97135  1.0000
  H   H3963     1.0  0.58011  0.60702  0.97382  1.0000
  H   H3964     1.0  0.86458  0.52210  0.83257  1.0000
  H   H3965     1.0  0.97400  0.39043  0.77900  1.0000
  H   H3966     1.0  0.95830  0.39785  0.79925  1.0000
  H   H3967     1.0  0.71728  0.58166  0.93323  1.0000
  H   H3968     1.0  0.52840  0.39526  0.95212  1.0000
  H   H3969     1.0  0.53086  0.32620  0.86289  1.0000
  H   H3970     1.0  0.66759  0.42308  0.98445  1.0000
  C   C2330     1.0  0.65766  0.44833  0.92535  1.0000
  H   H3971     1.0  0.68136  0.44383  0.92695  1.0000
  H   H3972     1.0  0.71857  0.61144  0.90025  1.0000
  H   H3973     1.0  0.98849  0.49965  0.78768  1.0000
  C   C2331     1.0  0.84002  0.48709  0.98440  1.0000
  H   H3974     1.0  0.67987  0.42968  0.88346  1.0000
  C   C2332     1.0  0.63912  0.36283  0.95703  1.0000
  H   H3975     1.0  0.68246  0.43966  0.90525  1.0000
  H   H3976     1.0  0.60336  0.59283  0.93542  1.0000
  H   H3977     1.0  0.51402  0.34648  0.92475  1.0000
  C   C2333     1.0  0.98160  0.46676  0.78936  1.0000
  S   S679      1.0  0.54753  0.62682  0.93991  1.0000
  C   C2334     1.0  0.64485  0.45212  0.90531  1.0000
  N   N166      1.0  0.64341  0.35340  0.94565  1.0000
  H   H3978     1.0  0.85281  0.52846  0.81908  1.0000
  H   H3979     1.0  0.85936  0.50918  0.82596  1.0000
  H   H3980     1.0  0.56446  0.40280  0.97684  1.0000
  H   H3981     1.0  0.65692  0.48995  0.90183  1.0000
  C   C2335     1.0  0.63333  0.37534  0.92557  1.0000
  H   H3982     1.0  0.64248  0.37357  0.95203  1.0000
  H   H3983     1.0  0.62402  0.37918  0.91957  1.0000
  C   C2336     1.0  0.75706  0.49110  0.97247  1.0000
  H   H3984     1.0  0.77012  0.50726  0.95912  1.0000
  C   C2337     1.0  0.82233  0.52968  0.86137  1.0000
  H   H3985     1.0  0.79899  0.42295  0.98183  1.0000
  C   C2338     1.0  0.70952  0.58030  0.91468  1.0000
  H   H3986     1.0  0.95474  0.41110  0.82353  1.0000
  C   C2339     1.0  0.91448  0.51801  0.75772  1.0000
  H   H3987     1.0  0.63544  0.45929  0.91168  1.0000
  H   H3988     1.0  0.57421  0.62256  0.95141  1.0000
  H   H3989     1.0  0.73769  0.59250  0.93355  1.0000
  H   H3990     1.0  0.54183  0.53314  0.97068  1.0000
  H   H3991     1.0  0.64492  0.33124  0.94338  1.0000
  H   H3992     1.0  0.84984  0.46616  0.97782  1.0000
  Fe  Fe337     1.0  0.52596  0.62001  0.94473  1.0000
  H   H3993     1.0  0.59967  0.64420  0.93661  1.0000
  C   C2340     1.0  0.80884  0.52637  0.85806  1.0000
  H   H3994     1.0  0.62202  0.60993  0.91698  1.0000
  N   N167      1.0  0.65948  0.45169  0.90876  1.0000
  H   H3995     1.0  0.66475  0.46882  0.88955  1.0000
  C   C2341     1.0  0.59160  0.61595  0.92729  1.0000
  N   N168      1.0  0.99501  0.51980  0.75903  1.0000
  H   H3996     1.0  0.97112  0.46917  0.78598  1.0000
  H   H3997     1.0  0.85187  0.54894  0.86633  1.0000
  H   H3998     1.0  0.96656  0.42436  0.76800  1.0000
  C   C2342     1.0  0.67180  0.43973  0.90275  1.0000
  H   H3999     1.0  0.89591  0.40535  0.74865  1.0000
  H   H4000     1.0  0.99437  0.47101  0.76702  1.0000
  C   C2343     1.0  0.95667  0.42578  0.77711  1.0000
  H   H4001     1.0  0.59142  0.59685  0.96013  1.0000
  H   H4002     1.0  0.67476  0.46620  0.90335  1.0000
  S   S680      1.0  0.62416  0.57362  0.95476  1.0000
  C   C2344     1.0  0.66359  0.46641  0.90176  1.0000
  H   H4003     1.0  0.74709  0.46665  0.98831  1.0000
  H   H4004     1.0  0.80151  0.44660  0.94354  1.0000
  H   H4005     1.0  0.96539  0.44120  0.79224  1.0000
  C   C2345     1.0  0.96885  0.52510  0.75251  1.0000
  C   C2346     1.0  0.51398  0.38264  0.98260  1.0000
  H   H4006     1.0  0.64449  0.45744  0.89355  1.0000
  H   H4007     1.0  0.74393  0.57176  0.92348  1.0000
  H   H4008     1.0  0.69930  0.57737  0.92244  1.0000
  C   C2347     1.0  0.81092  0.45459  0.95742  1.0000
  H   H4009     1.0  0.85435  0.52639  0.85745  1.0000
  C   C2348     1.0  0.62403  0.61615  0.92413  1.0000
  H   H4010     1.0  0.93866  0.41682  0.80405  1.0000
  H   H4011     1.0  0.82134  0.44315  0.93899  1.0000
  H   H4012     1.0  0.74009  0.57150  0.90678  1.0000
  H   H4013     1.0  0.97194  0.52015  0.74264  1.0000
  H   H4014     1.0  0.88936  0.47659  0.76179  1.0000
  H   H4015     1.0  0.82174  0.54233  0.83079  1.0000
  C   C2349     1.0  0.85525  0.52012  0.82915  1.0000
  H   H4016     1.0  0.62488  0.62752  0.91796  1.0000
  H   H4017     1.0  0.64150  0.48196  0.90413  1.0000
  C   C2350     1.0  0.98216  0.46202  0.80434  1.0000
  C   C2351     1.0  0.75866  0.58089  0.90410  1.0000
  H   H4018     1.0  0.59745  0.61888  0.91553  1.0000
  H   H4019     1.0  0.93990  0.43548  0.80006  1.0000
  H   H4020     1.0  0.52612  0.39966  0.97612  1.0000
  H   H4021     1.0  0.98000  0.50492  0.76463  1.0000
  C   C2352     1.0  0.67516  0.44095  0.88586  1.0000
  C   C2353     1.0  0.71622  0.58851  0.92201  1.0000
  H   H4022     1.0  0.70728  0.59854  0.92386  1.0000
  H   H4023     1.0  0.71703  0.56978  0.91218  1.0000
  H   H4024     1.0  0.70578  0.58759  0.90464  1.0000
  H   H4025     1.0  0.63515  0.61040  0.92680  1.0000
  C   C2354     1.0  0.55389  0.38923  0.97001  1.0000
  H   H4026     1.0  0.75209  0.50061  0.97807  1.0000
  H   H4027     1.0  0.62993  0.59684  0.96392  1.0000
  H   H4028     1.0  0.65270  0.36305  0.97199  1.0000
  C   C2355     1.0  0.65482  0.57029  0.94693  1.0000
  H   H4029     1.0  0.78825  0.43743  0.96965  1.0000
  C   C2356     1.0  0.69894  0.41081  0.98867  1.0000
  H   H4030     1.0  0.58315  0.59639  0.94019  1.0000
  C   C2357     1.0  0.65946  0.54271  0.97716  1.0000
  H   H4031     1.0  0.57948  0.51122  0.98054  1.0000
  H   H4032     1.0  0.67998  0.38380  0.97753  1.0000
  H   H4033     1.0  0.84763  0.42460  0.96676  1.0000
  C   C2358     1.0  0.64101  0.57849  0.95320  1.0000
  C   C2359     1.0  0.58279  0.48601  0.97225  1.0000
  S   S681      1.0  0.55876  0.33323  0.96130  1.0000
  Fe  Fe338     1.0  0.50747  0.65105  0.94573  1.0000
  H   H4034     1.0  0.62536  0.52615  0.97384  1.0000
  H   H4035     1.0  0.82190  0.42521  0.97339  1.0000
  S   S682      1.0  0.68410  0.59048  0.95287  1.0000
  H   H4036     1.0  0.65038  0.33144  0.95922  1.0000
  H   H4037     1.0  0.98848  0.38952  0.78771  1.0000
  Fe  Fe339     1.0  0.73036  0.55072  0.95973  1.0000
  H   H4038     1.0  0.87366  0.47497  0.74798  1.0000
  H   H4039     1.0  0.66720  0.53977  0.96691  1.0000
  H   H4040     1.0  0.67879  0.56722  0.94260  1.0000
  H   H4041     1.0  0.72626  0.50403  0.97414  1.0000
  H   H4042     1.0  0.58613  0.47384  0.97292  1.0000
  H   H4043     1.0  0.59357  0.59500  0.92167  1.0000
  N   N169      1.0  0.59620  0.62272  0.93726  1.0000
  S   S683      1.0  0.73426  0.43962  0.98405  1.0000
  H   H4044     1.0  0.50525  0.33539  0.87143  1.0000
  H   H4045     1.0  0.51575  0.37071  0.98310  1.0000
  S   S684      1.0  0.69615  0.51813  0.96779  1.0000
  H   H4046     1.0  0.59652  0.51691  0.97284  1.0000
  S   S685      1.0  0.90494  0.43462  0.74282  1.0000
  C   C2360     1.0  0.77501  0.55613  0.96879  1.0000
  C   C2361     1.0  0.79310  0.51436  0.97045  1.0000
  H   H4047     1.0  0.55917  0.51052  0.97556  1.0000
  H   H4048     1.0  0.89756  0.48993  0.76492  1.0000
  H   H4049     1.0  0.65116  0.51708  0.96492  1.0000
  C   C2362     1.0  0.55890  0.51439  0.96367  1.0000
  H   H4050     1.0  0.64163  0.54306  0.96729  1.0000
  Fe  Fe340     1.0  0.63140  0.41506  0.98444  1.0000
  H   H4051     1.0  0.55107  0.50854  0.96213  1.0000
  H   H4052     1.0  0.65839  0.55470  0.97623  1.0000
  C   C2363     1.0  0.49922  0.34224  0.96745  1.0000
  H   H4053     1.0  0.54659  0.53482  0.95114  1.0000
  H   H4054     1.0  0.76736  0.45700  0.95197  1.0000
  H   H4055     1.0  0.62267  0.34213  0.97058  1.0000
  C   C2364     1.0  0.67401  0.43153  0.97819  1.0000
  H   H4056     1.0  0.80449  0.48083  0.96580  1.0000
  H   H4057     1.0  0.59957  0.60680  0.96811  1.0000
  H   H4058     1.0  0.87489  0.50051  0.74501  1.0000
  H   H4059     1.0  0.77869  0.56576  0.96971  1.0000
  H   H4060     1.0  0.82738  0.46238  0.97179  1.0000
  S   S686      1.0  0.97590  0.40666  0.74550  1.0000
  C   C2365     1.0  0.67204  0.34623  0.94457  1.0000
  C   C2366     1.0  0.81648  0.46024  0.97846  1.0000
  C   C2367     1.0  0.64398  0.53986  0.97861  1.0000
  C   C2368     1.0  0.88670  0.49827  0.74586  1.0000
  H   H4061     1.0  0.87642  0.50128  0.98521  1.0000
  C   C2369     1.0  0.55906  0.65567  0.98670  1.0000
  N   N170      1.0  0.78630  0.54184  0.97239  1.0000
  H   H4062     1.0  0.53762  0.34964  0.98447  1.0000
  C   C2370     1.0  0.98716  0.54857  0.75472  1.0000
  H   H4063     1.0  0.56578  0.38470  0.98806  1.0000
  H   H4064     1.0  0.50876  0.38913  0.97310  1.0000
  H   H4065     1.0  0.81056  0.48302  0.98085  1.0000
  C   C2371     1.0  0.96779  0.46743  0.75007  1.0000
  C   C2372     1.0  0.62689  0.52310  0.98546  1.0000
  C   C2373     1.0  0.89932  0.39856  0.74010  1.0000
  H   H4066     1.0  0.52187  0.33049  0.83044  1.0000
  H   H4067     1.0  0.57142  0.64831  0.94053  1.0000
  H   H4068     1.0  0.57289  0.48801  0.98128  1.0000
  H   H4069     1.0  0.95734  0.52381  0.75813  1.0000
  H   H4070     1.0  0.68266  0.34738  0.93644  1.0000
  H   H4071     1.0  0.67170  0.35178  0.95337  1.0000
  C   C2374     1.0  0.54789  0.65438  0.98056  1.0000
  H   H4072     1.0  0.61820  0.33835  0.95503  1.0000
  H   H4073     1.0  0.89012  0.39313  0.74137  1.0000
  H   H4074     1.0  0.63568  0.54817  0.98442  1.0000
  C   C2375     1.0  0.53251  0.32571  0.83442  1.0000
  C   C2376     1.0  0.55813  0.39396  0.98214  1.0000
  H   H4075     1.0  0.95689  0.46512  0.75673  1.0000
  C   C2377     1.0  0.54904  0.36600  0.98632  1.0000
  C   C2378     1.0  0.62670  0.33556  0.96185  1.0000
  H   H4076     1.0  0.50704  0.33828  0.85187  1.0000
  H   H4077     1.0  0.96826  0.53710  0.74889  1.0000
  H   H4078     1.0  0.99270  0.55741  0.75432  1.0000
  C   C2379     1.0  0.65436  0.49733  0.98209  1.0000
  H   H4079     1.0  0.64398  0.49410  0.98257  1.0000
  C   C2380     1.0  0.99506  0.53373  0.76329  1.0000
  C   C2381     1.0  0.78610  0.53732  0.98871  1.0000
  H   H4080     1.0  0.98804  0.54866  0.74302  1.0000
  H   H4081     1.0  0.62549  0.51153  0.98978  1.0000
  H   H4082     1.0  0.99832  0.51243  0.78968  1.0000
  C   C2382     1.0  0.53250  0.95410  0.12409  1.0000
  H   H4083     1.0  0.54299  0.94817  0.11768  1.0000
  H   H4084     1.0  0.55729  0.70554  0.02837  1.0000
  Fe  Fe341     1.0  0.53025  0.91622  0.19524  1.0000
  S   S687      1.0  0.51216  0.93669  0.19163  1.0000
  S   S688      1.0  0.53023  0.89403  0.19185  1.0000
  H   H4085     1.0  0.53603  0.71893  0.01574  1.0000
  Fe  Fe342     1.0  0.53133  0.94786  0.18130  1.0000
  S   S689      1.0  0.53109  0.96558  0.16059  1.0000
  S   S690      1.0  0.54934  0.92716  0.18332  1.0000
  C   C2383     1.0  0.52770  0.93813  0.10423  1.0000
  H   H4086     1.0  0.58904  0.98651  0.18955  1.0000
  H   H4087     1.0  0.55764  0.96992  0.17657  1.0000
  S   S691      1.0  0.50470  0.71974  0.02345  1.0000
  H   H4088     1.0  0.53622  0.95576  0.13339  1.0000
  C   C2384     1.0  0.54277  0.67738  0.99544  1.0000
  C   C2385     1.0  0.55142  0.98429  0.19254  1.0000
  N   N171      1.0  0.54286  0.73985  0.00674  1.0000
  C   C2386     1.0  0.52271  0.87698  0.17811  1.0000
  H   H4089     1.0  0.56123  0.74600  0.01087  1.0000
  H   H4090     1.0  0.58726  0.98332  0.20894  1.0000
  C   C2387     1.0  0.55653  0.66715  0.99407  1.0000
  C   C2388     1.0  0.51547  0.94276  0.11742  1.0000
  H   H4091     1.0  0.54791  0.97899  0.20434  1.0000
  C   C2389     1.0  0.52135  0.98126  0.16768  1.0000
  C   C2390     1.0  0.51183  0.97933  0.18159  1.0000
  C   C2391     1.0  0.54630  0.72330  0.01277  1.0000
  H   H4092     1.0  0.53354  0.94712  0.09798  1.0000
  N   N172      1.0  0.52084  0.94500  0.12986  1.0000
  C   C2392     1.0  0.52777  0.76413  0.01548  1.0000
  H   H4093     1.0  0.50926  0.96868  0.18696  1.0000
  H   H4094     1.0  0.52385  0.73891  0.99929  1.0000
  Fe  Fe343     1.0  0.51610  0.70447  0.00770  1.0000
  C   C2393     1.0  0.50576  0.99108  0.18881  1.0000
  H   H4095     1.0  0.53663  0.91811  0.15776  1.0000
  H   H4096     1.0  0.50015  0.88667  0.22581  1.0000
  H   H4097     1.0  0.57958  0.97245  0.20217  1.0000
  H   H4098     1.0  0.52231  0.93589  0.09642  1.0000
  H   H4099     1.0  0.55522  0.97242  0.23585  1.0000
  H   H4100     1.0  0.51147  0.95661  0.14794  1.0000
  H   H4101     1.0  0.49956  0.98575  0.14581  1.0000
  H   H4102     1.0  0.52244  0.74266  0.02345  1.0000
  C   C2394     1.0  0.53450  0.74266  0.99464  1.0000
  C   C2395     1.0  0.51135  0.90309  0.17189  1.0000
  C   C2396     1.0  0.52090  0.89145  0.17957  1.0000
  S   S692      1.0  0.53243  0.95325  0.20227  1.0000
  H   H4103     1.0  0.52302  0.97800  0.12231  1.0000
  H   H4104     1.0  0.56450  0.96145  0.19304  1.0000
  H   H4105     1.0  0.50969  0.91422  0.17331  1.0000
  Fe  Fe344     1.0  0.51494  0.94012  0.21278  1.0000
  H   H4106     1.0  0.53823  0.74455  0.02861  1.0000
  H   H4107     1.0  0.51975  0.76780  0.02530  1.0000
  H   H4108     1.0  0.53004  0.86794  0.18403  1.0000
  S   S693      1.0  0.56941  0.92826  0.21372  1.0000
  C   C2397     1.0  0.53275  0.74711  0.01911  1.0000
  C   C2398     1.0  0.58135  0.98375  0.20029  1.0000
  H   H4109     1.0  0.51973  0.92248  0.14160  1.0000
  C   C2399     1.0  0.55736  0.74493  0.00136  1.0000
  C   C2400     1.0  0.50525  0.88547  0.16171  1.0000
  S   S694      1.0  0.53123  0.91850  0.21762  1.0000
  C   C2401     1.0  0.56254  0.97206  0.18482  1.0000
  C   C2402     1.0  0.52754  0.96988  0.11499  1.0000
  H   H4110     1.0  0.56429  0.76588  0.99215  1.0000
  H   H4111     1.0  0.51627  0.86268  0.16850  1.0000
  H   H4112     1.0  0.54516  0.72023  0.03663  1.0000
  H   H4113     1.0  0.57360  0.97436  0.17914  1.0000
  H   H4114     1.0  0.55066  0.95596  0.22224  1.0000
  H   H4115     1.0  0.53590  0.92783  0.10765  1.0000
  Fe  Fe345     1.0  0.54863  0.93147  0.20538  1.0000
  C   C2403     1.0  0.57763  0.95991  0.23705  1.0000
  H   H4116     1.0  0.56631  0.73635  0.99627  1.0000
  C   C2404     1.0  0.55344  0.71781  0.02647  1.0000
  H   H4117     1.0  0.50761  0.95289  0.11288  1.0000
  H   H4118     1.0  0.54254  0.93495  0.14931  1.0000
  H   H4119     1.0  0.59451  0.92849  0.22382  1.0000
  C   C2405     1.0  0.51493  0.87401  0.16928  1.0000
  C   C2406     1.0  0.50774  0.95313  0.13968  1.0000
  H   H4120     1.0  0.50219  0.96367  0.13307  1.0000
  H   H4121     1.0  0.54112  0.98730  0.18801  1.0000
  S   S695      1.0  0.53993  0.69177  0.00465  1.0000
  H   H4122     1.0  0.55412  0.71734  0.00424  1.0000
  H   H4123     1.0  0.56519  0.66800  0.99887  1.0000
  H   H4124     1.0  0.53728  0.97311  0.10656  1.0000
  C   C2407     1.0  0.58589  0.93808  0.22636  1.0000
  C   C2408     1.0  0.52762  0.92997  0.13820  1.0000
  H   H4125     1.0  0.50262  0.88134  0.20877  1.0000
  C   C2409     1.0  0.50356  0.90011  0.16283  1.0000
  H   H4126     1.0  0.53759  0.92435  0.13097  1.0000
  C   C2410     1.0  0.58870  0.94765  0.23340  1.0000
  C   C2411     1.0  0.57214  0.94091  0.22243  1.0000
  C   C2412     1.0  0.56113  0.95347  0.22563  1.0000
  H   H4127     1.0  0.52377  0.93518  0.16018  1.0000
  H   H4128     1.0  0.51902  0.97083  0.10876  1.0000
  H   H4129     1.0  0.59951  0.94546  0.23611  1.0000
  H   H4130     1.0  0.56330  0.72236  0.02499  1.0000
  C   C2413     1.0  0.53284  0.92980  0.15210  1.0000
  H   H4131     1.0  0.53728  0.76941  0.01334  1.0000
  H   H4132     1.0  0.52179  0.76841  0.00625  1.0000
  C   C2414     1.0  0.56374  0.96281  0.23325  1.0000
  H   H4133     1.0  0.50885  0.93407  0.12154  1.0000
  H   H4134     1.0  0.51968  0.96279  0.23264  1.0000
  H   H4135     1.0  0.53773  0.93999  0.23962  1.0000
  H   H4136     1.0  0.49938  0.93498  0.15650  1.0000
  H   H4137     1.0  0.52106  0.68413  0.98994  1.0000
  Fe  Fe346     1.0  0.92414  0.85860  0.41542  1.0000
  S   S696      1.0  0.92765  0.83810  0.43317  1.0000
  S   S697      1.0  0.92986  0.85774  0.39141  1.0000
  S   S698      1.0  0.93443  0.87175  0.42415  1.0000
  S   S699      1.0  0.90084  0.86766  0.42656  1.0000
  S   S700      1.0  0.89483  0.74047  0.45532  1.0000
  C   C2415     1.0  0.65709  0.95724  0.48158  1.0000
  H   H4138     1.0  0.77630  0.91095  0.41887  1.0000
  H   H4139     1.0  0.78159  0.95911  0.40880  1.0000
  C   C2416     1.0  0.99503  0.71842  0.31682  1.0000
  C   C2417     1.0  0.94183  0.71726  0.32758  1.0000
  H   H4140     1.0  0.96754  0.73723  0.42046  1.0000
  H   H4141     1.0  0.96584  0.85630  0.42248  1.0000
  H   H4142     1.0  0.95899  0.71896  0.33715  1.0000
  C   C2418     1.0  0.98075  0.79177  0.33749  1.0000
  Fe  Fe347     1.0  0.90189  0.74269  0.47490  1.0000
  C   C2419     1.0  0.73914  0.91267  0.43893  1.0000
  S   S701      1.0  0.95312  0.74394  0.47402  1.0000
  C   C2420     1.0  0.64485  0.95100  0.48409  1.0000
  H   H4143     1.0  0.98895  0.81150  0.47824  1.0000
  S   S702      1.0  0.92090  0.72530  0.48248  1.0000
  S   S703      1.0  0.70566  0.93809  0.46791  1.0000
  C   C2421     1.0  0.63710  0.98332  0.30091  1.0000
  H   H4144     1.0  0.98869  0.73659  0.44134  1.0000
  C   C2422     1.0  0.54267  0.94240  0.26493  1.0000
  H   H4145     1.0  0.61716  0.97640  0.28929  1.0000
  S   S704      1.0  0.51859  0.96698  0.29509  1.0000
  H   H4146     1.0  0.99315  0.79939  0.36064  1.0000
  S   S705      1.0  0.56053  0.96945  0.28633  1.0000
  Fe  Fe348     1.0  0.72725  0.97066  0.37960  1.0000
  S   S706      1.0  0.74327  0.97582  0.35815  1.0000
  H   H4147     1.0  0.98399  0.66430  0.27789  1.0000
  Fe  Fe349     1.0  0.73370  0.93824  0.37988  1.0000
  S   S707      1.0  0.75048  0.94004  0.35837  1.0000
  S   S708      1.0  0.72863  0.91693  0.39434  1.0000
  Fe  Fe350     1.0  0.75856  0.95490  0.36714  1.0000
  S   S709      1.0  0.78278  0.95332  0.36552  1.0000
  Fe  Fe351     1.0  0.73388  0.96073  0.35094  1.0000
  S   S710      1.0  0.73140  0.96646  0.32734  1.0000
  S   S711      1.0  0.74342  0.95122  0.38931  1.0000
  S   S712      1.0  0.71618  0.95750  0.37175  1.0000
  H   H4148     1.0  0.55187  0.90092  0.25889  1.0000
  H   H4149     1.0  0.81534  0.92770  0.40508  1.0000
  H   H4150     1.0  0.97115  0.65807  0.31142  1.0000
  H   H4151     1.0  0.84348  0.90614  0.46606  1.0000
  H   H4152     1.0  0.93107  0.68757  0.38502  1.0000
  H   H4153     1.0  0.52615  0.91540  0.26334  1.0000
  H   H4154     1.0  0.80559  0.94651  0.40384  1.0000
  Fe  Fe352     1.0  0.92347  0.77019  0.35560  1.0000
  S   S713      1.0  0.94751  0.76398  0.35725  1.0000
  S   S714      1.0  0.91350  0.75827  0.34501  1.0000
  Fe  Fe353     1.0  0.91552  0.79485  0.37251  1.0000
  S   S715      1.0  0.93892  0.79063  0.37538  1.0000
  S   S716      1.0  0.89827  0.81168  0.38399  1.0000
  Fe  Fe354     1.0  0.94553  0.78855  0.35176  1.0000
  C   C2423     1.0  0.90408  0.67412  0.48849  1.0000
  Fe  Fe355     1.0  0.93829  0.76674  0.38061  1.0000
  S   S717      1.0  0.94708  0.75180  0.40013  1.0000
  S   S718      1.0  0.92206  0.79469  0.34833  1.0000
  S   S719      1.0  0.91435  0.77098  0.37952  1.0000
  H   H4155     1.0  0.97080  0.71190  0.48814  1.0000
  C   C2424     1.0  0.97498  0.76457  0.32154  1.0000
  C   C2425     1.0  0.86634  0.93461  0.42593  1.0000
  C   C2426     1.0  0.91918  0.73664  0.32972  1.0000
  C   C2427     1.0  0.92508  0.74317  0.33747  1.0000
  C   C2428     1.0  0.93960  0.73694  0.33990  1.0000
  C   C2429     1.0  0.94793  0.72391  0.33506  1.0000
  H   H4156     1.0  0.85607  0.94487  0.45278  1.0000
  H   H4157     1.0  0.90798  0.74141  0.32780  1.0000
  H   H4158     1.0  0.94421  0.74182  0.34593  1.0000
  H   H4159     1.0  0.80016  0.98850  0.32251  1.0000
  H   H4160     1.0  0.94095  0.80929  0.47570  1.0000
  H   H4161     1.0  0.75698  0.93584  0.43824  1.0000
  H   H4162     1.0  0.95239  0.81439  0.44527  1.0000
  H   H4163     1.0  0.69700  0.96588  0.40927  1.0000
  H   H4164     1.0  0.88705  0.93390  0.43135  1.0000
  S   S720      1.0  0.83082  0.97842  0.40196  1.0000
  H   H4165     1.0  0.55762  0.94096  0.27893  1.0000
  C   C2430     1.0  0.97536  0.85248  0.42763  1.0000
  S   S721      1.0  0.74326  0.91071  0.45610  1.0000
  H   H4166     1.0  0.92875  0.70089  0.44627  1.0000
  C   C2431     1.0  0.99459  0.73272  0.43095  1.0000
  C   C2432     1.0  0.72777  0.92746  0.41837  1.0000
  H   H4167     1.0  0.95962  0.76389  0.44436  1.0000
  S   S722      1.0  0.80695  0.96497  0.43072  1.0000
  H   H4168     1.0  0.94884  0.67676  0.30672  1.0000
  H   H4169     1.0  0.76015  0.97578  0.42063  1.0000
  S   S723      1.0  0.90187  0.90334  0.43795  1.0000
  C   C2433     1.0  0.97304  0.66318  0.25638  1.0000
  C   C2434     1.0  0.54856  0.93565  0.27933  1.0000
  H   H4170     1.0  0.89340  0.73671  0.38046  1.0000
  C   C2435     1.0  0.94570  0.68357  0.29630  1.0000
  H   H4171     1.0  0.89679  0.71173  0.47605  1.0000
  C   C2436     1.0  0.99824  0.77261  0.35031  1.0000
  C   C2437     1.0  0.50175  0.97751  0.29012  1.0000
  S   S724      1.0  0.97290  0.66169  0.46677  1.0000
  C   C2438     1.0  0.92760  0.69912  0.36326  1.0000
  H   H4172     1.0  0.53525  0.91442  0.27742  1.0000
  C   C2439     1.0  0.50712  0.98890  0.32323  1.0000
  H   H4173     1.0  0.68604  0.95040  0.40293  1.0000
  H   H4174     1.0  0.72719  0.98873  0.41746  1.0000
  H   H4175     1.0  0.96972  0.76786  0.46107  1.0000
  H   H4176     1.0  0.62753  0.98624  0.42074  1.0000
  H   H4177     1.0  0.96749  0.80434  0.36603  1.0000
  C   C2440     1.0  0.94749  0.80636  0.40138  1.0000
  H   H4178     1.0  0.98256  0.82435  0.35145  1.0000
  C   C2441     1.0  0.84831  0.91443  0.46812  1.0000
  H   H4179     1.0  0.88069  0.79036  0.40821  1.0000
  H   H4180     1.0  0.85845  0.91260  0.48708  1.0000
  H   H4181     1.0  0.85598  0.91760  0.45738  1.0000
  H   H4182     1.0  0.88684  0.77067  0.41231  1.0000
  C   C2442     1.0  0.97091  0.72546  0.41941  1.0000
  H   H4183     1.0  0.66695  0.98917  0.40950  1.0000
  C   C2443     1.0  0.98638  0.69207  0.42175  1.0000
  C   C2444     1.0  0.70145  0.97779  0.33658  1.0000
  C   C2445     1.0  0.71294  0.97323  0.32505  1.0000
  C   C2446     1.0  0.70981  0.97457  0.31129  1.0000
  S   S725      1.0  0.71466  0.98621  0.39451  1.0000
  C   C2447     1.0  0.98354  0.77939  0.34880  1.0000
  C   C2448     1.0  0.67708  0.97993  0.39035  1.0000
  H   H4184     1.0  0.71870  0.97105  0.30236  1.0000
  C   C2449     1.0  0.68681  0.98356  0.33438  1.0000
  C   C2450     1.0  0.90953  0.74277  0.43997  1.0000
  C   C2451     1.0  0.90806  0.74274  0.42590  1.0000
  C   C2452     1.0  0.91954  0.74562  0.41355  1.0000
  C   C2453     1.0  0.93251  0.74835  0.41531  1.0000
  C   C2454     1.0  0.93403  0.74810  0.42941  1.0000
  C   C2455     1.0  0.92258  0.74535  0.44169  1.0000
  H   H4185     1.0  0.89794  0.74083  0.42450  1.0000
  H   H4186     1.0  0.91839  0.74562  0.40272  1.0000
  H   H4187     1.0  0.94399  0.75021  0.43088  1.0000
  H   H4188     1.0  0.92391  0.74524  0.45248  1.0000
  H   H4189     1.0  0.90442  0.84622  0.40939  1.0000
  C   C2456     1.0  0.73223  0.91523  0.41170  1.0000
  C   C2457     1.0  0.99432  0.83979  0.48846  1.0000
  H   H4190     1.0  0.72170  0.93792  0.41295  1.0000
  H   H4191     1.0  0.96197  0.68411  0.27567  1.0000
  H   H4192     1.0  0.98119  0.69609  0.41194  1.0000
  C   C2458     1.0  0.52137  0.95958  0.24417  1.0000
  N   N173      1.0  0.97032  0.81454  0.38238  1.0000
  H   H4193     1.0  0.93338  0.68586  0.29771  1.0000
  H   H4194     1.0  0.97484  0.72428  0.39623  1.0000
  H   H4195     1.0  0.95526  0.67081  0.42145  1.0000
  C   C2459     1.0  0.79980  0.97545  0.38455  1.0000
  C   C2460     1.0  0.79847  0.96580  0.37663  1.0000
  C   C2461     1.0  0.78441  0.96576  0.37492  1.0000
  C   C2462     1.0  0.77173  0.97570  0.38070  1.0000
  H   H4196     1.0  0.99805  0.69322  0.41875  1.0000
  H   H4197     1.0  0.81064  0.97521  0.38612  1.0000
  H   H4198     1.0  0.80830  0.95815  0.37211  1.0000
  H   H4199     1.0  0.76081  0.97577  0.37943  1.0000
  H   H4200     1.0  0.53980  0.93790  0.28923  1.0000
  C   C2463     1.0  0.92048  0.84575  0.38875  1.0000
  C   C2464     1.0  0.92538  0.83986  0.37599  1.0000
  C   C2465     1.0  0.91860  0.82936  0.37441  1.0000
  C   C2466     1.0  0.90644  0.82535  0.38525  1.0000
  C   C2467     1.0  0.90107  0.83189  0.39755  1.0000
  C   C2468     1.0  0.90834  0.84171  0.39954  1.0000
  H   H4201     1.0  0.93461  0.84316  0.36750  1.0000
  H   H4202     1.0  0.92266  0.82450  0.36474  1.0000
  H   H4203     1.0  0.89149  0.82908  0.40574  1.0000
  H   H4204     1.0  0.66483  0.89131  0.48404  1.0000
  Fe  Fe356     1.0  0.83546  0.98984  0.41708  1.0000
  H   H4205     1.0  0.97528  0.74242  0.32110  1.0000
  N   N174      1.0  0.96133  0.66103  0.28443  1.0000
  H   H4206     1.0  0.92986  0.66409  0.29344  1.0000
  H   H4207     1.0  0.52935  0.96577  0.24460  1.0000
  H   H4208     1.0  0.82774  0.91591  0.45106  1.0000
  H   H4209     1.0  0.90034  0.72626  0.36660  1.0000
  H   H4210     1.0  0.99050  0.80693  0.31888  1.0000
  C   C2469     1.0  0.88848  0.78105  0.41387  1.0000
  C   C2470     1.0  0.95376  0.67729  0.28222  1.0000
  H   H4211     1.0  0.98582  0.75154  0.30500  1.0000
  H   H4212     1.0  0.94434  0.79624  0.40899  1.0000
  H   H4213     1.0  0.72710  0.98122  0.44592  1.0000
  H   H4214     1.0  0.99309  0.84273  0.47680  1.0000
  C   C2471     1.0  0.89773  0.70096  0.48403  1.0000
  H   H4215     1.0  0.98498  0.83441  0.46042  1.0000
  N   N175      1.0  0.67368  0.96546  0.41762  1.0000
  C   C2472     1.0  0.67643  0.95122  0.41258  1.0000
  S   S726      1.0  0.80450  0.97566  0.46804  1.0000
  C   C2473     1.0  0.66780  0.97864  0.40635  1.0000
  C   C2474     1.0  0.66222  0.96494  0.43197  1.0000
  C   C2475     1.0  0.66301  0.94855  0.40846  1.0000
  H   H4216     1.0  0.95236  0.81870  0.37096  1.0000
  H   H4217     1.0  0.98669  0.68003  0.42543  1.0000
  H   H4218     1.0  0.72663  0.98637  0.47819  1.0000
  H   H4219     1.0  0.98634  0.80265  0.44286  1.0000
  H   H4220     1.0  0.94530  0.72440  0.45943  1.0000
  C   C2476     1.0  0.51661  0.94062  0.27491  1.0000
  C   C2477     1.0  0.84252  0.93885  0.47522  1.0000
  H   H4221     1.0  0.94059  0.80988  0.39295  1.0000
  C   C2478     1.0  0.94559  0.78965  0.46620  1.0000
  H   H4222     1.0  0.65110  0.96525  0.43017  1.0000
  H   H4223     1.0  0.66510  0.95433  0.43998  1.0000
  H   H4224     1.0  0.65914  0.95721  0.39917  1.0000
  H   H4225     1.0  0.66651  0.93787  0.40475  1.0000
  H   H4226     1.0  0.65352  0.94760  0.41807  1.0000
  H   H4227     1.0  0.97029  0.79992  0.40400  1.0000
  H   H4228     1.0  0.90688  0.70047  0.48937  1.0000
  C   C2479     1.0  0.95228  0.71717  0.45178  1.0000
  H   H4229     1.0  0.51956  0.93719  0.24601  1.0000
  N   N176      1.0  0.97732  0.71583  0.43248  1.0000
  H   H4230     1.0  0.98855  0.71801  0.35025  1.0000
  H   H4231     1.0  0.83690  0.93813  0.44913  1.0000
  H   H4232     1.0  0.92303  0.69076  0.36099  1.0000
  C   C2480     1.0  0.68828  0.96702  0.41951  1.0000
  N   N177      1.0  0.88636  0.79428  0.43473  1.0000
  C   C2481     1.0  0.88549  0.78056  0.43060  1.0000
  C   C2482     1.0  0.88535  0.79063  0.45120  1.0000
  C   C2483     1.0  0.90141  0.79763  0.42675  1.0000
  C   C2484     1.0  0.87375  0.80672  0.42990  1.0000
  C   C2485     1.0  0.79390  0.93058  0.42056  1.0000
  C   C2486     1.0  0.87079  0.78639  0.46089  1.0000
  C   C2487     1.0  0.90703  0.80792  0.43268  1.0000
  C   C2488     1.0  0.86959  0.82080  0.43627  1.0000
  H   H4233     1.0  0.89359  0.77078  0.43527  1.0000
  H   H4234     1.0  0.87431  0.77794  0.43543  1.0000
  H   H4235     1.0  0.88681  0.79980  0.45512  1.0000
  H   H4236     1.0  0.89475  0.78127  0.45406  1.0000
  H   H4237     1.0  0.91029  0.78719  0.42696  1.0000
  H   H4238     1.0  0.90154  0.80257  0.41485  1.0000
  H   H4239     1.0  0.87621  0.81056  0.41765  1.0000
  H   H4240     1.0  0.86328  0.80279  0.43215  1.0000
  H   H4241     1.0  0.85445  0.90436  0.42645  1.0000
  H   H4242     1.0  0.53893  0.95454  0.26445  1.0000
  H   H4243     1.0  0.87074  0.78555  0.47268  1.0000
  H   H4244     1.0  0.86073  0.79486  0.45825  1.0000
  H   H4245     1.0  0.87010  0.77536  0.46005  1.0000
  H   H4246     1.0  0.91066  0.80215  0.44323  1.0000
  H   H4247     1.0  0.89866  0.81825  0.43422  1.0000
  H   H4248     1.0  0.91694  0.81117  0.42458  1.0000
  H   H4249     1.0  0.87610  0.82906  0.42936  1.0000
  H   H4250     1.0  0.87053  0.81871  0.44787  1.0000
  H   H4251     1.0  0.85757  0.82605  0.43653  1.0000
  C   C2489     1.0  0.99521  0.73906  0.33949  1.0000
  H   H4252     1.0  0.81451  0.93254  0.44620  1.0000
  C   C2490     1.0  0.66914  0.94957  0.48835  1.0000
  C   C2491     1.0  0.76536  0.96317  0.47468  1.0000
  H   H4253     1.0  0.55242  0.94109  0.25554  1.0000
  C   C2492     1.0  0.97992  0.78056  0.46876  1.0000
  H   H4254     1.0  0.65623  0.97883  0.40597  1.0000
  Fe  Fe357     1.0  0.97165  0.66908  0.36754  1.0000
  H   H4255     1.0  0.96694  0.79219  0.39087  1.0000
  S   S727      1.0  0.99047  0.67608  0.32604  1.0000
  H   H4256     1.0  0.54928  0.91639  0.24396  1.0000
  C   C2493     1.0  0.78767  0.96978  0.47610  1.0000
  H   H4257     1.0  0.68849  0.98108  0.38954  1.0000
  H   H4258     1.0  0.72521  0.87029  0.44658  1.0000
  H   H4259     1.0  0.71535  0.88798  0.43865  1.0000
  Fe  Fe358     1.0  0.81363  0.97709  0.44368  1.0000
  H   H4260     1.0  0.96420  0.84177  0.40273  1.0000
  H   H4261     1.0  0.85955  0.95183  0.46663  1.0000
  H   H4262     1.0  0.97324  0.76395  0.33350  1.0000
  H   H4263     1.0  0.96375  0.76783  0.31880  1.0000
  Fe  Fe359     1.0  0.92915  0.74418  0.48398  1.0000
  H   H4264     1.0  0.91016  0.79125  0.48381  1.0000
  H   H4265     1.0  0.87083  0.70267  0.46052  1.0000
  H   H4266     1.0  0.67233  0.91452  0.46254  1.0000
  H   H4267     1.0  0.98774  0.71530  0.32769  1.0000
  H   H4268     1.0  0.59592  0.98564  0.37186  1.0000
  C   C2494     1.0  0.73114  0.92617  0.43205  1.0000
  H   H4269     1.0  0.98276  0.73296  0.47833  1.0000
  C   C2495     1.0  0.91819  0.70291  0.45463  1.0000
  C   C2496     1.0  0.77096  0.93562  0.41068  1.0000
  H   H4270     1.0  0.75317  0.96088  0.43352  1.0000
  C   C2497     1.0  0.85704  0.94212  0.46446  1.0000
  H   H4271     1.0  0.94755  0.77362  0.43189  1.0000
  C   C2498     1.0  0.54969  0.91321  0.25586  1.0000
  H   H4272     1.0  0.89332  0.67862  0.46336  1.0000
  C   C2499     1.0  0.69689  0.90776  0.45653  1.0000
  Fe  Fe360     1.0  0.56506  0.98220  0.26293  1.0000
  C   C2500     1.0  0.97370  0.84531  0.44256  1.0000
  H   H4273     1.0  0.70557  0.95809  0.43228  1.0000
  S   S728      1.0  0.95635  0.84186  0.45329  1.0000
  H   H4274     1.0  0.97462  0.67550  0.29945  1.0000
  C   C2501     1.0  0.96771  0.72101  0.44628  1.0000
  H   H4275     1.0  0.79553  0.91832  0.42308  1.0000
  Fe  Fe361     1.0  0.99717  0.68009  0.34495  1.0000
  H   H4276     1.0  0.67157  0.99008  0.38328  1.0000
  C   C2502     1.0  0.80404  0.93516  0.40541  1.0000
  H   H4277     1.0  0.72772  0.93565  0.43716  1.0000
  H   H4278     1.0  0.98814  0.72374  0.30835  1.0000
  H   H4279     1.0  0.71838  0.87452  0.47081  1.0000
  S   S729      1.0  0.83831  0.96959  0.43526  1.0000
  C   C2503     1.0  0.74366  0.90047  0.43223  1.0000
  C   C2504     1.0  0.53476  0.91966  0.26567  1.0000
  H   H4280     1.0  0.97931  0.73304  0.35961  1.0000
  H   H4281     1.0  0.70612  0.91377  0.45201  1.0000
  H   H4282     1.0  0.72469  0.89019  0.45910  1.0000
  C   C2505     1.0  0.79472  0.98263  0.33335  1.0000
  C   C2506     1.0  0.86156  0.91083  0.42748  1.0000
  C   C2507     1.0  0.65965  0.97764  0.43993  1.0000
  C   C2508     1.0  0.98716  0.81053  0.37938  1.0000
  H   H4283     1.0  0.91929  0.71091  0.46041  1.0000
  H   H4284     1.0  0.51038  0.96328  0.25129  1.0000
  H   H4285     1.0  0.67392  0.90334  0.48744  1.0000
  H   H4286     1.0  0.96491  0.78815  0.43071  1.0000
  C   C2509     1.0  0.97019  0.65952  0.40470  1.0000
  H   H4287     1.0  0.91017  0.81458  0.46432  1.0000
  C   C2510     1.0  0.70443  0.90007  0.48048  1.0000
  C   C2511     1.0  0.85719  0.92632  0.42441  1.0000
  H   H4288     1.0  0.78425  0.91755  0.39943  1.0000
  N   N178      1.0  0.53038  0.93632  0.26340  1.0000
  C   C2512     1.0  0.92391  0.70784  0.40136  1.0000
  S   S730      1.0  0.95143  0.70040  0.32244  1.0000
  C   C2513     1.0  0.99295  0.71709  0.43151  1.0000
  H   H4289     1.0  0.68431  0.88528  0.46548  1.0000
  N   N179      1.0  0.90170  0.68802  0.47661  1.0000
  C   C2514     1.0  0.95523  0.78828  0.44024  1.0000
  N   N180      1.0  0.89872  0.90337  0.38371  1.0000
  C   C2515     1.0  0.89496  0.91995  0.37824  1.0000
  C   C2516     1.0  0.90858  0.89645  0.37102  1.0000
  C   C2517     1.0  0.90699  0.89906  0.39610  1.0000
  C   C2518     1.0  0.88435  0.89810  0.38946  1.0000
  C   C2519     1.0  0.88617  0.92908  0.39009  1.0000
  C   C2520     1.0  0.90098  0.89723  0.35849  1.0000
  C   C2521     1.0  0.92102  0.90528  0.39290  1.0000
  C   C2522     1.0  0.88598  0.88109  0.39364  1.0000
  H   H4290     1.0  0.90522  0.92417  0.37248  1.0000
  H   H4291     1.0  0.88805  0.92308  0.36976  1.0000
  H   H4292     1.0  0.91381  0.88461  0.37490  1.0000
  H   H4293     1.0  0.91821  0.90179  0.36575  1.0000
  H   H4294     1.0  0.89952  0.90226  0.40637  1.0000
  H   H4295     1.0  0.91084  0.88684  0.39917  1.0000
  H   H4296     1.0  0.87781  0.90238  0.39953  1.0000
  H   H4297     1.0  0.87699  0.90281  0.38130  1.0000
  H   H4298     1.0  0.88460  0.94106  0.38484  1.0000
  H   H4299     1.0  0.87483  0.92694  0.39485  1.0000
  H   H4300     1.0  0.89214  0.92719  0.39906  1.0000
  H   H4301     1.0  0.89622  0.90877  0.35329  1.0000
  H   H4302     1.0  0.90949  0.89221  0.34970  1.0000
  H   H4303     1.0  0.89222  0.89074  0.36234  1.0000
  H   H4304     1.0  0.92592  0.90140  0.40291  1.0000
  H   H4305     1.0  0.91842  0.91754  0.39063  1.0000
  H   H4306     1.0  0.92972  0.90116  0.38374  1.0000
  H   H4307     1.0  0.87973  0.87784  0.40515  1.0000
  H   H4308     1.0  0.89758  0.87453  0.39308  1.0000
  H   H4309     1.0  0.88089  0.87758  0.38644  1.0000
  C   C2523     1.0  0.88627  0.82241  0.46964  1.0000
  Fe  Fe362     1.0  0.91115  0.87922  0.43694  1.0000
  H   H4310     1.0  0.97439  0.77495  0.35633  1.0000
  H   H4311     1.0  0.87985  0.68414  0.47842  1.0000
  H   H4312     1.0  0.55349  0.92361  0.28064  1.0000
  H   H4313     1.0  0.98955  0.65974  0.30214  1.0000
  C   C2524     1.0  0.87989  0.92743  0.43039  1.0000
  H   H4314     1.0  0.96561  0.73327  0.44469  1.0000
  H   H4315     1.0  0.94825  0.69451  0.29486  1.0000
  H   H4316     1.0  0.67773  0.97050  0.38551  1.0000
  H   H4317     1.0  0.50344  0.92515  0.27461  1.0000
  C   C2525     1.0  0.98112  0.72554  0.40381  1.0000
  H   H4318     1.0  0.82061  0.94550  0.46114  1.0000
  H   H4319     1.0  0.94607  0.79752  0.43645  1.0000
  C   C2526     1.0  0.96871  0.83026  0.40093  1.0000
  H   H4320     1.0  0.88368  0.71215  0.46131  1.0000
  H   H4321     1.0  0.86316  0.94658  0.42335  1.0000
  H   H4322     1.0  0.69773  0.94414  0.43036  1.0000
  C   C2527     1.0  0.95041  0.77372  0.44231  1.0000
  H   H4323     1.0  0.69498  0.90834  0.48515  1.0000
  Fe  Fe363     1.0  0.98959  0.66705  0.47572  1.0000
  H   H4324     1.0  0.76503  0.91777  0.40539  1.0000
  H   H4325     1.0  0.96046  0.72256  0.41932  1.0000
  H   H4326     1.0  0.79872  0.93295  0.42872  1.0000
  C   C2528     1.0  0.96493  0.82942  0.38660  1.0000
  C   C2529     1.0  0.87510  0.90365  0.43198  1.0000
  H   H4327     1.0  0.75858  0.93931  0.41335  1.0000
  C   C2530     1.0  0.88441  0.91194  0.43325  1.0000
  C   C2531     1.0  0.89981  0.81232  0.47146  1.0000
  H   H4328     1.0  0.79996  0.93436  0.39599  1.0000
  C   C2532     1.0  0.97674  0.73998  0.48611  1.0000
  Fe  Fe364     1.0  0.73009  0.92943  0.46721  1.0000
  C   C2533     1.0  0.92759  0.72382  0.32463  1.0000
  S   S731      1.0  0.99652  0.77777  0.41086  1.0000
  Fe  Fe365     1.0  0.96719  0.68577  0.33679  1.0000
  N   N181      1.0  0.99766  0.74225  0.32286  1.0000
  S   S732      1.0  0.88532  0.83814  0.45519  1.0000
  C   C2534     1.0  0.97643  0.80806  0.43788  1.0000
  Fe  Fe366     1.0  0.93615  0.85200  0.44299  1.0000
  H   H4329     1.0  0.75389  0.96360  0.41392  1.0000
  H   H4330     1.0  0.77478  0.94250  0.39964  1.0000
  H   H4331     1.0  0.92286  0.71874  0.31881  1.0000
  C   C2535     1.0  0.88943  0.68753  0.46977  1.0000
  S   S733      1.0  0.91131  0.76166  0.47444  1.0000
  H   H4332     1.0  0.86676  0.93269  0.46601  1.0000
  H   H4333     1.0  0.92583  0.68451  0.47110  1.0000
  C   C2536     1.0  0.75977  0.96400  0.42224  1.0000
  H   H4334     1.0  0.97513  0.77480  0.47995  1.0000
  H   H4335     1.0  0.97642  0.81999  0.43415  1.0000
  H   H4336     1.0  0.74356  0.89226  0.41352  1.0000
  C   C2537     1.0  0.96194  0.80607  0.44942  1.0000
  H   H4337     1.0  0.93502  0.79477  0.46213  1.0000
  C   C2538     1.0  0.74001  0.90169  0.41873  1.0000
  H   H4338     1.0  0.93982  0.69638  0.35879  1.0000
  H   H4339     1.0  0.77121  0.91953  0.43900  1.0000
  H   H4340     1.0  0.74992  0.89004  0.43752  1.0000
  C   C2539     1.0  0.97706  0.69982  0.43435  1.0000
  H   H4341     1.0  0.99068  0.86035  0.40783  1.0000
  C   C2540     1.0  0.96472  0.81542  0.36885  1.0000
  H   H4342     1.0  0.61627  0.97668  0.31440  1.0000
  S   S734      1.0  0.54097  0.99114  0.26200  1.0000
  C   C2541     1.0  0.77591  0.95452  0.42012  1.0000
  C   C2542     1.0  0.77457  0.91947  0.40875  1.0000
  H   H4343     1.0  0.62495  0.98493  0.32376  1.0000
  H   H4344     1.0  0.98128  0.77760  0.44694  1.0000
  H   H4345     1.0  0.87824  0.89171  0.43459  1.0000
  H   H4346     1.0  0.94515  0.67977  0.27552  1.0000
  H   H4347     1.0  0.96270  0.80976  0.45908  1.0000
  C   C2543     1.0  0.96447  0.80272  0.39470  1.0000
  Fe  Fe367     1.0  0.83145  0.95881  0.42098  1.0000
  N   N182      1.0  0.77755  0.93811  0.42214  1.0000
  C   C2544     1.0  0.76926  0.93176  0.43723  1.0000
  S   S735      1.0  0.84029  0.93506  0.41865  1.0000
  C   C2545     1.0  0.52741  0.94262  0.24806  1.0000
  Fe  Fe368     1.0  0.90511  0.84838  0.44529  1.0000
  N   N183      1.0  0.95900  0.79073  0.45355  1.0000
  C   C2546     1.0  0.69517  0.98031  0.30910  1.0000
  C   C2547     1.0  0.50220  0.93712  0.27378  1.0000
  C   C2548     1.0  0.77325  0.93470  0.45052  1.0000
  H   H4348     1.0  0.78164  0.95686  0.42753  1.0000
  H   H4349     1.0  0.69551  0.90412  0.44708  1.0000
  H   H4350     1.0  0.66954  0.97741  0.44396  1.0000
  H   H4351     1.0  0.63992  0.97473  0.29424  1.0000
  S   S736      1.0  0.91369  0.86062  0.45675  1.0000
  H   H4352     1.0  0.67977  0.94150  0.42135  1.0000
  C   C2549     1.0  0.88297  0.70171  0.45918  1.0000
  H   H4353     1.0  0.94032  0.77265  0.45120  1.0000
  H   H4354     1.0  0.95322  0.70554  0.45811  1.0000
  H   H4355     1.0  0.90018  0.78164  0.40834  1.0000
  C   C2550     1.0  0.97023  0.82646  0.35479  1.0000
  C   C2551     1.0  0.77314  0.98564  0.38821  1.0000
  H   H4356     1.0  0.96556  0.69853  0.43558  1.0000
  H   H4357     1.0  0.78184  0.97057  0.45570  1.0000
  C   C2552     1.0  0.97251  0.77890  0.45709  1.0000
  H   H4358     1.0  0.65038  0.97643  0.44976  1.0000
  H   H4359     1.0  0.95266  0.83317  0.38772  1.0000
  H   H4360     1.0  0.70385  0.97698  0.34715  1.0000
  S   S737      1.0  0.96240  0.66414  0.35067  1.0000
  H   H4361     1.0  0.94648  0.71906  0.44269  1.0000
  S   S738      1.0  0.73485  0.95194  0.46264  1.0000
  C   C2553     1.0  0.98342  0.74960  0.31731  1.0000
  H   H4362     1.0  0.98092  0.82764  0.40028  1.0000
  S   S739      1.0  0.95952  0.66913  0.39126  1.0000
  Fe  Fe369     1.0  0.70990  0.96016  0.46605  1.0000
  H   H4363     1.0  0.99079  0.74095  0.42135  1.0000
  Fe  Fe370     1.0  0.53648  0.98011  0.28600  1.0000
  H   H4364     1.0  0.83423  0.94969  0.47497  1.0000
  H   H4365     1.0  0.88840  0.70123  0.44748  1.0000
  H   H4366     1.0  0.90916  0.70807  0.44848  1.0000
  C   C2554     1.0  0.96171  0.74674  0.48655  1.0000
  C   C2555     1.0  0.71496  0.87908  0.44881  1.0000
  H   H4367     1.0  0.97130  0.66044  0.24656  1.0000
  H   H4368     1.0  0.85311  0.89619  0.48696  1.0000
  H   H4369     1.0  0.96968  0.83802  0.37773  1.0000
  H   H4370     1.0  0.96618  0.82528  0.34547  1.0000
  C   C2556     1.0  0.98946  0.85470  0.41933  1.0000
  C   C2557     1.0  0.92407  0.69823  0.38008  1.0000
  H   H4371     1.0  0.86239  0.82724  0.47745  1.0000
  H   H4372     1.0  0.51412  0.95268  0.27460  1.0000
  H   H4373     1.0  0.97347  0.71649  0.45574  1.0000
  H   H4374     1.0  0.65735  0.96798  0.47440  1.0000
  H   H4375     1.0  0.59012  0.98195  0.33326  1.0000
  H   H4376     1.0  0.91250  0.69674  0.38432  1.0000
  C   C2558     1.0  0.69496  0.95559  0.43210  1.0000
  C   C2559     1.0  0.87287  0.81950  0.47887  1.0000
  H   H4377     1.0  0.99744  0.70948  0.44109  1.0000
  C   C2560     1.0  0.71517  0.88464  0.46236  1.0000
  H   H4378     1.0  0.51847  0.93506  0.28624  1.0000
  H   H4379     1.0  0.93176  0.69735  0.40540  1.0000
  H   H4380     1.0  0.89997  0.71751  0.40815  1.0000
  H   H4381     1.0  0.76619  0.92966  0.46088  1.0000
  H   H4382     1.0  0.92261  0.71011  0.35710  1.0000
  H   H4383     1.0  0.90802  0.70367  0.42204  1.0000
  H   H4384     1.0  0.91610  0.73405  0.38529  1.0000
  C   C2561     1.0  0.96542  0.66260  0.41889  1.0000
  H   H4385     1.0  0.93490  0.79369  0.48823  1.0000
  C   C2562     1.0  0.89979  0.79915  0.48239  1.0000
  C   C2563     1.0  0.90085  0.72606  0.37807  1.0000
  H   H4386     1.0  0.98077  0.69310  0.44465  1.0000
  H   H4387     1.0  0.68734  0.97827  0.42121  1.0000
  H   H4388     1.0  0.96346  0.82298  0.41081  1.0000
  H   H4389     1.0  0.92234  0.73031  0.36737  1.0000
  C   C2564     1.0  0.94272  0.71153  0.37869  1.0000
  H   H4390     1.0  0.75828  0.96213  0.46816  1.0000
  H   H4391     1.0  0.70524  0.87420  0.45063  1.0000
  S   S740      1.0  0.97413  0.69170  0.35442  1.0000
  S   S741      1.0  0.96246  0.80016  0.33535  1.0000
  C   C2565     1.0  0.90802  0.70667  0.41003  1.0000
  Fe  Fe371     1.0  0.80701  0.98568  0.41312  1.0000
  H   H4392     1.0  0.55939  0.91633  0.25738  1.0000
  C   C2566     1.0  0.91627  0.68809  0.46536  1.0000
  H   H4393     1.0  0.95426  0.79361  0.48367  1.0000
  H   H4394     1.0  0.98509  0.65871  0.25651  1.0000
  N   N184      1.0  0.92648  0.71100  0.38472  1.0000
  H   H4395     1.0  0.94884  0.72018  0.39478  1.0000
  H   H4396     1.0  0.58715  0.98147  0.39143  1.0000
  H   H4397     1.0  0.77087  0.94667  0.45035  1.0000
  H   H4398     1.0  0.96552  0.83810  0.35600  1.0000
  C   C2567     1.0  0.94805  0.72319  0.38299  1.0000
  C   C2568     1.0  0.94411  0.79701  0.47907  1.0000
  H   H4399     1.0  0.95951  0.72360  0.37650  1.0000
  H   H4400     1.0  0.94095  0.73447  0.38043  1.0000
  H   H4401     1.0  0.78501  0.92947  0.45133  1.0000
  H   H4402     1.0  0.94430  0.81505  0.40793  1.0000
  C   C2569     1.0  0.82008  0.92559  0.45532  1.0000
  H   H4403     1.0  0.92629  0.71671  0.40510  1.0000
  H   H4404     1.0  0.98079  0.77357  0.31521  1.0000
  H   H4405     1.0  0.82168  0.91259  0.48458  1.0000
  H   H4406     1.0  0.99120  0.80791  0.38983  1.0000
  H   H4407     1.0  0.94532  0.71398  0.36641  1.0000
  H   H4408     1.0  0.95014  0.70056  0.38215  1.0000
  H   H4409     1.0  0.90420  0.69790  0.40766  1.0000
  H   H4410     1.0  0.51778  0.98049  0.32133  1.0000
  C   C2570     1.0  0.91691  0.72577  0.37884  1.0000
  N   N185      1.0  0.70092  0.89468  0.46875  1.0000
  H   H4411     1.0  0.89585  0.71714  0.38591  1.0000
  H   H4412     1.0  0.97921  0.79214  0.46898  1.0000
  H   H4413     1.0  0.80154  0.98059  0.34168  1.0000
  S   S742      1.0  0.62938  0.96091  0.47630  1.0000
  H   H4414     1.0  0.68177  0.92393  0.46989  1.0000
  H   H4415     1.0  0.68764  0.95614  0.44316  1.0000
  C   C2571     1.0  0.98623  0.84015  0.44900  1.0000
  H   H4416     1.0  0.71360  0.90609  0.47555  1.0000
  C   C2572     1.0  0.68224  0.91921  0.46045  1.0000
  C   C2573     1.0  0.77869  0.96801  0.46763  1.0000
  C   C2574     1.0  0.82861  0.93490  0.45930  1.0000
  H   H4417     1.0  0.99189  0.82007  0.37228  1.0000
  C   C2575     1.0  0.78711  0.98532  0.39041  1.0000
  N   N186      1.0  0.83621  0.92754  0.47214  1.0000
  H   H4418     1.0  0.97346  0.73268  0.34398  1.0000
  H   H4419     1.0  0.60698  0.97859  0.38551  1.0000
  C   C2576     1.0  0.97774  0.66327  0.30092  1.0000
  S   S743      1.0  0.69623  0.98059  0.45415  1.0000
  Fe  Fe372     1.0  0.62449  0.98512  0.47655  1.0000
  H   H4420     1.0  0.77372  0.98353  0.34893  1.0000
  S   S744      1.0  0.58217  0.97195  0.24512  1.0000
  H   H4421     1.0  0.64783  0.98303  0.30354  1.0000
  H   H4422     1.0  0.98413  0.73646  0.39908  1.0000
  C   C2577     1.0  0.98351  0.73008  0.34859  1.0000
  H   H4423     1.0  0.60252  0.98979  0.28174  1.0000
  H   H4424     1.0  0.65622  0.98864  0.43292  1.0000
  C   C2578     1.0  0.77839  0.99075  0.33851  1.0000
  H   H4425     1.0  0.91824  0.67991  0.45839  1.0000
  H   H4426     1.0  0.68130  0.92866  0.45083  1.0000
  H   H4427     1.0  0.99147  0.71685  0.40311  1.0000
  C   C2579     1.0  0.59624  0.98605  0.38318  1.0000
  H   H4428     1.0  0.97029  0.67542  0.25460  1.0000
  C   C2580     1.0  0.68881  0.88605  0.47471  1.0000
  H   H4429     1.0  0.97775  0.80396  0.42784  1.0000
  C   C2581     1.0  0.99476  0.79711  0.37209  1.0000
  H   H4430     1.0  0.99207  0.77551  0.46618  1.0000
  H   H4431     1.0  0.63283  0.96661  0.32091  1.0000
  H   H4432     1.0  0.94522  0.77785  0.47117  1.0000
  Fe  Fe373     1.0  0.56129  0.98996  0.29285  1.0000
  C   C2582     1.0  0.62702  0.97781  0.31578  1.0000
  H   H4433     1.0  0.84470  0.93564  0.48659  1.0000
  H   H4434     1.0  0.92291  0.65882  0.47714  1.0000
  H   H4435     1.0  0.80397  0.93777  0.48228  1.0000
  H   H4436     1.0  0.69360  0.87439  0.47984  1.0000
  S   S745      1.0  0.99125  0.69067  0.46968  1.0000
  H   H4437     1.0  0.81118  0.92201  0.46461  1.0000
  C   C2583     1.0  0.99266  0.79737  0.32770  1.0000
  C   C2584     1.0  0.82533  0.92211  0.48581  1.0000
  H   H4438     1.0  0.86941  0.90158  0.47419  1.0000
  H   H4439     1.0  0.79472  0.97152  0.33200  1.0000
  H   H4440     1.0  0.99091  0.78696  0.37864  1.0000
  H   H4441     1.0  0.64409  0.99115  0.27221  1.0000
  H   H4442     1.0  0.62125  0.98846  0.27125  1.0000
  C   C2585     1.0  0.97673  0.65834  0.28734  1.0000
  H   H4443     1.0  0.67846  0.95459  0.48638  1.0000
  H   H4444     1.0  0.95890  0.70092  0.48772  1.0000
  Fe  Fe374     1.0  0.73089  0.94808  0.48731  1.0000
  H   H4445     1.0  0.67795  0.98679  0.34339  1.0000
  H   H4446     1.0  0.69278  0.98129  0.29846  1.0000
  C   C2586     1.0  0.91112  0.65941  0.48319  1.0000
  C   C2587     1.0  0.85772  0.90577  0.47985  1.0000
  S   S746      1.0  0.57324  0.98554  0.31170  1.0000
  C   C2588     1.0  0.68367  0.98489  0.32063  1.0000
  H   H4447     1.0  0.99256  0.74937  0.34367  1.0000
  C   C2589     1.0  0.67533  0.89183  0.48657  1.0000
  C   C2590     1.0  0.61434  0.98778  0.28263  1.0000
  H   H4448     1.0  0.77228  0.99064  0.33022  1.0000
  H   H4449     1.0  0.50935  0.91474  0.71189  1.0000
  H   H4450     1.0  0.65723  0.97144  0.52831  1.0000
  H   H4451     1.0  0.68649  0.98006  0.50665  1.0000
  H   H4452     1.0  0.96573  0.80950  0.50464  1.0000
  H   H4453     1.0  0.61461  0.96286  0.51985  1.0000
  C   C2591     1.0  0.93912  0.67570  0.50184  1.0000
  H   H4454     1.0  0.62990  0.93907  0.52616  1.0000
  H   H4455     1.0  0.98224  0.82857  0.50889  1.0000
  C   C2592     1.0  0.98390  0.74181  0.49612  1.0000
  C   C2593     1.0  0.96334  0.71406  0.52200  1.0000
  C   C2594     1.0  0.96139  0.75815  0.50629  1.0000
  H   H4456     1.0  0.94563  0.71046  0.54192  1.0000
  H   H4457     1.0  0.88105  0.71253  0.49994  1.0000
  C   C2595     1.0  0.61527  0.96444  0.53072  1.0000
  H   H4458     1.0  0.65651  0.91868  0.50769  1.0000
  H   H4459     1.0  0.86250  0.80467  0.49734  1.0000
  H   H4460     1.0  0.97657  0.69236  0.54076  1.0000
  H   H4461     1.0  0.88413  0.69299  0.50587  1.0000
  H   H4462     1.0  0.63537  0.91974  0.54705  1.0000
  C   C2596     1.0  0.62781  0.97825  0.54793  1.0000
  C   C2597     1.0  0.98712  0.82667  0.49746  1.0000
  C   C2598     1.0  0.93495  0.66226  0.50889  1.0000
  N   N187      1.0  0.63100  0.95831  0.53321  1.0000
  C   C2599     1.0  0.98852  0.80049  0.50921  1.0000
  H   H4463     1.0  0.99554  0.69189  0.50630  1.0000
  C   C2600     1.0  0.53688  0.97839  0.64484  1.0000
  S   S747      1.0  0.88578  0.78038  0.50581  1.0000
  C   C2601     1.0  0.98847  0.70193  0.51035  1.0000
  H   H4464     1.0  0.63528  0.93213  0.49529  1.0000
  H   H4465     1.0  0.97647  0.79381  0.49635  1.0000
  H   H4466     1.0  0.94884  0.67598  0.49288  1.0000
  C   C2602     1.0  0.96183  0.70630  0.49503  1.0000
  H   H4467     1.0  0.64099  0.93125  0.55526  1.0000
  H   H4468     1.0  0.94217  0.76078  0.49729  1.0000
  S   S748      1.0  0.51880  0.96014  0.71033  1.0000
  S   S749      1.0  0.74455  0.95400  0.49965  1.0000
  C   C2603     1.0  0.53185  0.97806  0.66003  1.0000
  Fe  Fe375     1.0  0.53179  0.95871  0.72695  1.0000
  H   H4469     1.0  0.93340  0.69927  0.50053  1.0000
  S   S750      1.0  0.54813  0.97127  0.71093  1.0000
  H   H4470     1.0  0.99193  0.71706  0.52218  1.0000
  C   C2604     1.0  0.52693  0.98491  0.63522  1.0000
  C   C2605     1.0  0.65703  0.96431  0.52108  1.0000
  C   C2606     1.0  0.87291  0.80672  0.49009  1.0000
  H   H4471     1.0  0.93980  0.72515  0.52694  1.0000
  Fe  Fe376     1.0  0.89897  0.75975  0.49798  1.0000
  H   H4472     1.0  0.94223  0.70655  0.52600  1.0000
  H   H4473     1.0  0.90392  0.67489  0.53363  1.0000
  H   H4474     1.0  0.54854  0.97400  0.64045  1.0000
  C   C2607     1.0  0.91377  0.67513  0.52480  1.0000
  C   C2608     1.0  0.88630  0.79643  0.49178  1.0000
  C   C2609     1.0  0.64089  0.96570  0.51979  1.0000
  H   H4475     1.0  0.98521  0.80369  0.52013  1.0000
  H   H4476     1.0  0.67585  0.88448  0.49765  1.0000
  C   C2610     1.0  0.66890  0.93574  0.49789  1.0000
  H   H4477     1.0  0.76674  0.95971  0.51045  1.0000
  C   C2611     1.0  0.50678  0.98973  0.65614  1.0000
  H   H4478     1.0  0.98795  0.71073  0.50017  1.0000
  C   C2612     1.0  0.88318  0.70215  0.49599  1.0000
  H   H4479     1.0  0.98325  0.66547  0.54212  1.0000
  H   H4480     1.0  0.64391  0.95697  0.54920  1.0000
  C   C2613     1.0  0.98414  0.67303  0.53105  1.0000
  C   C2614     1.0  0.71251  0.98601  0.51117  1.0000
  C   C2615     1.0  0.63554  0.94185  0.53346  1.0000
  H   H4481     1.0  0.72092  0.88163  0.49040  1.0000
  S   S751      1.0  0.90577  0.70510  0.52217  1.0000
  H   H4482     1.0  0.96784  0.71770  0.52960  1.0000
  Fe  Fe377     1.0  0.90781  0.72628  0.50535  1.0000
  H   H4483     1.0  0.51567  0.92755  0.71755  1.0000
  H   H4484     1.0  0.91142  0.67497  0.49524  1.0000
  H   H4485     1.0  0.63603  0.97770  0.51654  1.0000
  H   H4486     1.0  0.80444  0.92890  0.50106  1.0000
  C   C2616     1.0  0.51676  0.98357  0.66569  1.0000
  S   S752      1.0  0.88776  0.74225  0.49771  1.0000
  H   H4487     1.0  0.51281  0.98327  0.67738  1.0000
  H   H4488     1.0  0.99601  0.67377  0.52707  1.0000
  H   H4489     1.0  0.83084  0.91761  0.49545  1.0000
  C   C2617     1.0  0.77003  0.96199  0.49850  1.0000
  H   H4490     1.0  0.59190  0.96427  0.53982  1.0000
  Fe  Fe378     1.0  0.53368  0.97459  0.69488  1.0000
  H   H4491     1.0  0.51686  0.93914  0.69327  1.0000
  S   S753      1.0  0.51704  0.97856  0.73515  1.0000
  H   H4492     1.0  0.71617  0.97674  0.50522  1.0000
  H   H4493     1.0  0.95559  0.76557  0.51376  1.0000
  H   H4494     1.0  0.50019  0.94218  0.73433  1.0000
  H   H4495     1.0  0.66282  0.95275  0.52511  1.0000
  H   H4496     1.0  0.69948  0.97030  0.52613  1.0000
  H   H4497     1.0  0.99504  0.73545  0.49670  1.0000
  H   H4498     1.0  0.95176  0.71469  0.49866  1.0000
  S   S754      1.0  0.68400  0.92633  0.50641  1.0000
  C   C2618     1.0  0.96693  0.69441  0.50821  1.0000
  H   H4499     1.0  0.99591  0.78915  0.51096  1.0000
  H   H4500     1.0  0.96353  0.72331  0.51216  1.0000
  C   C2619     1.0  0.60292  0.95787  0.54239  1.0000
  H   H4501     1.0  0.60262  0.95874  0.55372  1.0000
  C   C2620     1.0  0.70173  0.98109  0.52587  1.0000
  S   S755      1.0  0.98698  0.75641  0.51520  1.0000
  C   C2621     1.0  0.94690  0.71387  0.52972  1.0000
  Fe  Fe379     1.0  0.50506  0.98104  0.71744  1.0000
  H   H4502     1.0  0.63465  0.98039  0.55446  1.0000
  C   C2622     1.0  0.95385  0.75554  0.49690  1.0000
  H   H4503     1.0  0.64762  0.93826  0.52860  1.0000
  C   C2623     1.0  0.92238  0.66197  0.52048  1.0000
  C   C2624     1.0  0.97353  0.68822  0.53249  1.0000
  H   H4504     1.0  0.97546  0.68548  0.50334  1.0000
  C   C2625     1.0  0.63306  0.93122  0.54871  1.0000
  S   S756      1.0  0.91780  0.74377  0.50771  1.0000
  S   S757      1.0  0.54462  0.97155  0.67173  1.0000
  N   N188      1.0  0.97305  0.69967  0.51828  1.0000
  H   H4505     1.0  0.96221  0.68604  0.53778  1.0000
  C   C2626     1.0  0.97410  0.79885  0.50607  1.0000
  H   H4506     1.0  0.62150  0.93378  0.55521  1.0000
  C   C2627     1.0  0.97659  0.75155  0.50557  1.0000
  H   H4507     1.0  0.95740  0.68919  0.51442  1.0000
  C   C2628     1.0  0.50563  0.93678  0.69845  1.0000
  C   C2629     1.0  0.93033  0.68890  0.50605  1.0000
  C   C2630     1.0  0.91755  0.68867  0.51740  1.0000
  H   H4508     1.0  0.62541  0.95609  0.55705  1.0000
  H   H4509     1.0  0.66357  0.96836  0.50995  1.0000
  H   H4510     1.0  0.64154  0.96137  0.50997  1.0000
  C   C2631     1.0  0.63242  0.96171  0.54711  1.0000
  H   H4511     1.0  0.61193  0.97665  0.52988  1.0000
  H   H4512     1.0  0.62978  0.98585  0.53702  1.0000
  H   H4513     1.0  0.96890  0.79113  0.51567  1.0000
  H   H4514     1.0  0.98862  0.84962  0.49343  1.0000
  N   N189      1.0  0.99675  0.81122  0.49757  1.0000
  H   H4515     1.0  0.50335  0.93137  0.69074  1.0000
  H   H4516     1.0  0.60384  0.94626  0.54193  1.0000
  C   C2632     1.0  0.64476  0.93697  0.49332  1.0000
  H   H4517     1.0  0.72283  0.98653  0.51414  1.0000
  C   C2633     1.0  0.65671  0.92941  0.50037  1.0000
  C   C2634     1.0  0.99731  0.70613  0.51924  1.0000
  Fe  Fe380     1.0  0.70362  0.93539  0.49216  1.0000
  H   H4518     1.0  0.70707  0.97923  0.53535  1.0000
  H   H4519     1.0  0.97710  0.82814  0.49296  1.0000
  H   H4520     1.0  0.70927  0.89345  0.50246  1.0000
  H   H4521     1.0  0.70169  0.88033  0.49851  1.0000
  C   C2635     1.0  0.70931  0.88800  0.49363  1.0000
  H   H4522     1.0  0.78999  0.96837  0.49813  1.0000
  H   H4523     1.0  0.98107  0.66780  0.52372  1.0000
  H   H4524     1.0  0.61579  0.98138  0.55320  1.0000
  C   C2636     1.0  0.50616  0.92623  0.71378  1.0000
  H   H4525     1.0  0.81400  0.94354  0.49239  1.0000
  H   H4526     1.0  0.89340  0.67265  0.49640  1.0000
  H   H4527     1.0  0.87336  0.70273  0.49165  1.0000
  S   S758      1.0  0.72781  0.92487  0.49173  1.0000
  C   C2637     1.0  0.76112  0.95996  0.49016  1.0000
  H   H4528     1.0  0.53089  0.98556  0.62344  1.0000
  C   C2638     1.0  0.51192  0.99080  0.64091  1.0000
  C   C2639     1.0  0.78320  0.96690  0.49152  1.0000
  H   H4529     1.0  0.58018  0.99044  0.64241  1.0000
  S   S759      1.0  0.51517  0.99010  0.58975  1.0000
  C   C2640     1.0  0.81122  0.93388  0.49049  1.0000
  S   S760      1.0  0.70630  0.95811  0.49042  1.0000
  H   H4530     1.0  0.69087  0.98898  0.52803  1.0000
  H   H4531     1.0  0.73864  0.98588  0.48998  1.0000
  H   H4532     1.0  0.52998  0.67988  0.91090  1.0000
  H   H4533     1.0  0.55134  0.71136  0.91704  1.0000
  H   H4534     1.0  0.51574  0.91457  0.74075  1.0000
  H   H4535     1.0  0.56885  0.68645  0.93786  1.0000
  H   H4536     1.0  0.52123  0.72694  0.84691  1.0000
  H   H4537     1.0  0.52291  0.88283  0.86383  1.0000
  C   C2641     1.0  0.52810  0.98259  0.76581  1.0000
  C   C2642     1.0  0.53416  0.66464  0.98178  1.0000
  C   C2643     1.0  0.51976  0.69469  0.95485  1.0000
  H   H4538     1.0  0.57526  0.69341  0.91857  1.0000
  H   H4539     1.0  0.50457  0.96657  0.80890  1.0000
  C   C2644     1.0  0.53047  0.92235  0.77089  1.0000
  H   H4540     1.0  0.50751  0.69991  0.85885  1.0000
  C   C2645     1.0  0.54290  0.73501  0.98158  1.0000
  H   H4541     1.0  0.57504  0.66930  0.88622  1.0000
  H   H4542     1.0  0.52642  0.88278  0.84481  1.0000
  H   H4543     1.0  0.52661  0.68547  0.88226  1.0000
  H   H4544     1.0  0.51753  0.70693  0.82829  1.0000
  C   C2646     1.0  0.56581  0.69237  0.88671  1.0000
  H   H4545     1.0  0.52442  0.91049  0.79330  1.0000
  H   H4546     1.0  0.56308  0.75739  0.97849  1.0000
  Fe  Fe381     1.0  0.53191  0.73820  0.88383  1.0000
  H   H4547     1.0  0.57583  0.69581  0.87996  1.0000
  C   C2647     1.0  0.51142  0.94302  0.76209  1.0000
  H   H4548     1.0  0.54460  0.67284  0.86417  1.0000
  H   H4549     1.0  0.51372  0.94785  0.80744  1.0000
  H   H4550     1.0  0.53361  0.97982  0.79770  1.0000
  C   C2648     1.0  0.55599  0.69903  0.96108  1.0000
  H   H4551     1.0  0.52558  0.82015  0.84032  1.0000
  C   C2649     1.0  0.52074  0.91958  0.78463  1.0000
  C   C2650     1.0  0.50854  0.95883  0.80127  1.0000
  C   C2651     1.0  0.51580  0.80686  0.86057  1.0000
  C   C2652     1.0  0.50632  0.92848  0.78718  1.0000
  H   H4552     1.0  0.53382  0.71339  0.96233  1.0000
  H   H4553     1.0  0.51683  0.98423  0.81137  1.0000
  S   S761      1.0  0.52561  0.74849  0.86186  1.0000
  H   H4554     1.0  0.53573  0.74055  0.93720  1.0000
  H   H4555     1.0  0.52468  0.71892  0.92633  1.0000
  H   H4556     1.0  0.50292  0.71801  0.83997  1.0000
  C   C2653     1.0  0.52589  0.93411  0.75962  1.0000
  H   H4557     1.0  0.55120  0.98408  0.75763  1.0000
  C   C2654     1.0  0.50804  0.90081  0.85132  1.0000
  C   C2655     1.0  0.55428  0.71171  0.85040  1.0000
  H   H4558     1.0  0.53052  0.70651  0.90399  1.0000
  C   C2656     1.0  0.51440  0.71693  0.83304  1.0000
  C   C2657     1.0  0.56513  0.69206  0.92739  1.0000
  Fe  Fe382     1.0  0.50410  0.75579  0.90019  1.0000
  H   H4559     1.0  0.51062  0.70151  0.94929  1.0000
  H   H4560     1.0  0.55491  0.68761  0.96234  1.0000
  H   H4561     1.0  0.54275  0.73607  0.91899  1.0000
  C   C2658     1.0  0.50446  0.91377  0.74756  1.0000
  C   C2659     1.0  0.50164  0.94022  0.77588  1.0000
  H   H4562     1.0  0.53575  0.71965  0.83303  1.0000
  H   H4563     1.0  0.53083  0.96143  0.79092  1.0000
  C   C2660     1.0  0.55248  0.67284  0.89899  1.0000
  H   H4564     1.0  0.54335  0.69430  0.83374  1.0000
  H   H4565     1.0  0.54827  0.72129  0.95075  1.0000
  C   C2661     1.0  0.53328  0.73633  0.92870  1.0000
  C   C2662     1.0  0.55314  0.70297  0.89132  1.0000
  S   S762      1.0  0.50980  0.72127  0.98808  1.0000
  S   S763      1.0  0.52242  0.79070  0.85341  1.0000
  H   H4566     1.0  0.51908  0.69861  0.96486  1.0000
  H   H4567     1.0  0.52542  0.66349  0.97730  1.0000
  H   H4568     1.0  0.56744  0.70016  0.95505  1.0000
  C   C2663     1.0  0.56537  0.67739  0.89026  1.0000
  C   C2664     1.0  0.51896  0.82011  0.85142  1.0000
  C   C2665     1.0  0.52880  0.72126  0.93506  1.0000
  Fe  Fe383     1.0  0.51829  0.76987  0.86956  1.0000
  H   H4569     1.0  0.55119  0.72377  0.84569  1.0000
  C   C2666     1.0  0.50730  0.80682  0.87499  1.0000
  C   C2667     1.0  0.54025  0.69844  0.90017  1.0000
  H   H4570     1.0  0.54163  0.91541  0.76900  1.0000
  C   C2668     1.0  0.52012  0.96389  0.78742  1.0000
  H   H4571     1.0  0.53350  0.69239  0.93356  1.0000
  S   S764      1.0  0.53853  0.93732  0.74265  1.0000
  C   C2669     1.0  0.51727  0.88465  0.85458  1.0000
  H   H4572     1.0  0.53442  0.71461  0.86748  1.0000
  H   H4573     1.0  0.52370  0.74464  0.92475  1.0000
  C   C2670     1.0  0.54409  0.71099  0.95371  1.0000
  C   C2671     1.0  0.55456  0.70746  0.92796  1.0000
  C   C2672     1.0  0.54052  0.70618  0.86066  1.0000
  H   H4574     1.0  0.51108  0.87591  0.85686  1.0000
  C   C2673     1.0  0.54328  0.98249  0.76852  1.0000
  H   H4575     1.0  0.55442  0.70026  0.97259  1.0000
  C   C2674     1.0  0.51773  0.68658  0.87646  1.0000
  H   H4576     1.0  0.51961  0.67654  0.87205  1.0000
  H   H4577     1.0  0.54642  0.76723  0.98910  1.0000
  C   C2675     1.0  0.51611  0.70068  0.86420  1.0000
  H   H4578     1.0  0.51322  0.90736  0.85559  1.0000
  H   H4579     1.0  0.54284  0.68443  0.94832  1.0000
  H   H4580     1.0  0.56279  0.71015  0.85692  1.0000
  H   H4581     1.0  0.54471  0.69619  0.86868  1.0000
  H   H4582     1.0  0.55956  0.70570  0.84128  1.0000
  H   H4583     1.0  0.55439  0.73673  0.97718  1.0000
  C   C2676     1.0  0.53733  0.69044  0.84525  1.0000
  H   H4584     1.0  0.51017  0.90489  0.83908  1.0000
  H   H4585     1.0  0.54324  0.72296  0.98477  1.0000
  S   S765      1.0  0.50961  0.73310  0.89525  1.0000
  H   H4586     1.0  0.52226  0.95618  0.77989  1.0000
  H   H4587     1.0  0.53034  0.97419  0.75902  1.0000
  C   C2677     1.0  0.54002  0.68333  0.90424  1.0000
  H   H4588     1.0  0.56137  0.71511  0.92800  1.0000
  H   H4589     1.0  0.51639  0.84343  0.84949  1.0000
  S   S766      1.0  0.52759  0.66065  0.94118  1.0000
  H   H4590     1.0  0.52860  0.68555  0.84397  1.0000
  C   C2678     1.0  0.52581  0.71715  0.84165  1.0000
  H   H4591     1.0  0.50490  0.79658  0.88214  1.0000
  S   S767      1.0  0.55376  0.72175  0.88556  1.0000
  N   N190      1.0  0.53017  0.70325  0.85297  1.0000
  S   S768      1.0  0.52700  0.76000  0.89033  1.0000
  H   H4592     1.0  0.51762  0.68340  0.95857  1.0000
  C   C2679     1.0  0.50188  0.98129  0.77391  1.0000
  C   C2680     1.0  0.53491  0.69448  0.94389  1.0000
  H   H4593     1.0  0.51888  0.72314  0.94422  1.0000
  N   N191      1.0  0.54080  0.70830  0.94033  1.0000
  H   H4594     1.0  0.55985  0.68476  0.92430  1.0000
  H   H4595     1.0  0.55931  0.68088  0.85150  1.0000
  H   H4596     1.0  0.53672  0.73966  0.97245  1.0000
  C   C2681     1.0  0.51376  0.83327  0.85661  1.0000
  H   H4597     1.0  0.50714  0.68705  0.88493  1.0000
  C   C2682     1.0  0.54885  0.67754  0.85241  1.0000
  H   H4598     1.0  0.50373  0.97305  0.76704  1.0000
  H   H4599     1.0  0.51103  0.71025  0.86975  1.0000
  C   C2683     1.0  0.50507  0.83338  0.87088  1.0000
  C   C2684     1.0  0.52286  0.98786  0.79985  1.0000
  Fe  Fe384     1.0  0.50275  0.74529  0.87380  1.0000
  H   H4600     1.0  0.54831  0.97180  0.77516  1.0000
  C   C2685     1.0  0.50182  0.82014  0.88013  1.0000
  N   N192      1.0  0.51586  0.97975  0.77927  1.0000
  H   H4601     1.0  0.51389  0.72673  0.82370  1.0000
  H   H4602     1.0  0.50771  0.95194  0.75334  1.0000
  H   H4603     1.0  0.50047  0.92224  0.75443  1.0000
  H   H4604     1.0  0.55198  0.66838  0.84641  1.0000
  H   H4605     1.0  0.50575  0.89670  0.88150  1.0000
  H   H4606     1.0  0.50566  0.90282  0.75537  1.0000
  H   H4607     1.0  0.57967  0.66015  0.92454  1.0000
  C   C2686     1.0  0.51261  0.99086  0.78883  1.0000
  C   C2687     1.0  0.53163  0.67618  0.98915  1.0000
  C   C2688     1.0  0.55744  0.75963  0.98965  1.0000
  H   H4608     1.0  0.53085  0.75459  0.98988  1.0000
