data_image0
_chemical_formula_structural       NSC2H2FeSH5CS2CFeSHSC2H2FeS2FeS2HFeS2FeS2FeSFeS3FeS2FeS2FeSFeS3FeS2FeS2FeSFeS2C4HC2H2C6H4C6H4C6H5C4H4C7H4C6H4C6H4C6H5CH2CHCHCH2CHC2H2C2H5CHCH3FeH6CH2CHCSFeH3NC8H12CH10C2HC2HC3H6C3H4NH3CH3SH2SH2NH2SC2H4NC8H23C2HCHCH4CFeC2HCH2CHCH2CH2NC8H19CH3CHCH3NH9CH4SH3NCHCH3CHSH6CHFeH2CHFeHCHFeS2HCFeSHSFeS2FeS2FeSFeS3HSCFeS2HSH2FeSHSFeS2FeS2FeSFeS3FeS2FeS2FeSFeS3FeSFeSFeS2HC6H4C3H3C6H4C6H4C2H2C7H4C6H4C6H4C6H4C6H4CH2NC2NC6H4SH7CH3NC4HCH10CH3SC3HCH2NC8H20CHCH6CSCH3C3HNH4CNCNH6CH4SCH4CH3C4H4SHCH3C2HCHCH3CH6CH2C2H13CFeHCH3FeCHCH2FeHC2H3CH8CH2CH3SH2CHCHCHCHCH2CHC5H11CHSHC2HC2NCSHCH9CHNC8H20NC8H20NC8H13CFeH6CHNH3C2SNFeS2FeS3FeCSHCSFeS2FeHFeHFeS3CFeS2FeS2FeSFeS3FeS2FeS2FeSFeS3FeS2FeS2FeSFeS4HC3H3C3HC2H4C6H4CHCH5CHC6H4C6H4CHSH2CHCH2C6H5C6H4CH6C6H4C6H5NC9H7CH2SHCH14C3HCHCH5CH2CNHCHCFeH3CH3CHCHSCH5C2H3CH3NCHCHC2H2CHCHCHNH2SHC3H2SH2CH3CH2NHNC7H16C2HCHCH16CHNC2NHNH4CHCHC3H2CH3CHCH4CH4CHCH2CHCFeHCH2CHCSHC2SCHCH3CH3C2FeHCHSNC8H23CS2HSH2FeH7CFeHCH7CH3CHC3H2CH2CH4FeS2FeSFeSFeS3FeS2FeSFeSFeS3FeSFeS2FeSFeS3FeS2FeHSFeHFeHS2H8C3FeS2FeS2FeSFeHS2HFeS2FeS2FeSFeS3CH2C2H2CH2C6H15CH5C10H4C5H3CH4S2H2NSC7H4C6H4C6H4C6H4C6H4C6H4CHCNC8H20C2HSCH4NC8H20NC8H22NH5NSH2CHCH3C5H9NC8H20NC5H16CH2CH4CHCH2CHCH2NCH5NHC2H2CH3NC2H2C5H7CH2C3H6SCH4CHCH4C2HC4HCHCHCHC3HSH7C2H5CHCH2CH2C2HCH3CH2CH4CH3CHCH4CHFeS2FeSC2SHSFe2S2FeS2FeSFeS3FeS3FeSNC2HFeS2FeS2FeSFeS3FeS2FeS2FeSFeS3FeS2FeSFeS3HCHC2H2C6H4C6H4C6H5CHCHC7H3C6H4C6H4C6H4C6H9C2H2C6H9CH3CHS2H5CH4C3HCH9C2H8CFeH4CH3NH2C3H6SCHCNC6HCH15CH7NC8H20C2H5NC8H21CHFeH3SHS2HFeHCH3CH3CHNCH2CNC8H21NCHC2SH3C2NC4HNHCH2C3H2CH4CHFeHCH2CH2CH5CNH2SCHCNFeC2H2NCHC3SCHC2H4C2H4CH2CHC2H4C2H2CH2CHCH6C3H6CH6C2H7CH7NFeH3CH2SCHCH3CHC2FeS2FeS2FeSFeS3FeS2FeS2FeSFeS3FeS2FeS2FeSFeS3CSH2CHFeS2FeS2FeSFeS3FeS2FeSHFeSFeS3FeS2FeS2FeCFeS3H5C7H4C6H4C6H7NCHCHC2HSH3C6H4C6H4C3H3C7H4C6H4C3H2C6H4C6H4C6H3NC8H20CH5CH3CHCH4CH2CH3C2H2C2HCH2CSC2H2CH2CHCH2SH2C2H4CNHNHC7H8CHCH10NHCH5CH6C2NHC2H4C2HCH2CH3CH2CHNH5CH6CNC8H20C3H2NH4CH4CHCH3NH7C3H15CH3C2H3C2HS2CHSC7H3CH4NHNH5CH7CHCH7NH2CHCH10CHCH5CH4CH2CH7CH2CH3NC8H5CH2CHC2H2FeCHCH4C2H3C2HC4HCH2CSHC2HCH7FeHCHCH2CHSC3HC2HSCSFeSHFeS2FeSFeS3FeS2FeS2FeSFeS3FeS2FeSFeSFeS3HFeS2FeS2FeSFeS3FeS2FeS2FeSFeS2FeSFeS2FeSFeS3C6H2C6H2C8H6C2HCH5CH3C6H4C3H2C6H4C6H4C6H4C6H4C6H7SCH6CH6NH2CHCHCHCH10CHCH4CH4SCH3C3HCH2C2HNHC3HCHC2H2CH3CHCH2CNH4NC8H9SHCH10CNHCNC7HCH3CH6CHCNC2HCHC4H11CH5C2H2C2H4C2HCH3CH2CHC2H4CH3SHC3H12CH2CH2C4HCHCHC2H2NH4NH2CH8CHSCH3C2H3C2HCHCHCNH2C5H9NH3C2H7NH9CH3CHCNH15CHCH2CHCHCH2CH2CH4CH4CH2CH4CH5CHCH6C3NCHCH2CH6CH2CH2CHFeSHFeS2FeHFeS3FeS2HSHFeSFeS3FeSFeS2FeSFeS3CHFeS2FeS2Fe2S3FeS2FeS2FeSFeS2FeS2FeS2FeSFeS2C6H4C6H4C6H11C7H4C6H4C6H8CHCH3C7H4C6H3C5HCH5CH6CHCH9CH3C2HSNC7H16NC8H23CH2NCHC2H3CHC2H3CH2C2HCH3CHSCH4SNH2C4HSH2CH3C2H4FeHCSH6CH7CH2NC8H20NHCHNCH5CH4C2NCH4CNH2CH3C3HCH3CH2C2H3CHCHSH2CH3C3H2CH7CNHCH4C3NC8H20NC2H2CHCH3CSHCH2CH4CH2FeS2FeS2FeSFeS3FeS2FeS2FeSFeS3FeS2FeS2FeSFeS3HCH4FeS2CHFeSH2SCS2FeS2CHCHSHC6H5CHSH2C6H4CHNCHCFeH3C6H4C6H4CH2SC2HC2HC6H4C6H4C6H5CH7FeNHC3HC2HSFeH2NH2CH2C3HCH2SCH2CHC2H2CH2CH7NC7H4CH13NC6H15CHSFeCH3CHCH7C3HCH2NH3C2H5FeC2H2CH3CHCH3S2H8C3H10SHFeSHSFeH2CH2FeH2NC8H20C2HCH3CHNCH2CSFeHCHCHC2HCNC8H14CH2CHNH2CH3SH2CHNC7H3CH6C2H3C2H2CSH5C2H5C2HSH2CH5CHC2HC2H3C2H8NCSCHCH5C2H4CH5SCHCH3CHC2H3CHFeS2FeS2FeSFeS3FeS2FeS2FeSFeS3CSFeS2FeSFeS3FeS2FeS2FeSFeS3HFeS2FeS2FeSFeS3FeS2FeSFeSFeS3C6H4C2H2CH2C6H4C6H12NHC6H4C6H4C6H4C6H4C6H4C6H4CH3CHCHC2H3CHNC8H11SHCH10CHCHNC7H15CN2C4HC3H2CH4CH11C2H7CHNC6H14CHNH3CH4C2HCH2FeC3H2C2HCH3CH2NCHC2H6CH3NC8H20CHCH3C2H2NH11CH6NC8H21CH3C3H5CH3CH3CH2CH2C2HCH7NHCHCH2SC2H3CHCHC2H3C5H3CHCH2CH2CHCHC3H7CH6C2HCNC2H8C2H3CH3NHCH4CHCH5CHFeS2FeS2FeSFeS3FeS2FeS2FeSFeS3FeSFeS2FeSFeS3CFeS2C3S2Fe2S2FeS2FeS2FeS2C6H5CNH5C6H4CSC2HCHCHC6H4C6H4C6H4C6H4C6H4C3H5CHC3H12CHCHCH3NHC2H13C5H2NC6H2CH8CH2CHFeC2HCH2C2NC8H8CH13FeNH2NC8H21CHC3H4CH5CH2C2HCHCH14CH2C2H3NHSH2NH6CH5C3HNSHCSH3FeHSH4C2H14CHC4HC6H3CH3CH7C2H2C2HSHCH4CHCSFeS2FeS2FeSFeS3CS2FeSCFeS2FeH2FeSFeHS2CHFeHSHFeS2FeSFeS3FeS2FeS2FeSFeS3FeS2FeS2FeSFeS3HCH3C2SNH2C6H4C6H4C6H4CHCHCH2CH3C6H5CH2CHC7H6CHC6H4C6H4C6H4C2HC3HCH2NC8H20NH5CH6C2HC2HCHSNCH2C5H4CH10C2HSH6FeHSH2NH8CHNH9NC3H2CH5CHNCHC6H11CH2CH3CHNHC2H3CSH2CH3CH2CH3CH4CHCHCH2CH2CHC2H2C4H2NHCH2CH2CFeC2H2C2H3CH3FeC2H2CH7C3HCH4CH2CH2CH4CNH3CHSHCH3C2NHC3HC2H6NH3CHCH4SHC2HCH2C3H3CH3CH3CHCH5CHSH7CH5SH5CH2CHCHC2H2CHCHC2HFeS2FeS2Fe2S3FeS2FeSFeSFeS3FeSCFeS2FeSFeS3HFeS2FeS2FeSFeS3CH3SH4CH2CFeS2FeS2FeSFeS3FeS2FeSHFeCFeS3CHCHC6H4CHNH2SC2H2CHC3HC7H4C6H4CH2C3H4CH4C6H4C2H2C6H4C6H5C6H4C6H4C6H3NC4HCHCH9CH5SH4C2H4CH4CHCH2NH7SH4CH4CH2CHCH2CH2CHNC7H14CH4C2H3NC8H20NC8H20C2H7CH4CH5CH2CHCHCH2CH4CH2NC8H18C2HSH2CHCH6C3H5NC2H2CH2CHCH4CH8CH2C2NCHNHCHC2HC2H4CHC2H6CH2CHCH4NCH3NCHSH6CH3C3H3FeS2FeS2FeSFeCS2HFeHCFeS2FeSCHSCFeS2FeS2FeSFeS3CFeS2FeS2FeSFeS2FeS2FeS2Fe2S3FeS2FeSFeS3C6H4C6H4C6H8SHFeH2C6H5C2HC6H4C6H4CH6C6H4C6HCH2C6H4C3H2CH2SH3CH2CH2CH3CSHCH2CH2C2H2C2HCH2CH7SC2HCH3CH3CHCH3CH4SH3NC8H19CHC3HSH5N2CH8C2H3CH2CH12CH4CHNC8H20SH2CFeNH3CH2CHCH3NH2CH2NC8H21CHC2HCH4C2HC2H3CH2CHC2H2CNHCH2SH4NH2CH2CNCH2FeS2FeS2FeSFeS3C2S2HFeS2HC2FeSCSH2C2H3SHFe2SFeS2FeS3FeS2FeS2FeSFeS3FeS2FeS2FeSFeS3CFeC2H3C2H4C6H4C6H4C6H4CH2C3H10CHC6H6C6H7C6H4C6H4C6H4C6H2NH3CH4CHNHSH2CHNHC2HCH6CHCH2CHNC2H4CH2C3H3CH5C2H3C2H5C2H6C2H4CH6CH4NC5HC2H12CH5SHNC8H20NC4HC3SH19SH2C2H7NCHC2HC2H7CH3NCHC2NH4CNC2HCH2CH2CFeHCHCH2CH3FeH4C2H11SH2C2H10CHCH6C2H2C2HSC2HCH2C5H2C2H3C2HCH5C2HNFeCH3SCH6CHCH3SH2FeHSH3SFeS2FeS2FeSFeS3FeS2FeS2FeSFeS3FeSCFeSCFeSFeS3CSCHFeS2FeS2FeHFeS3FeS2FeS2Fe2S3FeS2FeS2FeSFeHS2CFeH3CH3NHC6H4C6H4C6H5C2H9C6H5C3HC6H4C6H4C2H3CH3C6H4C5H5C3HCH4CH3CH2C5H5CH2C6H5C2H4C2H2FeCH4NC4H4N2C8H14CH5C2H4CSH4C2HCH5CHSH2CH4C4HC4H3CHC3NH5SNC8H20CHCH3CH4C3H11CH4C2H4CH2CHCSH4CH2CHC3HC5H10CH4CNH2C3SHCH3CH6CSH2CH2NH2CHSH2CHCHNC8H23CHC2HNHNHC3H2C2HFeH6CHC2HSFeH4CH3CNCH3CH13SH2NHCNC2H2C2H5CHC2HC2H3NHC2H2CH2CH3NFeSFeS2FeHFeS2FeS2FeSHS2CHFeSFeSHCHFeS2FeS2FeSFeS3FeS2FeS2FeSFeS3FeS2FeS2FeSFeS3CSCHCH4CSH2C6H7C3SH3C6H4C6H5CHC3H4C6H4CH2C6H4CHC8H7C7H3CH4NC5H2FeH9SH4NH3CHNCH2C3H7CH4C3SH2CH10C2H2CSHCHC4H8CHCHC2H3CH3NCHC4HNH3CHNC6H17NC6HCH4CH5SH9NC6HCH13C3H4NC8H20NC8H13C2HCH6C2H4FeHC2SH3SC2H3CH2CFeHC2H2CHC2H2NCHCH2CH3NSHCH2FeH4CH3CH6SHCH2CH2CH2CH2CH6C2HCHCHFeS2FeS2FeSFeS3H4FeS2FeS2FeSFeS3H2FeSHFeS2FeSFeS3FeS2FeS2FeSFeCS2FeS2FeS2FeSFeS2FeS2FeSFeSFeS3HCHC2H2C6H8C7H4C6H4C6H4NH2CHC6H4C6H2CH6C2H2C6H4C6H3C7H5CH3CH2CH3C3HC2H2SH4CH3CH5C2HC2HCH8CHCH6C2H2CSH2CNHC2HCHCH15NC8H20C3H11C2H3CHC4HCH2CH5SH6CH4CNC8H20NC5H12NC6HCH8C3H2NHCH4NC8H14SHCH2CH2C2H4CHCH4NH5C4HC3HC2H2NCH4SCH12C3HSNH9C2H3CH5C2H2C2HNC2H5FeS2FeSHSH2C3SHCHFeHSHCSC2H3SFeS2FeSFeS3FeS2FeS2FeSFeS3FeS2FeS2FeSFeS3C3SCH5C7H4C6H4C6H4SC3H6CHC2HSH4C6H4NH6C6H4C6HSH3FeHCH3CFeHCHCH6C2H4CH5SNHCH3NC2NC2HCHC3HC2NHCH2CHSH15C2HCH3CHC2H3CHCH2CH3C3HCHCHCH2C2H2CH4CH3CFeHC2H2CH3CH5CHFeCH6C3H6C2HNH2SH2CH2CHCHCH4FeH2FeSC2H4NHCHCH3CHNHCH2FeC2H2C4H3C2H11C2HCH5C4HCH4NH3CH5SHC2H2CSH6CNCH2CFeSH2C3HCHCSFeS2FeSFeS2FeS2FeS2FeSFeS3FeS2FeS2FeSFeS3HFeS2CH2CFeS2H2FeS2FeS2FeSFeS3FeS2CHCFeSH2SH3NCH3C6H4CHCHC6H8C8H4C6H4CHCH2CH2C6H4C6HCH2C6H4C6H4C6H4Fe2C2H2CHNC8H20NC8H18NCH2C2H4CH6C2H2CH3SHCH8NH4C3H7CHCNC3H3CSC2H3C3H5C4HNCHC2H2CH3CHCH2C2HSNCH3CH12C4NH4CH3CH4CHCHSCH7SH6C2HCH4CH2C2HCH5C2H3CH4CHCH6CH4C3NCHNH3C3H7CHCH9CH4CH2CSH4CNSHC2H5SHFeH2CH2CHCH5FeH2FeS2FeS2FeSFeNS2H2FeS2FeS2H2FeS3H2CFeS2FeS2FeSFeS3FeS2FeS2FeSFeCS2FeS2FeS2FeSFeS2FeS2FeSFeSFeS3HC6H6SHC7H4C6H4C7H4CH3CHNC6H4C4H9C2H2C2HC6H4C6H4C6H14CH2NC8H14CH8CH5SHCSH3CHC2H4CHCH3CH2CNC3H10CH5NC2HCH2CHSHCHC2NH7CHC4H13NC4H2CH5FeH2CNC6H13NC8H20NC6H14NC8H8C2H7C6H3SCHC3H3NHC2HCH4CH2CH2CH3CHC2HCH4CH6CH2CH5CHC3H2CH2CHCHCH3FeS2FeS2FeHFeS3HFeS2FeS2FeSFeS3FeS2FeSHFeSFeS3FeS2FeSFeSFeS3FeS2FeSFeS3FeS2FeS2Fe2S3HSNC6H4C6H4C6H4C6H6C7H4C6H4CHCHC7H4C6H4C6H4CHCHSHCH2CNC8H22C2H2CH2CH2NH4CH3C3H6C2H3CH3CH4CH6SHCH5CH5CH4C2HCH5CH2NC5HC2H13SH6NC7H17SNCHCH4CH5FeC2H2CH4CHCH3CH2CH7C3H2CH5CH3C2HC3H2NHCNH2SCHCH3NC8H18CH2CH2C3H3C3H5NCH3CH2C2H9CH2C2HCHCHC2HCH2CHC2FeS2FeS2FeSFeS3FeS2FeS2FeSFeS4FeS2FeSFeS3HFeS2H2FeS2FeSH2SH3SFeSCFeS2FeS2FeSFeS3C6H4C6H7C6H4C2H5C6H4C4H3C6H4C4SCH4C6H4C6H4C6H6C3H3CH5FeHCH9CH4SHC2H4N2C6H7CH5CFeH2CHNCH3CH7CH2C3HC2HCH11CH3CHCH4CHCH4CH2CH3CHCHCHNC8H19CH3C2H4CH4CH4CNHC2HNH2CH4CH10C2H3CNC3H12CHC2H4CNH3SH3CH2C2FeN2C2H2C3HC3NC6HCH4CH11CH3NC8H10CH3CHCH5SCH2CH2SHCH3CH2CH2CSH4CH2FeS2FeS2FeSFeS3FeS2FeS2FeCFeS3FeS2FeS2FeSFeS3H4CHSC3FeS2FeSHFeSFeS3FeS2FeS2FeSFeS3FeS2FeS2FeSFeS3HNHCH3CH2C6H4CHCHSH3C6H4C6H9SHCHC2H4C7H4C2H3C6H4CSHC3H2C2H5C6H4C6H4C6H4C2NHC2H4CH2C6HCHCH2CH4CH3CSHCNH4CHCH2CSHNC8H8C2FeH2CH8NC8H20C3H4CH4C2HC3H8CHCH2NCHCHC3H3CH3CH6CH3C2H3NC5HCH13C2H2CH2C2H4SH2CHCH4NC8H20NH2C2HC3SH2CHSH2CHFeCHCH8CFeH3CH2CH3CH2CH6FeHFeCH5NC8H5CH2CHNHCH9CHNHCH3C2H3NH6CHC2HSHC2H3CH2C2HCHC2HCH8SHCH3CH2CH3CH2CH6C2SFeS2FeS2FeSFeS2FeS2FeS2FeSFeS3FeS2FeS2FeSFeS3C2NCHSH2SFeS2H4CH5CH2C2SH3C6H6C2HCHSFeC2HCH2C6HCH2C2FeHC2H3C6H4C3SH7C6H4C6H4C6H4CH2CH5NHC2HC3HSCH4NCH6SFeH4CHC4H5CH7C2SCHCH2CH5NC8H12SH17CH3CH2NC8H19CHNC6H15FeH2FeHCH6CH3CHNH2CSH3CHSH4SHC2H3C2HNH2CHCH6CHSC2Fe2HCH3C2HC2NC9H2FeH4CH3CFeS2FeS2Fe2S3FeS2FeS2FeSFeS3FeS2FeSFeS3HS3FeHSFeSFeS2C2FeS2CFeSHSCH3SNFeS2FeS2FeSFeS3C6H4C6H4C2H2C6H4CH5CHCHC6H4C3SH4FeHC6H4C6H5C6H4C6H4C6H3CH7C3HCHC2HC3HNH2CNCHCH4CHFeH5CH4CH3CH2C3H9CH4C2H3CHCHCSH4C2H15NC8H20NC8H20NC7H5CH11NC6H15NC8H20C4HNH3SC2H4C2HC2H2NC8H23CH3C2H3SHCH5NCSH3CHC2H4FeH2CHCNC3H2CHSCHC2HFeH3C2H6CHSH2FeHSFeHCHSC3H4FeS2FeS2FeSFeS3FeS2FeS2FeSFeS3FeS2FeS2FeSFeS3FeH2FeS2FeSHSFeS2FeSHFe2S3FeS2FeS3H2CH2C6H6CHCSH5CH3C4H3C6H4C6H4C6H4CH4C2H2C7H4C6H4C6H7C2HSH6NC2H3CH2CH4C2H2CH4C2HCHCNCHC2H3CHCHCH3C4HC2HCH2CH3CH5CH5CNCH4CHCH10CH7CH2C2HCH5CH5S2HNCHCH6CH8CH3CH3CH3CHCSH5NC4H2C2H6CH3CH5C2HC3H6FeH2NCHCNCH2CH4C2H3CHSC2HCH3CNH5C2H2CHCHCHC4NHCHCFeHC2H2SCH2CHCHC2H2NHFeC3HNC8H15C3H6CH4CH5CH2FeSFeS2FeSFeS3FeS3FeSFeS2FeS2FeSCFeSFeS3H2CNCH2CHFeS2FeSHFeSFeHS2FeS2FeS2FeSFeS3FeS2FeS2FeSFeS3HCH2C7H4C3H3C7H4C6H5CHNC3H2CH3C2H2CH2CSHC6H4C6H4C6H4C6H4C6H4C6H7NC8H24CH2SC3HCH2CH6C4H2CHCNC6H15CH3CHCHCHCHN2CH6CHC3HC2HC2H2CH2C2H4CNC2HCH5CH2CH3CHCHC3H4CHCH6CHC2H3CH2NC8H21CHC2FeCH2CH5CH3CH3CH5NCHNH8CH5CHCH2CHCH2CHCHCH5CH4CH2CH8NH2S2HC2HCSH3CH2CH4NCH2CSCH3CH2SH11C2H8CH2CHCH3NHFeS2FeSFeS3FeSHFeS2FeSFeS3FeS2FeS2FeSFeS3H4CFeS2FeS2FeSFeS3CHSFeCSCHCHS2H3SH2FeSH5SH3SFeSC6H4C6H5C3HC6H4CHNHC2HSH2C6H4C6H4C4HCH4C6H4C6H4C6H5C2H3CH2FeCH5FeHCHCH3CH4CH17CHCHSH2C3H2CH2NC8H23C2H2CH2C2HNCHC2SHNCHCHCHC2H2CHCH4CH2C2NHNC3HC2H3CHCH6NC4HC3H8SH11NC8H21NH3C3H3CHCH3CHFeCH9NC5HC2HCH12SHCHCH3CH3C3N2C4HC3H5C2H2NHC3H4CH2CH3CHSHCH3C2H2FeH10C2HCH2C2HCH2CFeH3CH4S2HCFeS2FeS2FeSFeS3FeS2FeS2FeSFeS3FeS2FeS2FeSFeS3C2H3SH3CFeS2FeSFeSFeS3FeS2FeS2Fe2S3FeS2FeS2FeSFeHS2H2CH2CH5C6H4C6H4C6H9CSHCH4C7H7C7H4C4H3C6H4C6H4CH4C6H4C6H4C6H4C3H2CH2C4H8CHCHFeH6CHC6H6CH2C3HCH7SHNH3CHCHCHCHSH4SHCH2CNC8H20NC8H6CH8CHC3H3NC2H4CH4CH2CHCH7CHCNH4C3H2C2HCH2C2H9C2H2CNHC2HCH3NCH3CNH2CH2SH3CHC2H2CH6NC2HCHCHC2H4CH4CHCH4CH3NH3C6H6CH5CH2CH2NC6H12NC8H26C2HCH3CH3C2HNSCHC2HCHNSH2SH2CHNCH2NHSH5CH5CH6CH3CH2CH4C2HCHCH2SCH5CHCHSFeH6SH4CHSFeS2FeSFeS3FeS2FeS2FeSFeS3FeSHFeS2FeSFeHS2FeS2FeS2FeSFeS3FeS2FeS2FeSFeS2FeS2FeS2FeSFeS2HC6H4C4H2C6H4C6H4C6H4C6H4C6H4CH6C6H4C4H6CHC5H9CH2C6H5CSCH3CH7CH13C2H7C2H2CH5C2NHC2HCHS2CH2CHCNHCHCNC2H4CHC2H4C2H4CHCH5CHCHCHNHCH6CNC4HC2HCH10CH3C2HCHCHCHNH2C2HCH5SCHCHCHCHCHCH4CH2SC2HCHC2H2CH3CHNHCH3CH10CH2C3H9NCH10CHC2H2SH2FeH2CH3CH3CHCH3CH5CH2NCH3CHC3HCHCH2NH3C2H2C2HC2HNCHCHC2H3C3HCH7NHCHCHCHCH3SHCH3CH12SC3H3CH2SH4CH2CH2C3H4FeS2FeS2FeSFeS2FeSFeS2FeSFeS3FeS2FeSFeSFeS3HFeS2FeS2FeSFeCS2FeS2FeSHFeSFeS3FeS2FeS2FeSFeS3C2HC6H4SCHC6H4C6H5C3H2CH2CH2C6H4C6H4C6H4C3HC6H4C6H4C6H3C2HCH8CHC2H3CH8CH2CHCH4CNH3CHCHCHCH10CH2NHNC8H22CNH4CHCH2CHCH3CH2CH7NCHNHSHCH2CH3CH2C4HCH2NC8H17NC8H20NC8H20NC7H22CH2NHC2H3CH3CHC2HCH5CH8CH2C2HCH3SHCHC3H7
_chemical_formula_sum              "N384 S1536 C5376 H9216 Fe768"
_cell_length_a       104.119
_cell_length_b       104.934
_cell_length_c       104.992
_cell_angle_alpha    74.0277
_cell_angle_beta     73.6658
_cell_angle_gamma    73.6254

_space_group_name_H-M_alt    "P 1"
_space_group_IT_number       1

loop_
  _space_group_symop_operation_xyz
  'x, y, z'

loop_
  _atom_site_type_symbol
  _atom_site_label
  _atom_site_symmetry_multiplicity
  _atom_site_fract_x
  _atom_site_fract_y
  _atom_site_fract_z
  _atom_site_occupancy
  N   N1        1.0  0.45162  0.18564  0.14326  1.0000
  S   S1        1.0  0.36819  0.22134  0.19798  1.0000
  C   C1        1.0  0.48351  0.14229  0.15117  1.0000
  C   C2        1.0  0.33744  0.11166  0.11963  1.0000
  H   H1        1.0  0.36539  0.19504  0.18369  1.0000
  H   H2        1.0  0.39500  0.03314  0.15796  1.0000
  Fe  Fe1       1.0  0.38580  0.21564  0.20820  1.0000
  S   S2        1.0  0.40449  0.19867  0.20411  1.0000
  H   H3        1.0  0.40623  0.04528  0.12546  1.0000
  H   H4        1.0  0.43270  0.04085  0.10534  1.0000
  H   H5        1.0  0.41704  0.22640  0.20924  1.0000
  H   H6        1.0  0.37503  0.18847  0.20342  1.0000
  H   H7        1.0  0.32933  0.09340  0.12546  1.0000
  C   C3        1.0  0.44372  0.01875  0.13005  1.0000
  S   S3        1.0  0.30719  0.15449  0.22100  1.0000
  S   S4        1.0  0.32976  0.21382  0.14096  1.0000
  C   C4        1.0  0.45117  0.17095  0.14969  1.0000
  Fe  Fe2       1.0  0.32206  0.21921  0.12183  1.0000
  S   S5        1.0  0.32235  0.20073  0.11461  1.0000
  H   H8        1.0  0.46453  0.16985  0.12218  1.0000
  S   S6        1.0  0.29834  0.22251  0.17012  1.0000
  C   C5        1.0  0.33062  0.13245  0.12920  1.0000
  C   C6        1.0  0.48655  0.14257  0.13726  1.0000
  H   H9        1.0  0.36873  0.16816  0.15604  1.0000
  H   H10       1.0  0.39524  0.02798  0.13873  1.0000
  Fe  Fe3       1.0  0.32899  0.11949  0.21333  1.0000
  S   S7        1.0  0.30757  0.12768  0.21020  1.0000
  S   S8        1.0  0.34229  0.09977  0.20813  1.0000
  Fe  Fe4       1.0  0.31395  0.14748  0.20132  1.0000
  S   S9        1.0  0.31032  0.15868  0.18074  1.0000
  S   S10       1.0  0.33581  0.13885  0.20293  1.0000
  H   H11       1.0  0.31859  0.11836  0.14387  1.0000
  Fe  Fe5       1.0  0.35230  0.07243  0.14421  1.0000
  S   S11       1.0  0.37103  0.05792  0.15055  1.0000
  S   S12       1.0  0.33575  0.08767  0.15476  1.0000
  Fe  Fe6       1.0  0.35993  0.06579  0.11637  1.0000
  S   S13       1.0  0.37947  0.05105  0.12000  1.0000
  S   S14       1.0  0.35185  0.06958  0.09766  1.0000
  Fe  Fe7       1.0  0.36675  0.04348  0.14042  1.0000
  S   S15       1.0  0.36889  0.02078  0.14963  1.0000
  Fe  Fe8       1.0  0.38225  0.06656  0.12968  1.0000
  S   S16       1.0  0.40255  0.07306  0.12394  1.0000
  S   S17       1.0  0.34695  0.05732  0.13615  1.0000
  S   S18       1.0  0.36382  0.08194  0.12398  1.0000
  Fe  Fe9       1.0  0.35950  0.16712  0.05497  1.0000
  S   S19       1.0  0.38105  0.15694  0.04601  1.0000
  S   S20       1.0  0.35501  0.18900  0.05681  1.0000
  Fe  Fe10      1.0  0.34911  0.14142  0.06103  1.0000
  S   S21       1.0  0.36966  0.12933  0.05266  1.0000
  S   S22       1.0  0.33158  0.13094  0.07023  1.0000
  Fe  Fe11      1.0  0.37765  0.13965  0.06388  1.0000
  S   S23       1.0  0.39005  0.12687  0.07921  1.0000
  Fe  Fe12      1.0  0.37084  0.14760  0.03558  1.0000
  S   S24       1.0  0.37931  0.14436  0.01391  1.0000
  S   S25       1.0  0.35694  0.15044  0.07346  1.0000
  S   S26       1.0  0.34953  0.15914  0.04320  1.0000
  Fe  Fe13      1.0  0.42308  0.15541  0.14647  1.0000
  S   S27       1.0  0.43721  0.13649  0.15538  1.0000
  S   S28       1.0  0.40923  0.17423  0.15356  1.0000
  Fe  Fe14      1.0  0.42914  0.14713  0.11933  1.0000
  S   S29       1.0  0.44395  0.12769  0.12564  1.0000
  S   S30       1.0  0.42353  0.15660  0.09905  1.0000
  Fe  Fe15      1.0  0.42813  0.12559  0.14528  1.0000
  S   S31       1.0  0.42004  0.10651  0.15612  1.0000
  Fe  Fe16      1.0  0.45206  0.13997  0.13505  1.0000
  S   S32       1.0  0.41283  0.14425  0.13826  1.0000
  S   S33       1.0  0.43841  0.15955  0.12692  1.0000
  C   C7        1.0  0.36346  0.18531  0.19072  1.0000
  C   C8        1.0  0.36940  0.13963  0.00550  1.0000
  C   C9        1.0  0.37596  0.13416  0.99390  1.0000
  C   C10       1.0  0.40409  0.03777  0.15443  1.0000
  H   H12       1.0  0.32267  0.10580  0.11210  1.0000
  C   C11       1.0  0.34751  0.13814  0.00268  1.0000
  C   C12       1.0  0.35514  0.14154  0.00991  1.0000
  H   H13       1.0  0.33647  0.13969  0.00613  1.0000
  H   H14       1.0  0.34997  0.14576  0.01882  1.0000
  C   C13       1.0  0.39893  0.13538  0.08493  1.0000
  C   C14       1.0  0.40344  0.12944  0.09708  1.0000
  C   C15       1.0  0.41090  0.13593  0.10160  1.0000
  C   C16       1.0  0.41408  0.14825  0.09382  1.0000
  C   C17       1.0  0.40950  0.15421  0.08174  1.0000
  C   C18       1.0  0.40179  0.14788  0.07737  1.0000
  H   H15       1.0  0.40130  0.11973  0.10291  1.0000
  H   H16       1.0  0.41445  0.13126  0.11091  1.0000
  H   H17       1.0  0.41204  0.16368  0.07565  1.0000
  H   H18       1.0  0.39842  0.15246  0.06796  1.0000
  C   C19       1.0  0.40681  0.08265  0.13303  1.0000
  C   C20       1.0  0.41351  0.09325  0.12585  1.0000
  C   C21       1.0  0.41765  0.10063  0.13278  1.0000
  C   C22       1.0  0.41540  0.09724  0.14696  1.0000
  C   C23       1.0  0.40893  0.08645  0.15412  1.0000
  C   C24       1.0  0.40454  0.07926  0.14722  1.0000
  H   H19       1.0  0.41550  0.09582  0.11487  1.0000
  H   H20       1.0  0.42269  0.10885  0.12712  1.0000
  H   H21       1.0  0.40720  0.08373  0.16509  1.0000
  H   H22       1.0  0.39958  0.07099  0.15286  1.0000
  C   C25       1.0  0.34591  0.08691  0.09129  1.0000
  C   C26       1.0  0.33286  0.09147  0.08834  1.0000
  C   C27       1.0  0.32836  0.10512  0.08225  1.0000
  C   C28       1.0  0.33704  0.11416  0.07873  1.0000
  C   C29       1.0  0.35004  0.10964  0.08182  1.0000
  C   C30       1.0  0.35443  0.09604  0.08821  1.0000
  H   H23       1.0  0.32628  0.08441  0.09068  1.0000
  H   H24       1.0  0.31829  0.10858  0.07993  1.0000
  H   H25       1.0  0.35677  0.11657  0.07928  1.0000
  H   H26       1.0  0.36458  0.09253  0.09037  1.0000
  H   H27       1.0  0.47390  0.14004  0.15745  1.0000
  C   C31       1.0  0.46400  0.18950  0.14460  1.0000
  C   C32       1.0  0.36147  0.00483  0.12169  1.0000
  C   C33       1.0  0.36343  0.01402  0.12818  1.0000
  C   C34       1.0  0.36608  0.00955  0.14122  1.0000
  H   H28       1.0  0.31604  0.13420  0.14834  1.0000
  H   H29       1.0  0.41211  0.00807  0.12019  1.0000
  H   H30       1.0  0.35942  0.00842  0.11160  1.0000
  H   H31       1.0  0.36292  0.02457  0.12306  1.0000
  C   C35       1.0  0.37556  0.16345  0.16329  1.0000
  C   C36       1.0  0.34051  0.09637  0.19329  1.0000
  C   C37       1.0  0.33064  0.10496  0.18624  1.0000
  C   C38       1.0  0.32902  0.10192  0.17467  1.0000
  C   C39       1.0  0.33752  0.09049  0.16983  1.0000
  C   C40       1.0  0.34755  0.08199  0.17673  1.0000
  C   C41       1.0  0.34897  0.08488  0.18851  1.0000
  H   H32       1.0  0.32422  0.11394  0.18968  1.0000
  H   H33       1.0  0.32129  0.10857  0.16933  1.0000
  H   H34       1.0  0.35417  0.07317  0.17304  1.0000
  H   H35       1.0  0.35665  0.07822  0.19391  1.0000
  C   C42       1.0  0.33051  0.19833  0.09806  1.0000
  C   C43       1.0  0.33103  0.18605  0.09487  1.0000
  C   C44       1.0  0.33813  0.18333  0.08209  1.0000
  C   C45       1.0  0.34489  0.19281  0.07242  1.0000
  C   C46       1.0  0.34404  0.20528  0.07545  1.0000
  C   C47       1.0  0.33690  0.20804  0.08828  1.0000
  H   H36       1.0  0.32594  0.17860  0.10235  1.0000
  H   H37       1.0  0.33826  0.17395  0.07968  1.0000
  H   H38       1.0  0.34912  0.21272  0.06794  1.0000
  H   H39       1.0  0.33646  0.21758  0.09064  1.0000
  C   C48       1.0  0.30018  0.20487  0.17348  1.0000
  C   C49       1.0  0.29911  0.19720  0.18680  1.0000
  C   C50       1.0  0.30207  0.18294  0.18918  1.0000
  C   C51       1.0  0.30588  0.17643  0.17827  1.0000
  C   C52       1.0  0.30643  0.18416  0.16504  1.0000
  C   C53       1.0  0.30362  0.19835  0.16264  1.0000
  H   H40       1.0  0.29638  0.20219  0.19522  1.0000
  H   H41       1.0  0.30147  0.17703  0.19942  1.0000
  H   H42       1.0  0.30924  0.17918  0.15657  1.0000
  H   H43       1.0  0.30418  0.20421  0.15235  1.0000
  C   C54       1.0  0.40623  0.19193  0.18989  1.0000
  C   C55       1.0  0.39909  0.19922  0.17973  1.0000
  C   C56       1.0  0.40022  0.19360  0.16868  1.0000
  C   C57       1.0  0.40852  0.18068  0.16763  1.0000
  C   C58       1.0  0.41586  0.17341  0.17765  1.0000
  C   C59       1.0  0.41477  0.17908  0.18873  1.0000
  H   H44       1.0  0.39273  0.20922  0.18032  1.0000
  H   H45       1.0  0.39462  0.19934  0.16088  1.0000
  H   H46       1.0  0.42221  0.16340  0.17696  1.0000
  H   H47       1.0  0.42031  0.17338  0.19658  1.0000
  H   H48       1.0  0.38613  0.16102  0.15704  1.0000
  C   C60       1.0  0.35064  0.18299  0.17560  1.0000
  H   H49       1.0  0.37312  0.15371  0.16953  1.0000
  H   H50       1.0  0.36298  0.11470  0.11504  1.0000
  C   C61       1.0  0.37042  0.15190  0.19778  1.0000
  H   H51       1.0  0.40183  0.04770  0.14734  1.0000
  C   C62       1.0  0.37463  0.18008  0.19909  1.0000
  H   H52       1.0  0.35380  0.18803  0.19824  1.0000
  C   C63       1.0  0.41689  0.03907  0.12430  1.0000
  H   H53       1.0  0.32013  0.22097  0.18439  1.0000
  H   H54       1.0  0.33528  0.19398  0.19080  1.0000
  C   C64       1.0  0.43880  0.19413  0.15055  1.0000
  H   H55       1.0  0.31560  0.08505  0.20386  1.0000
  C   C65       1.0  0.45073  0.18861  0.12858  1.0000
  C   C66       1.0  0.37510  0.17328  0.17207  1.0000
  H   H56       1.0  0.42249  0.02906  0.10639  1.0000
  H   H57       1.0  0.32744  0.15189  0.09545  1.0000
  C   C67       1.0  0.34038  0.16982  0.22806  1.0000
  C   C68       1.0  0.36831  0.13089  0.98658  1.0000
  H   H58       1.0  0.44533  0.01779  0.14031  1.0000
  H   H59       1.0  0.32992  0.21848  0.19661  1.0000
  H   H60       1.0  0.31452  0.09801  0.22098  1.0000
  H   H61       1.0  0.34484  0.21328  0.17565  1.0000
  H   H62       1.0  0.33629  0.16832  0.98280  1.0000
  C   C69       1.0  0.32689  0.01061  0.13991  1.0000
  H   H63       1.0  0.48535  0.18501  0.13316  1.0000
  C   C70       1.0  0.36672  0.99579  0.14768  1.0000
  H   H64       1.0  0.37873  0.22253  0.15260  1.0000
  H   H65       1.0  0.44429  0.02912  0.12397  1.0000
  H   H66       1.0  0.36881  0.99222  0.15774  1.0000
  Fe  Fe17      1.0  0.32865  0.14411  0.22343  1.0000
  H   H67       1.0  0.47783  0.17067  0.13793  1.0000
  H   H68       1.0  0.43387  0.21306  0.13533  1.0000
  H   H69       1.0  0.26527  0.23005  0.13277  1.0000
  H   H70       1.0  0.26957  0.23245  0.15309  1.0000
  H   H71       1.0  0.38045  0.23394  0.16967  1.0000
  H   H72       1.0  0.31832  0.19983  0.21895  1.0000
  C   C71       1.0  0.32729  0.19290  0.22211  1.0000
  H   H73       1.0  0.36033  0.17618  0.99086  1.0000
  H   H74       1.0  0.30088  0.07900  0.21410  1.0000
  C   C72       1.0  0.33721  0.19798  0.22466  1.0000
  H   H75       1.0  0.33304  0.99755  0.12597  1.0000
  C   C73       1.0  0.31062  0.08850  0.22436  1.0000
  S   S34       1.0  0.36002  0.22910  0.13511  1.0000
  Fe  Fe18      1.0  0.35472  0.22221  0.21857  1.0000
  H   H76       1.0  0.32132  0.17497  0.22162  1.0000
  H   H77       1.0  0.34840  0.22815  0.17743  1.0000
  H   H78       1.0  0.29771  0.99713  0.14052  1.0000
  N   N2        1.0  0.37577  0.18608  0.09913  1.0000
  C   C74       1.0  0.37755  0.19735  0.08664  1.0000
  C   C75       1.0  0.36432  0.19203  0.10978  1.0000
  C   C76       1.0  0.37191  0.17501  0.09527  1.0000
  C   C77       1.0  0.38924  0.18092  0.10353  1.0000
  C   C78       1.0  0.38708  0.19303  0.07359  1.0000
  C   C79       1.0  0.36691  0.20351  0.11461  1.0000
  C   C80       1.0  0.36436  0.16519  0.10678  1.0000
  C   C81       1.0  0.38956  0.17043  0.11707  1.0000
  H   H79       1.0  0.36746  0.20280  0.08409  1.0000
  H   H80       1.0  0.38175  0.20518  0.08847  1.0000
  H   H81       1.0  0.36164  0.18426  0.11903  1.0000
  H   H82       1.0  0.35470  0.19612  0.10597  1.0000
  H   H83       1.0  0.36499  0.17953  0.08801  1.0000
  H   H84       1.0  0.38115  0.16866  0.08979  1.0000
  H   H85       1.0  0.39723  0.17599  0.09577  1.0000
  H   H86       1.0  0.39354  0.18939  0.10386  1.0000
  H   H87       1.0  0.38770  0.20225  0.06533  1.0000
  H   H88       1.0  0.39769  0.18811  0.07485  1.0000
  H   H89       1.0  0.38301  0.18630  0.06995  1.0000
  H   H90       1.0  0.37621  0.20024  0.11888  1.0000
  C   C82       1.0  0.30627  0.08727  0.21194  1.0000
  H   H91       1.0  0.35810  0.20651  0.12287  1.0000
  H   H92       1.0  0.35369  0.17041  0.11083  1.0000
  H   H93       1.0  0.36980  0.16032  0.11511  1.0000
  H   H94       1.0  0.36357  0.15694  0.10249  1.0000
  H   H95       1.0  0.39196  0.15994  0.11539  1.0000
  H   H96       1.0  0.38010  0.17208  0.12501  1.0000
  H   H97       1.0  0.39777  0.17134  0.12140  1.0000
  H   H98       1.0  0.46356  0.16642  0.16508  1.0000
  H   H99       1.0  0.31311  0.12961  0.11484  1.0000
  H   H100      1.0  0.43103  0.01251  0.12112  1.0000
  C   C83       1.0  0.46261  0.18104  0.11889  1.0000
  C   C84       1.0  0.42233  0.03855  0.10909  1.0000
  H   H101      1.0  0.45241  0.01149  0.12509  1.0000
  C   C85       1.0  0.45329  0.16595  0.16438  1.0000
  C   C86       1.0  0.36012  0.12597  0.11270  1.0000
  H   H102      1.0  0.31585  0.00690  0.12729  1.0000
  C   C87       1.0  0.30337  0.99195  0.14875  1.0000
  C   C88       1.0  0.29710  0.23294  0.20021  1.0000
  C   C89       1.0  0.33614  0.18667  0.18460  1.0000
  H   H103      1.0  0.35050  0.16539  0.20127  1.0000
  H   H104      1.0  0.32939  0.01951  0.13183  1.0000
  H   H105      1.0  0.48278  0.17587  0.15033  1.0000
  H   H106      1.0  0.29582  0.01218  0.15370  1.0000
  H   H107      1.0  0.44526  0.21372  0.14540  1.0000
  H   H108      1.0  0.37116  0.14211  0.19521  1.0000
  C   C90       1.0  0.43010  0.01508  0.13092  1.0000
  C   C91       1.0  0.31911  0.14817  0.10365  1.0000
  C   C92       1.0  0.36468  0.98659  0.14120  1.0000
  H   H109      1.0  0.33255  0.17753  0.19122  1.0000
  H   H110      1.0  0.31832  0.01460  0.14775  1.0000
  H   H111      1.0  0.35294  0.19249  0.16837  1.0000
  H   H112      1.0  0.32884  0.19173  0.17783  1.0000
  N   N3        1.0  0.36217  0.17579  0.18291  1.0000
  H   H113      1.0  0.44528  0.17147  0.17163  1.0000
  H   H114      1.0  0.36792  0.07341  0.06188  1.0000
  H   H115      1.0  0.45882  0.16383  0.14376  1.0000
  C   C93       1.0  0.31757  0.12942  0.13964  1.0000
  H   H116      1.0  0.36872  0.12942  0.10467  1.0000
  H   H117      1.0  0.31627  0.15374  0.11196  1.0000
  H   H118      1.0  0.45259  0.15511  0.16790  1.0000
  S   S35       1.0  0.34403  0.12909  0.98198  1.0000
  H   H119      1.0  0.31647  0.10797  0.12943  1.0000
  H   H120      1.0  0.38701  0.13248  0.99054  1.0000
  S   S36       1.0  0.30184  0.23195  0.13055  1.0000
  H   H121      1.0  0.34521  0.14296  0.10526  1.0000
  H   H122      1.0  0.42577  0.03255  0.14747  1.0000
  N   N4        1.0  0.33414  0.12707  0.11643  1.0000
  H   H123      1.0  0.31005  0.15085  0.09904  1.0000
  H   H124      1.0  0.40582  0.03990  0.16354  1.0000
  S   S37       1.0  0.47511  0.13946  0.12930  1.0000
  C   C94       1.0  0.32279  0.13260  0.10873  1.0000
  C   C95       1.0  0.35865  0.16292  0.19229  1.0000
  H   H125      1.0  0.41567  0.04686  0.10312  1.0000
  H   H126      1.0  0.38069  0.15424  0.19417  1.0000
  H   H127      1.0  0.28905  0.99878  0.16639  1.0000
  H   H128      1.0  0.30824  0.13375  0.13544  1.0000
  N   N5        1.0  0.36802  0.12129  0.15914  1.0000
  C   C96       1.0  0.35639  0.12805  0.16915  1.0000
  C   C97       1.0  0.37927  0.11345  0.16656  1.0000
  C   C98       1.0  0.36266  0.11167  0.15462  1.0000
  C   C99       1.0  0.37251  0.13222  0.14727  1.0000
  C   C100      1.0  0.34294  0.13520  0.16425  1.0000
  C   C101      1.0  0.38575  0.12196  0.17180  1.0000
  C   C102      1.0  0.37312  0.09957  0.14937  1.0000
  C   C103      1.0  0.38518  0.12777  0.13631  1.0000
  H   H129      1.0  0.35369  0.12049  0.17874  1.0000
  H   H130      1.0  0.35941  0.13595  0.17219  1.0000
  H   H131      1.0  0.38787  0.10751  0.16017  1.0000
  H   H132      1.0  0.37541  0.10570  0.17542  1.0000
  H   H133      1.0  0.35528  0.10695  0.16322  1.0000
  H   H134      1.0  0.35683  0.11722  0.14661  1.0000
  H   H135      1.0  0.36414  0.13734  0.14174  1.0000
  H   H136      1.0  0.37425  0.14063  0.15067  1.0000
  H   H137      1.0  0.33517  0.13915  0.17276  1.0000
  H   H138      1.0  0.34422  0.14407  0.15574  1.0000
  H   H139      1.0  0.33850  0.12818  0.16148  1.0000
  H   H140      1.0  0.39036  0.12957  0.16345  1.0000
  H   H141      1.0  0.37838  0.12686  0.17988  1.0000
  H   H142      1.0  0.39424  0.11506  0.17648  1.0000
  H   H143      1.0  0.36787  0.09438  0.14513  1.0000
  H   H144      1.0  0.37707  0.09190  0.15784  1.0000
  H   H145      1.0  0.38177  0.10259  0.14125  1.0000
  H   H146      1.0  0.38240  0.12401  0.12876  1.0000
  H   H147      1.0  0.39346  0.12009  0.14053  1.0000
  H   H148      1.0  0.38991  0.13658  0.13085  1.0000
  H   H149      1.0  0.36748  0.21280  0.10647  1.0000
  H   H150      1.0  0.49063  0.14441  0.16778  1.0000
  H   H151      1.0  0.33817  0.22906  0.16561  1.0000
  C   C104      1.0  0.34882  0.18899  0.22866  1.0000
  C   C105      1.0  0.32896  0.17883  0.22363  1.0000
  H   H152      1.0  0.38503  0.17683  0.19303  1.0000
  C   C106      1.0  0.49307  0.14466  0.15700  1.0000
  H   H153      1.0  0.28870  0.23344  0.20945  1.0000
  C   C107      1.0  0.34038  0.22414  0.17578  1.0000
  H   H154      1.0  0.43783  0.21316  0.19808  1.0000
  H   H155      1.0  0.46258  0.19080  0.15514  1.0000
  H   H156      1.0  0.30429  0.98640  0.12358  1.0000
  H   H157      1.0  0.30053  0.22212  0.19950  1.0000
  C   C108      1.0  0.42504  0.22156  0.21534  1.0000
  Fe  Fe19      1.0  0.31046  0.22790  0.14885  1.0000
  C   C109      1.0  0.29842  0.00136  0.15898  1.0000
  C   C110      1.0  0.35403  0.13302  0.99086  1.0000
  H   H158      1.0  0.43857  0.19225  0.16154  1.0000
  C   C111      1.0  0.43647  0.20971  0.14546  1.0000
  H   H159      1.0  0.30580  0.00015  0.16523  1.0000
  H   H160      1.0  0.44102  0.18655  0.12791  1.0000
  C   C112      1.0  0.43450  0.20952  0.20922  1.0000
  H   H161      1.0  0.40431  0.01131  0.14483  1.0000
  C   C113      1.0  0.32566  0.10451  0.12181  1.0000
  H   H162      1.0  0.26636  0.23267  0.17512  1.0000
  H   H163      1.0  0.40142  0.02495  0.11542  1.0000
  C   C114      1.0  0.40335  0.01604  0.12379  1.0000
  H   H164      1.0  0.28288  0.09411  0.22726  1.0000
  H   H165      1.0  0.47220  0.18454  0.11704  1.0000
  N   N6        1.0  0.35836  0.09772  0.04092  1.0000
  C   C115      1.0  0.35147  0.08921  0.05373  1.0000
  C   C116      1.0  0.35015  0.11218  0.04006  1.0000
  C   C117      1.0  0.37253  0.09707  0.04248  1.0000
  C   C118      1.0  0.35909  0.09203  0.02891  1.0000
  C   C119      1.0  0.35903  0.07425  0.05759  1.0000
  C   C120      1.0  0.33471  0.11428  0.04076  1.0000
  C   C121      1.0  0.38147  0.10536  0.03071  1.0000
  C   C122      1.0  0.35927  0.10209  0.01502  1.0000
  H   H166      1.0  0.34992  0.09383  0.06252  1.0000
  H   H167      1.0  0.34105  0.08893  0.05313  1.0000
  H   H168      1.0  0.35433  0.11904  0.03067  1.0000
  H   H169      1.0  0.35085  0.11629  0.04849  1.0000
  H   H170      1.0  0.37182  0.10035  0.05195  1.0000
  H   H171      1.0  0.37874  0.08646  0.04365  1.0000
  H   H172      1.0  0.36833  0.08361  0.02754  1.0000
  H   H173      1.0  0.35023  0.08730  0.03071  1.0000
  H   H174      1.0  0.35197  0.06866  0.06581  1.0000
  H   H175      1.0  0.36237  0.06908  0.04894  1.0000
  H   H176      1.0  0.33268  0.10840  0.03453  1.0000
  H   H177      1.0  0.32904  0.11151  0.05144  1.0000
  H   H178      1.0  0.33041  0.12524  0.03702  1.0000
  H   H179      1.0  0.38515  0.10066  0.02171  1.0000
  H   H180      1.0  0.39078  0.10530  0.03394  1.0000
  H   H181      1.0  0.37633  0.11616  0.02789  1.0000
  H   H182      1.0  0.34916  0.10916  0.01464  1.0000
  H   H183      1.0  0.36146  0.09632  0.00694  1.0000
  H   H184      1.0  0.36719  0.10810  0.01221  1.0000
  C   C123      1.0  0.41703  0.02808  0.14814  1.0000
  H   H185      1.0  0.37684  0.18306  0.16502  1.0000
  H   H186      1.0  0.42293  0.04521  0.12641  1.0000
  H   H187      1.0  0.42967  0.00531  0.13851  1.0000
  C   C124      1.0  0.40481  0.02027  0.13616  1.0000
  H   H188      1.0  0.38440  0.16929  0.17626  1.0000
  C   C125      1.0  0.34678  0.13171  0.10733  1.0000
  H   H189      1.0  0.37214  0.17179  0.20786  1.0000
  H   H190      1.0  0.33620  0.00592  0.14414  1.0000
  H   H191      1.0  0.34537  0.10764  0.11120  1.0000
  N   N7        1.0  0.41728  0.02571  0.13449  1.0000
  H   H192      1.0  0.34949  0.17662  0.16927  1.0000
  H   H193      1.0  0.35954  0.12989  0.12165  1.0000
  H   H194      1.0  0.32966  0.14365  0.12670  1.0000
  H   H195      1.0  0.41825  0.01827  0.15575  1.0000
  H   H196      1.0  0.34896  0.12903  0.09727  1.0000
  H   H197      1.0  0.31978  0.08012  0.22587  1.0000
  H   H198      1.0  0.42743  0.21454  0.15251  1.0000
  H   H199      1.0  0.33902  0.12813  0.13477  1.0000
  H   H200      1.0  0.32554  0.12809  0.09964  1.0000
  C   C126      1.0  0.32723  0.22541  0.18714  1.0000
  H   H201      1.0  0.36807  0.15000  0.20905  1.0000
  H   H202      1.0  0.34204  0.10753  0.12871  1.0000
  H   H203      1.0  0.35393  0.15792  0.18724  1.0000
  H   H204      1.0  0.44114  0.16903  0.14980  1.0000
  S   S38       1.0  0.37219  0.21451  0.22915  1.0000
  H   H205      1.0  0.46502  0.19961  0.13794  1.0000
  H   H206      1.0  0.45027  0.19954  0.12386  1.0000
  H   H207      1.0  0.45988  0.18347  0.10886  1.0000
  N   N8        1.0  0.31858  0.98843  0.14287  1.0000
  C   C127      1.0  0.47810  0.17961  0.14132  1.0000
  H   H208      1.0  0.42949  0.19128  0.14996  1.0000
  C   C128      1.0  0.36204  0.99108  0.12815  1.0000
  H   H209      1.0  0.29985  0.09704  0.20760  1.0000
  H   H210      1.0  0.39414  0.01162  0.12682  1.0000
  H   H211      1.0  0.37890  0.17306  0.98610  1.0000
  C   C129      1.0  0.32348  0.00074  0.13347  1.0000
  H   H212      1.0  0.32065  0.99046  0.11392  1.0000
  S   S39       1.0  0.33490  0.21554  0.22298  1.0000
  H   H213      1.0  0.31262  0.23170  0.21069  1.0000
  H   H214      1.0  0.35911  0.15946  0.98182  1.0000
  H   H215      1.0  0.42929  0.20124  0.21053  1.0000
  H   H216      1.0  0.41400  0.19949  0.22955  1.0000
  H   H217      1.0  0.44396  0.20555  0.21326  1.0000
  H   H218      1.0  0.40126  0.21396  0.22588  1.0000
  C   C130      1.0  0.37178  0.23212  0.15402  1.0000
  H   H219      1.0  0.43156  0.22900  0.21313  1.0000
  Fe  Fe20      1.0  0.33858  0.23228  0.13230  1.0000
  H   H220      1.0  0.36887  0.18972  0.98711  1.0000
  H   H221      1.0  0.32688  0.98967  0.15934  1.0000
  C   C131      1.0  0.36923  0.18025  0.98410  1.0000
  H   H222      1.0  0.28723  0.10808  0.22977  1.0000
  Fe  Fe21      1.0  0.30270  0.13374  0.23020  1.0000
  H   H223      1.0  0.25495  0.22331  0.39090  1.0000
  C   C132      1.0  0.00620  0.08014  0.39991  1.0000
  H   H224      1.0  0.02076  0.20210  0.32847  1.0000
  Fe  Fe22      1.0  0.22275  0.21245  0.37732  1.0000
  S   S40       1.0  0.20360  0.20540  0.38895  1.0000
  S   S41       1.0  0.23857  0.20259  0.36140  1.0000
  H   H225      1.0  0.16468  0.16209  0.47535  1.0000
  C   C133      1.0  0.25218  0.18720  0.28157  1.0000
  Fe  Fe23      1.0  0.20736  0.21122  0.40635  1.0000
  S   S42       1.0  0.20107  0.19797  0.42674  1.0000
  H   H226      1.0  0.39178  0.21461  0.24966  1.0000
  S   S43       1.0  0.22776  0.21642  0.39513  1.0000
  Fe  Fe24      1.0  0.23730  0.13848  0.34423  1.0000
  S   S44       1.0  0.21761  0.14734  0.33740  1.0000
  S   S45       1.0  0.23684  0.14186  0.36473  1.0000
  Fe  Fe25      1.0  0.25144  0.12776  0.31845  1.0000
  S   S46       1.0  0.23288  0.13607  0.30933  1.0000
  S   S47       1.0  0.27239  0.11780  0.30761  1.0000
  Fe  Fe26      1.0  0.23059  0.15451  0.31724  1.0000
  S   S48       1.0  0.22299  0.17592  0.30680  1.0000
  Fe  Fe27      1.0  0.22125  0.12815  0.33027  1.0000
  S   S49       1.0  0.20163  0.12151  0.33327  1.0000
  S   S50       1.0  0.25017  0.14713  0.32444  1.0000
  S   S51       1.0  0.23998  0.11830  0.33903  1.0000
  H   H227      1.0  0.19877  0.06039  0.43375  1.0000
  S   S52       1.0  0.28215  0.13081  0.24358  1.0000
  C   C134      1.0  0.27414  0.09791  0.24716  1.0000
  Fe  Fe28      1.0  0.12068  0.21542  0.33049  1.0000
  S   S53       1.0  0.12592  0.20702  0.31176  1.0000
  S   S54       1.0  0.10413  0.20892  0.34851  1.0000
  H   H228      1.0  0.99856  0.12200  0.38128  1.0000
  S   S55       1.0  0.15237  0.22094  0.30156  1.0000
  H   H229      1.0  0.28460  0.07244  0.23412  1.0000
  H   H230      1.0  0.16559  0.19180  0.46137  1.0000
  Fe  Fe29      1.0  0.14737  0.20148  0.31463  1.0000
  S   S56       1.0  0.15979  0.18031  0.31448  1.0000
  H   H231      1.0  0.19257  0.13701  0.45408  1.0000
  S   S57       1.0  0.14210  0.20849  0.33406  1.0000
  Fe  Fe30      1.0  0.17526  0.05818  0.36773  1.0000
  S   S58       1.0  0.16905  0.04090  0.38435  1.0000
  S   S59       1.0  0.19686  0.06121  0.36269  1.0000
  Fe  Fe31      1.0  0.14689  0.06834  0.36163  1.0000
  S   S60       1.0  0.13822  0.05200  0.37783  1.0000
  S   S61       1.0  0.13557  0.08523  0.34765  1.0000
  Fe  Fe32      1.0  0.15003  0.05659  0.39044  1.0000
  S   S62       1.0  0.14121  0.05874  0.41221  1.0000
  Fe  Fe33      1.0  0.15793  0.03785  0.37016  1.0000
  S   S63       1.0  0.16174  0.01777  0.36367  1.0000
  S   S64       1.0  0.15702  0.07396  0.37486  1.0000
  S   S65       1.0  0.16579  0.05407  0.35305  1.0000
  Fe  Fe34      1.0  0.06488  0.12391  0.37172  1.0000
  S   S66       1.0  0.04865  0.13011  0.38939  1.0000
  S   S67       1.0  0.07220  0.10153  0.37266  1.0000
  Fe  Fe35      1.0  0.06656  0.15293  0.35795  1.0000
  S   S68       1.0  0.05039  0.16144  0.37457  1.0000
  S   S69       1.0  0.07683  0.16612  0.33930  1.0000
  Fe  Fe36      1.0  0.06166  0.14431  0.38846  1.0000
  S   S70       1.0  0.06676  0.14503  0.40779  1.0000
  Fe  Fe37      1.0  0.03906  0.14633  0.37368  1.0000
  S   S71       1.0  0.01595  0.15195  0.37511  1.0000
  S   S72       1.0  0.07859  0.13690  0.37183  1.0000
  S   S73       1.0  0.05452  0.13909  0.35597  1.0000
  Fe  Fe38      1.0  0.16526  0.14418  0.42498  1.0000
  S   S74       1.0  0.18502  0.15021  0.41316  1.0000
  Fe  Fe39      1.0  0.15290  0.11929  0.43636  1.0000
  S   S75       1.0  0.15912  0.09646  0.43870  1.0000
  Fe  Fe40      1.0  0.13631  0.14563  0.42264  1.0000
  S   S76       1.0  0.12521  0.15422  0.40533  1.0000
  S   S77       1.0  0.15682  0.13245  0.41568  1.0000
  H   H232      1.0  0.26605  0.15320  0.29675  1.0000
  C   C135      1.0  0.08300  0.14768  0.40699  1.0000
  C   C136      1.0  0.08724  0.14577  0.41909  1.0000
  C   C137      1.0  0.10029  0.14746  0.41875  1.0000
  C   C138      1.0  0.10906  0.15130  0.40628  1.0000
  C   C139      1.0  0.10479  0.15330  0.39419  1.0000
  C   C140      1.0  0.09184  0.15142  0.39453  1.0000
  H   H233      1.0  0.08042  0.14291  0.42876  1.0000
  H   H234      1.0  0.10345  0.14600  0.42812  1.0000
  H   H235      1.0  0.11146  0.15640  0.38452  1.0000
  H   H236      1.0  0.08859  0.15312  0.38517  1.0000
  C   C141      1.0  0.20697  0.12947  0.38899  1.0000
  C   C142      1.0  0.15059  0.00765  0.36382  1.0000
  C   C143      1.0  0.13733  0.00871  0.37203  1.0000
  H   H237      1.0  0.19528  0.03738  0.40586  1.0000
  H   H238      1.0  0.13353  0.01599  0.37854  1.0000
  H   H239      1.0  0.17307  0.06361  0.40149  1.0000
  C   C144      1.0  0.14494  0.07060  0.41901  1.0000
  C   C145      1.0  0.14298  0.06828  0.43312  1.0000
  C   C146      1.0  0.14664  0.07678  0.43907  1.0000
  C   C147      1.0  0.15185  0.08804  0.43104  1.0000
  C   C148      1.0  0.15323  0.09084  0.41691  1.0000
  C   C149      1.0  0.14989  0.08205  0.41088  1.0000
  H   H240      1.0  0.13908  0.05954  0.43950  1.0000
  H   H241      1.0  0.14572  0.07443  0.44995  1.0000
  H   H242      1.0  0.15745  0.09940  0.41061  1.0000
  H   H243      1.0  0.15136  0.08398  0.39998  1.0000
  C   C150      1.0  0.11786  0.08962  0.35418  1.0000
  C   C151      1.0  0.11058  0.10297  0.35033  1.0000
  C   C152      1.0  0.09651  0.10673  0.35599  1.0000
  C   C153      1.0  0.08966  0.09704  0.36520  1.0000
  C   C154      1.0  0.09687  0.08363  0.36874  1.0000
  C   C155      1.0  0.11099  0.07998  0.36340  1.0000
  H   H244      1.0  0.11586  0.11044  0.34314  1.0000
  H   H245      1.0  0.09091  0.11706  0.35307  1.0000
  H   H246      1.0  0.09157  0.07613  0.37585  1.0000
  H   H247      1.0  0.11650  0.06969  0.36635  1.0000
  C   C156      1.0  0.00785  0.14571  0.36606  1.0000
  C   C157      1.0  0.01541  0.13742  0.35688  1.0000
  H   H248      1.0  0.01620  0.18467  0.31261  1.0000
  H   H249      1.0  0.02649  0.13475  0.35507  1.0000
  C   C158      1.0  0.03802  0.16130  0.32639  1.0000
  C   C159      1.0  0.09585  0.19748  0.34606  1.0000
  C   C160      1.0  0.09548  0.19701  0.33298  1.0000
  C   C161      1.0  0.08958  0.18740  0.33105  1.0000
  C   C162      1.0  0.08382  0.17826  0.34219  1.0000
  C   C163      1.0  0.08380  0.17891  0.35533  1.0000
  C   C164      1.0  0.08979  0.18851  0.35725  1.0000
  H   H250      1.0  0.09945  0.20427  0.32434  1.0000
  H   H251      1.0  0.08943  0.18710  0.32087  1.0000
  H   H252      1.0  0.07926  0.17197  0.36401  1.0000
  H   H253      1.0  0.08975  0.18893  0.36742  1.0000
  C   C165      1.0  0.20076  0.10457  0.34100  1.0000
  C   C166      1.0  0.21229  0.09480  0.34429  1.0000
  C   C167      1.0  0.21108  0.08144  0.35089  1.0000
  C   C168      1.0  0.19838  0.07782  0.35404  1.0000
  C   C169      1.0  0.18695  0.08756  0.35054  1.0000
  C   C170      1.0  0.18813  0.10091  0.34409  1.0000
  H   H254      1.0  0.22211  0.09753  0.34175  1.0000
  H   H255      1.0  0.21999  0.07388  0.35346  1.0000
  H   H256      1.0  0.17721  0.08480  0.35261  1.0000
  H   H257      1.0  0.17924  0.10840  0.34139  1.0000
  C   C171      1.0  0.20562  0.17737  0.30763  1.0000
  C   C172      1.0  0.19667  0.19016  0.30605  1.0000
  C   C173      1.0  0.18256  0.19116  0.30799  1.0000
  C   C174      1.0  0.17743  0.17939  0.31132  1.0000
  C   C175      1.0  0.18642  0.16665  0.31265  1.0000
  C   C176      1.0  0.20047  0.16565  0.31085  1.0000
  H   H258      1.0  0.20059  0.19925  0.30368  1.0000
  H   H259      1.0  0.17567  0.20102  0.30710  1.0000
  H   H260      1.0  0.18254  0.15750  0.31523  1.0000
  H   H261      1.0  0.20727  0.15573  0.31200  1.0000
  C   C177      1.0  0.27533  0.12020  0.28985  1.0000
  C   C178      1.0  0.28870  0.11983  0.28187  1.0000
  C   C179      1.0  0.29106  0.12277  0.26760  1.0000
  C   C180      1.0  0.28003  0.12586  0.26132  1.0000
  C   C181      1.0  0.26680  0.12555  0.26931  1.0000
  C   C182      1.0  0.26444  0.12279  0.28352  1.0000
  H   H262      1.0  0.29718  0.11772  0.28675  1.0000
  H   H263      1.0  0.30131  0.12294  0.26152  1.0000
  H   H264      1.0  0.25826  0.12774  0.26449  1.0000
  H   H265      1.0  0.25419  0.12268  0.28958  1.0000
  C   C183      1.0  0.19643  0.18455  0.42343  1.0000
  C   C184      1.0  0.20574  0.17684  0.41444  1.0000
  C   C185      1.0  0.20210  0.16632  0.41144  1.0000
  C   C186      1.0  0.18915  0.16340  0.41741  1.0000
  C   C187      1.0  0.17977  0.17110  0.42644  1.0000
  C   C188      1.0  0.18339  0.18175  0.42937  1.0000
  H   H266      1.0  0.21579  0.17900  0.40977  1.0000
  H   H267      1.0  0.20938  0.16047  0.40444  1.0000
  H   H268      1.0  0.16970  0.16896  0.43101  1.0000
  H   H269      1.0  0.17603  0.18795  0.43604  1.0000
  C   C189      1.0  0.01933  0.18500  0.35175  1.0000
  H   H270      1.0  0.04031  0.20404  0.33310  1.0000
  H   H271      1.0  0.11834  0.22531  0.36109  1.0000
  N   N9        1.0  0.26496  0.22733  0.36175  1.0000
  C   C190      1.0  0.00158  0.11162  0.38739  1.0000
  C   C191      1.0  0.02823  0.16705  0.33856  1.0000
  N   N10       1.0  0.02824  0.18142  0.33859  1.0000
  C   C192      1.0  0.23826  0.15840  0.36410  1.0000
  C   C193      1.0  0.24333  0.16660  0.35177  1.0000
  C   C194      1.0  0.24376  0.18000  0.35116  1.0000
  C   C195      1.0  0.23868  0.18548  0.36279  1.0000
  C   C196      1.0  0.23371  0.17730  0.37522  1.0000
  C   C197      1.0  0.23380  0.16368  0.37591  1.0000
  H   H272      1.0  0.24702  0.16265  0.34267  1.0000
  H   H273      1.0  0.24772  0.18622  0.34154  1.0000
  H   H274      1.0  0.22995  0.18140  0.38431  1.0000
  H   H275      1.0  0.23012  0.15735  0.38554  1.0000
  S   S78       1.0  0.16331  0.12982  0.44528  1.0000
  H   H276      1.0  0.02130  0.11553  0.38639  1.0000
  H   H277      1.0  0.28415  0.14972  0.29179  1.0000
  H   H278      1.0  0.22691  0.12328  0.39511  1.0000
  H   H279      1.0  0.21195  0.12459  0.40913  1.0000
  H   H280      1.0  0.10901  0.21915  0.37771  1.0000
  H   H281      1.0  0.00213  0.17529  0.35423  1.0000
  H   H282      1.0  0.17578  0.14642  0.45979  1.0000
  C   C198      1.0  0.28626  0.09742  0.23469  1.0000
  H   H283      1.0  0.12108  0.06261  0.30696  1.0000
  H   H284      1.0  0.14376  0.20649  0.38699  1.0000
  H   H285      1.0  0.20352  0.15098  0.46085  1.0000
  N   N11       1.0  0.26173  0.16653  0.26975  1.0000
  C   C199      1.0  0.26320  0.16437  0.25571  1.0000
  C   C200      1.0  0.24948  0.16122  0.27888  1.0000
  C   C201      1.0  0.27452  0.15818  0.27460  1.0000
  C   C202      1.0  0.26032  0.18148  0.26883  1.0000
  H   H286      1.0  0.14330  0.23356  0.34972  1.0000
  C   C203      1.0  0.23602  0.16682  0.27377  1.0000
  H   H287      1.0  0.27580  0.10230  0.25486  1.0000
  H   H288      1.0  0.04887  0.15872  0.32732  1.0000
  H   H289      1.0  0.39540  0.19741  0.24819  1.0000
  H   H290      1.0  0.25448  0.17095  0.25115  1.0000
  H   H291      1.0  0.01792  0.16574  0.33905  1.0000
  H   H292      1.0  0.25164  0.14996  0.28047  1.0000
  H   H293      1.0  0.27650  0.14761  0.27333  1.0000
  H   H294      1.0  0.28375  0.16208  0.26838  1.0000
  H   H295      1.0  0.27061  0.18396  0.26604  1.0000
  H   H296      1.0  0.25519  0.18790  0.26049  1.0000
  C   C204      1.0  0.00399  0.18507  0.35453  1.0000
  H   H297      1.0  0.32696  0.09040  0.23912  1.0000
  H   H298      1.0  0.01389  0.07819  0.39059  1.0000
  H   H299      1.0  0.14771  0.23087  0.37249  1.0000
  S   S79       1.0  0.21160  0.23385  0.37041  1.0000
  C   C205      1.0  0.15585  0.23217  0.36352  1.0000
  C   C206      1.0  0.20742  0.17475  0.46244  1.0000
  C   C207      1.0  0.18819  0.05934  0.43485  1.0000
  H   H300      1.0  0.20340  0.09614  0.39904  1.0000
  C   C208      1.0  0.31892  0.08946  0.24865  1.0000
  H   H301      1.0  0.22830  0.10828  0.38327  1.0000
  H   H302      1.0  0.16355  0.18617  0.47952  1.0000
  N   N12       1.0  0.13251  0.15100  0.33523  1.0000
  C   C209      1.0  0.14797  0.14899  0.33157  1.0000
  C   C210      1.0  0.12654  0.16614  0.33282  1.0000
  C   C211      1.0  0.12854  0.14462  0.32600  1.0000
  C   C212      1.0  0.12834  0.14411  0.34992  1.0000
  C   C213      1.0  0.15625  0.13413  0.33241  1.0000
  C   C214      1.0  0.12928  0.17391  0.34194  1.0000
  C   C215      1.0  0.11444  0.15099  0.32221  1.0000
  C   C216      1.0  0.11282  0.14591  0.35598  1.0000
  H   H303      1.0  0.15140  0.15468  0.32102  1.0000
  H   H304      1.0  0.15165  0.15312  0.33823  1.0000
  H   H305      1.0  0.11521  0.16848  0.33433  1.0000
  H   H306      1.0  0.13038  0.17103  0.32204  1.0000
  H   H307      1.0  0.13603  0.14505  0.31600  1.0000
  H   H308      1.0  0.12893  0.13359  0.33036  1.0000
  H   H309      1.0  0.13254  0.13295  0.35141  1.0000
  H   H310      1.0  0.13279  0.14768  0.35643  1.0000
  H   H311      1.0  0.15357  0.12878  0.32610  1.0000
  H   H312      1.0  0.16734  0.13416  0.32850  1.0000
  H   H313      1.0  0.15514  0.12821  0.34303  1.0000
  H   H314      1.0  0.12427  0.17071  0.35275  1.0000
  H   H315      1.0  0.14032  0.17322  0.34081  1.0000
  H   H316      1.0  0.12469  0.18487  0.33878  1.0000
  H   H317      1.0  0.11447  0.16103  0.31510  1.0000
  H   H318      1.0  0.10585  0.15225  0.33109  1.0000
  H   H319      1.0  0.11224  0.14432  0.31688  1.0000
  H   H320      1.0  0.10743  0.15673  0.35515  1.0000
  H   H321      1.0  0.11114  0.14113  0.36698  1.0000
  H   H322      1.0  0.10804  0.14072  0.35129  1.0000
  C   C217      1.0  0.15335  0.23367  0.35068  1.0000
  H   H323      1.0  0.03267  0.19177  0.31754  1.0000
  C   C218      1.0  0.17043  0.16953  0.46805  1.0000
  H   H324      1.0  0.01953  0.19536  0.35231  1.0000
  H   H325      1.0  0.99869  0.19360  0.34756  1.0000
  H   H326      1.0  0.00073  0.08505  0.35888  1.0000
  H   H327      1.0  0.21586  0.04190  0.39539  1.0000
  H   H328      1.0  0.02204  0.09789  0.38868  1.0000
  H   H329      1.0  0.19308  0.10558  0.42170  1.0000
  C   C219      1.0  0.04502  0.19496  0.33998  1.0000
  S   S80       1.0  0.14519  0.15855  0.43031  1.0000
  C   C220      1.0  0.11944  0.21985  0.37156  1.0000
  H   H330      1.0  0.04123  0.19614  0.35068  1.0000
  H   H331      1.0  0.21058  0.18464  0.45926  1.0000
  H   H332      1.0  0.19366  0.16079  0.44875  1.0000
  C   C221      1.0  0.19181  0.17756  0.46368  1.0000
  C   C222      1.0  0.01204  0.18945  0.32159  1.0000
  C   C223      1.0  0.21480  0.05301  0.39370  1.0000
  H   H333      1.0  0.09842  0.20022  0.38213  1.0000
  N   N13       1.0  0.18540  0.16535  0.46881  1.0000
  H   H334      1.0  0.35914  0.16800  0.23396  1.0000
  H   H335      1.0  0.18053  0.08551  0.39768  1.0000
  H   H336      1.0  0.18990  0.18295  0.45344  1.0000
  H   H337      1.0  0.16559  0.99723  0.34905  1.0000
  C   C224      1.0  0.16243  0.18385  0.47030  1.0000
  N   N14       1.0  0.12963  0.19600  0.38449  1.0000
  C   C225      1.0  0.19079  0.04253  0.41459  1.0000
  N   N15       1.0  0.19106  0.05743  0.41009  1.0000
  H   H338      1.0  0.43047  0.19181  0.25117  1.0000
  H   H339      1.0  0.13818  0.18143  0.36255  1.0000
  H   H340      1.0  0.12649  0.21177  0.39554  1.0000
  H   H341      1.0  0.28575  0.22784  0.36134  1.0000
  H   H342      1.0  0.27996  0.20232  0.35058  1.0000
  H   H343      1.0  0.27355  0.22020  0.38789  1.0000
  C   C226      1.0  0.43513  0.19715  0.24092  1.0000
  H   H344      1.0  0.11875  0.00113  0.37822  1.0000
  H   H345      1.0  0.26496  0.20652  0.39437  1.0000
  H   H346      1.0  0.40663  0.20267  0.25491  1.0000
  H   H347      1.0  0.25365  0.19762  0.28014  1.0000
  S   S81       1.0  0.19540  0.23270  0.40201  1.0000
  C   C227      1.0  0.02382  0.19165  0.32648  1.0000
  H   H348      1.0  0.19553  0.13761  0.36635  1.0000
  H   H349      1.0  0.40457  0.23013  0.24491  1.0000
  H   H350      1.0  0.21103  0.05334  0.41469  1.0000
  H   H351      1.0  0.21040  0.16950  0.47222  1.0000
  C   C228      1.0  0.28031  0.21273  0.34438  1.0000
  H   H352      1.0  0.03110  0.16003  0.34790  1.0000
  H   H353      1.0  0.04983  0.17961  0.32856  1.0000
  H   H354      1.0  0.23025  0.09481  0.36655  1.0000
  C   C229      1.0  0.29290  0.06628  0.23933  1.0000
  C   C230      1.0  0.20578  0.05875  0.40619  1.0000
  C   C231      1.0  0.40028  0.20589  0.24723  1.0000
  C   C232      1.0  0.21625  0.12890  0.39837  1.0000
  H   H355      1.0  0.01192  0.09212  0.37185  1.0000
  H   H356      1.0  0.18454  0.12292  0.38734  1.0000
  H   H357      1.0  0.27527  0.16695  0.29110  1.0000
  H   H358      1.0  0.18738  0.04865  0.43933  1.0000
  S   S82       1.0  0.32370  0.12380  0.23423  1.0000
  H   H359      1.0  0.16955  0.04357  0.41361  1.0000
  C   C233      1.0  0.19279  0.15546  0.45960  1.0000
  H   H360      1.0  0.17757  0.02806  0.42320  1.0000
  H   H361      1.0  0.03700  0.16834  0.31653  1.0000
  H   H362      1.0  0.17966  0.08152  0.38258  1.0000
  C   C234      1.0  0.35028  0.17494  0.23055  1.0000
  C   C235      1.0  0.18632  0.14326  0.46162  1.0000
  H   H363      1.0  0.27181  0.08775  0.25195  1.0000
  C   C236      1.0  0.40973  0.23171  0.23394  1.0000
  H   H364      1.0  0.21682  0.13941  0.39792  1.0000
  C   C237      1.0  0.12899  0.00026  0.37184  1.0000
  H   H365      1.0  0.18701  0.18519  0.47011  1.0000
  H   H366      1.0  0.04680  0.17333  0.34639  1.0000
  H   H367      1.0  0.22054  0.08833  0.38282  1.0000
  C   C238      1.0  0.22046  0.09713  0.37408  1.0000
  H   H368      1.0  0.18409  0.07575  0.41820  1.0000
  H   H369      1.0  0.17144  0.04277  0.43041  1.0000
  H   H370      1.0  0.27814  0.17731  0.24472  1.0000
  H   H371      1.0  0.29727  0.09523  0.25627  1.0000
  H   H372      1.0  0.18233  0.10679  0.41037  1.0000
  H   H373      1.0  0.17231  0.06511  0.42364  1.0000
  C   C239      1.0  0.26687  0.22302  0.34861  1.0000
  H   H374      1.0  0.28803  0.05886  0.24773  1.0000
  H   H375      1.0  0.05622  0.19454  0.33745  1.0000
  C   C240      1.0  0.16877  0.23257  0.36477  1.0000
  C   C241      1.0  0.00110  0.09757  0.37210  1.0000
  H   H376      1.0  0.42447  0.21474  0.24924  1.0000
  H   H377      1.0  0.13299  0.01066  0.32875  1.0000
  H   H378      1.0  0.16195  0.05482  0.32187  1.0000
  H   H379      1.0  0.10957  0.20117  0.39746  1.0000
  H   H380      1.0  0.15068  0.18547  0.37833  1.0000
  H   H381      1.0  0.21328  0.16901  0.45439  1.0000
  H   H382      1.0  0.12374  0.22619  0.37545  1.0000
  H   H383      1.0  0.02338  0.17795  0.36054  1.0000
  H   H384      1.0  0.20638  0.06956  0.40432  1.0000
  H   H385      1.0  0.14595  0.06301  0.31712  1.0000
  H   H386      1.0  0.30110  0.06058  0.23228  1.0000
  H   H387      1.0  0.18137  0.06547  0.44231  1.0000
  H   H388      1.0  0.20427  0.12276  0.35923  1.0000
  C   C242      1.0  0.13438  0.20267  0.39289  1.0000
  Fe  Fe41      1.0  0.14248  0.14340  0.45036  1.0000
  H   H389      1.0  0.24724  0.16317  0.28922  1.0000
  C   C243      1.0  0.27636  0.16723  0.24523  1.0000
  H   H390      1.0  0.14818  0.01621  0.32687  1.0000
  H   H391      1.0  0.44623  0.19524  0.24074  1.0000
  H   H392      1.0  0.00502  0.18357  0.32933  1.0000
  Fe  Fe42      1.0  0.14544  0.22855  0.32086  1.0000
  C   C244      1.0  0.17646  0.03926  0.42078  1.0000
  H   H393      1.0  0.27663  0.20778  0.37054  1.0000
  C   C245      1.0  0.04278  0.18163  0.33831  1.0000
  H   H394      1.0  0.28148  0.21213  0.33369  1.0000
  H   H395      1.0  0.22530  0.05473  0.39176  1.0000
  Fe  Fe43      1.0  0.13022  0.22749  0.30059  1.0000
  H   H396      1.0  0.29313  0.07451  0.25603  1.0000
  C   C246      1.0  0.40871  0.20929  0.23257  1.0000
  C   C247      1.0  0.18420  0.06351  0.39825  1.0000
  H   H397      1.0  0.99854  0.11274  0.39815  1.0000
  H   H398      1.0  0.15743  0.13108  0.47828  1.0000
  H   H399      1.0  0.30373  0.10647  0.24134  1.0000
  C   C248      1.0  0.26480  0.21655  0.38721  1.0000
  H   H400      1.0  0.19239  0.10821  0.38065  1.0000
  H   H401      1.0  0.21076  0.13591  0.37902  1.0000
  H   H402      1.0  0.23394  0.17800  0.27008  1.0000
  H   H403      1.0  0.01454  0.12581  0.34318  1.0000
  H   H404      1.0  0.32077  0.09529  0.25509  1.0000
  H   H405      1.0  0.30928  0.06832  0.24644  1.0000
  H   H406      1.0  0.18627  0.13652  0.47181  1.0000
  H   H407      1.0  0.26282  0.15374  0.25619  1.0000
  C   C249      1.0  0.14707  0.98962  0.35534  1.0000
  H   H408      1.0  0.02127  0.10928  0.37232  1.0000
  H   H409      1.0  0.32024  0.07873  0.25426  1.0000
  C   C250      1.0  0.26635  0.21462  0.37279  1.0000
  H   H410      1.0  0.28547  0.15913  0.24737  1.0000
  H   H411      1.0  0.14771  0.06131  0.33414  1.0000
  H   H412      1.0  0.12583  0.20163  0.36404  1.0000
  S   S83       1.0  0.13166  0.13164  0.44308  1.0000
  H   H413      1.0  0.99906  0.18669  0.36499  1.0000
  H   H414      1.0  0.13555  0.04910  0.30775  1.0000
  C   C251      1.0  0.29892  0.07457  0.24533  1.0000
  H   H415      1.0  0.25826  0.21850  0.34896  1.0000
  C   C252      1.0  0.18342  0.06490  0.42134  1.0000
  H   H416      1.0  0.13951  0.20742  0.36551  1.0000
  C   C253      1.0  0.00861  0.13234  0.35016  1.0000
  H   H417      1.0  0.24296  0.22946  0.36638  1.0000
  C   C254      1.0  0.20420  0.10592  0.40059  1.0000
  H   H418      1.0  0.19662  0.13551  0.39274  1.0000
  C   C255      1.0  0.42899  0.21266  0.23885  1.0000
  H   H419      1.0  0.18604  0.12768  0.36281  1.0000
  H   H420      1.0  0.25545  0.18115  0.29100  1.0000
  C   C256      1.0  0.12907  0.20574  0.37097  1.0000
  H   H421      1.0  0.18817  0.05707  0.39058  1.0000
  C   C257      1.0  0.14030  0.18317  0.38239  1.0000
  C   C258      1.0  0.11587  0.19285  0.39217  1.0000
  C   C259      1.0  0.13761  0.19370  0.40648  1.0000
  C   C260      1.0  0.13847  0.17526  0.37291  1.0000
  C   C261      1.0  0.10669  0.19097  0.38380  1.0000
  H   H422      1.0  0.14074  0.17572  0.39221  1.0000
  H   H423      1.0  0.11718  0.18356  0.40037  1.0000
  H   H424      1.0  0.12916  0.18868  0.41275  1.0000
  H   H425      1.0  0.14734  0.18593  0.40484  1.0000
  H   H426      1.0  0.13911  0.20018  0.41249  1.0000
  H   H427      1.0  0.14741  0.16653  0.37186  1.0000
  H   H428      1.0  0.12934  0.17077  0.37733  1.0000
  H   H429      1.0  0.10131  0.18273  0.38982  1.0000
  H   H430      1.0  0.11204  0.18822  0.37394  1.0000
  H   H431      1.0  0.22224  0.11805  0.36877  1.0000
  H   H432      1.0  0.23618  0.16191  0.26559  1.0000
  C   C262      1.0  0.27470  0.15717  0.28944  1.0000
  H   H433      1.0  0.10642  0.05211  0.35459  1.0000
  S   S84       1.0  0.13445  0.15227  0.46949  1.0000
  H   H434      1.0  0.21211  0.09803  0.36910  1.0000
  C   C263      1.0  0.21962  0.11038  0.37824  1.0000
  C   C264      1.0  0.15537  0.99809  0.35547  1.0000
  H   H435      1.0  0.43442  0.19221  0.23320  1.0000
  C   C265      1.0  0.19523  0.12708  0.36653  1.0000
  C   C266      1.0  0.19115  0.11018  0.41134  1.0000
  N   N16       1.0  0.20623  0.11594  0.38721  1.0000
  C   C267      1.0  0.18531  0.07824  0.39089  1.0000
  S   S85       1.0  0.17121  0.23157  0.38091  1.0000
  H   H436      1.0  0.25876  0.20869  0.37338  1.0000
  C   C268      1.0  0.01742  0.10813  0.38347  1.0000
  H   H437      1.0  0.21331  0.10304  0.40520  1.0000
  H   H438      1.0  0.21099  0.05813  0.38431  1.0000
  H   H439      1.0  0.19603  0.07908  0.38599  1.0000
  H   H440      1.0  0.22728  0.16434  0.28224  1.0000
  H   H441      1.0  0.11874  0.04536  0.31185  1.0000
  H   H442      1.0  0.18811  0.12126  0.41080  1.0000
  H   H443      1.0  0.27541  0.16707  0.23499  1.0000
  H   H444      1.0  0.13601  0.02560  0.31627  1.0000
  H   H445      1.0  0.19731  0.03723  0.42210  1.0000
  C   C269      1.0  0.19421  0.11807  0.38095  1.0000
  H   H446      1.0  0.03557  0.15167  0.32633  1.0000
  N   N17       1.0  0.19307  0.18413  0.35436  1.0000
  C   C270      1.0  0.20011  0.18776  0.33956  1.0000
  C   C271      1.0  0.18189  0.17732  0.35490  1.0000
  C   C272      1.0  0.20355  0.17414  0.36176  1.0000
  C   C273      1.0  0.18772  0.19696  0.35986  1.0000
  C   C274      1.0  0.21334  0.19296  0.33652  1.0000
  C   C275      1.0  0.17064  0.18619  0.34728  1.0000
  C   C276      1.0  0.19853  0.16847  0.37702  1.0000
  C   C277      1.0  0.17623  0.19665  0.37298  1.0000
  H   H447      1.0  0.20288  0.17883  0.33475  1.0000
  H   H448      1.0  0.19314  0.19583  0.33372  1.0000
  H   H449      1.0  0.17654  0.17357  0.36539  1.0000
  H   H450      1.0  0.18641  0.16801  0.35058  1.0000
  H   H451      1.0  0.20838  0.16529  0.35681  1.0000
  H   H452      1.0  0.21206  0.17886  0.36119  1.0000
  H   H453      1.0  0.19626  0.20006  0.36181  1.0000
  H   H454      1.0  0.18355  0.20556  0.35207  1.0000
  H   H455      1.0  0.21225  0.20088  0.34212  1.0000
  H   H456      1.0  0.22207  0.18441  0.33867  1.0000
  H   H457      1.0  0.21607  0.19747  0.32548  1.0000
  H   H458      1.0  0.16585  0.19595  0.35056  1.0000
  H   H459      1.0  0.17463  0.18822  0.33614  1.0000
  H   H460      1.0  0.16245  0.18058  0.34923  1.0000
  H   H461      1.0  0.18987  0.16346  0.37934  1.0000
  H   H462      1.0  0.19610  0.17639  0.38302  1.0000
  H   H463      1.0  0.20701  0.16049  0.38072  1.0000
  H   H464      1.0  0.17859  0.20145  0.38001  1.0000
  H   H465      1.0  0.17471  0.18651  0.37879  1.0000
  H   H466      1.0  0.16634  0.20299  0.37060  1.0000
  N   N18       1.0  0.10900  0.10499  0.40167  1.0000
  C   C278      1.0  0.10654  0.11246  0.41285  1.0000
  C   C279      1.0  0.09672  0.11049  0.39524  1.0000
  C   C280      1.0  0.12180  0.10809  0.39141  1.0000
  C   C281      1.0  0.11084  0.09002  0.40797  1.0000
  C   C282      1.0  0.11858  0.10972  0.41982  1.0000
  C   C283      1.0  0.08290  0.10791  0.40451  1.0000
  C   C284      1.0  0.12368  0.10619  0.37689  1.0000
  C   C285      1.0  0.11164  0.08041  0.39887  1.0000
  H   H467      1.0  0.10391  0.12360  0.40884  1.0000
  H   H468      1.0  0.09760  0.11008  0.42112  1.0000
  H   H469      1.0  0.09806  0.10637  0.38618  1.0000
  H   H470      1.0  0.09542  0.12168  0.39136  1.0000
  H   H471      1.0  0.12224  0.11889  0.39015  1.0000
  H   H472      1.0  0.13115  0.10181  0.39506  1.0000
  H   H473      1.0  0.12047  0.08620  0.41173  1.0000
  H   H474      1.0  0.10279  0.08797  0.41737  1.0000
  H   H475      1.0  0.12134  0.09894  0.42509  1.0000
  H   H476      1.0  0.12777  0.11290  0.41266  1.0000
  H   H477      1.0  0.11541  0.11588  0.42772  1.0000
  H   H478      1.0  0.08327  0.09695  0.40883  1.0000
  H   H479      1.0  0.07929  0.11372  0.41270  1.0000
  H   H480      1.0  0.07498  0.11155  0.39834  1.0000
  H   H481      1.0  0.12276  0.09604  0.37667  1.0000
  H   H482      1.0  0.13413  0.10729  0.37098  1.0000
  H   H483      1.0  0.11630  0.11411  0.37145  1.0000
  H   H484      1.0  0.12235  0.07711  0.39331  1.0000
  H   H485      1.0  0.10482  0.08474  0.39166  1.0000
  H   H486      1.0  0.10805  0.07121  0.40534  1.0000
  N   N19       1.0  0.13202  0.04202  0.33581  1.0000
  C   C286      1.0  0.12903  0.04510  0.34974  1.0000
  C   C287      1.0  0.14696  0.04213  0.32950  1.0000
  C   C288      1.0  0.12933  0.02810  0.33766  1.0000
  C   C289      1.0  0.12256  0.05277  0.32779  1.0000
  C   C290      1.0  0.11462  0.04410  0.35874  1.0000
  C   C291      1.0  0.15065  0.05618  0.32553  1.0000
  C   C292      1.0  0.13713  0.01990  0.32659  1.0000
  C   C293      1.0  0.12467  0.05222  0.31280  1.0000
  H   H487      1.0  0.13663  0.03812  0.35562  1.0000
  H   H488      1.0  0.13008  0.05554  0.34903  1.0000
  H   H489      1.0  0.15065  0.03817  0.32006  1.0000
  H   H490      1.0  0.15356  0.03515  0.33646  1.0000
  H   H491      1.0  0.13200  0.02135  0.34716  1.0000
  H   H492      1.0  0.11819  0.02875  0.33894  1.0000
  H   H493      1.0  0.11169  0.05216  0.33247  1.0000
  H   H494      1.0  0.12275  0.06321  0.32826  1.0000
  H   H495      1.0  0.11244  0.03393  0.36050  1.0000
  H   H496      1.0  0.11409  0.04576  0.36890  1.0000
  H   H497      1.0  0.24101  0.18814  0.28306  1.0000
  H   H498      1.0  0.16926  0.16941  0.45785  1.0000
  H   H499      1.0  0.00559  0.19952  0.31796  1.0000
  C   C294      1.0  0.13384  0.99063  0.36356  1.0000
  Fe  Fe44      1.0  0.19277  0.22713  0.38390  1.0000
  H   H500      1.0  0.43769  0.21790  0.23459  1.0000
  H   H501      1.0  0.26482  0.10465  0.24381  1.0000
  H   H502      1.0  0.00378  0.07009  0.40524  1.0000
  H   H503      1.0  0.26660  0.23195  0.33994  1.0000
  H   H504      1.0  0.15132  0.18464  0.47136  1.0000
  H   H505      1.0  0.00174  0.10655  0.36351  1.0000
  C   C295      1.0  0.30429  0.09550  0.24607  1.0000
  H   H506      1.0  0.01090  0.08342  0.40641  1.0000
  N   N20       1.0  0.29988  0.08878  0.23749  1.0000
  H   H507      1.0  0.28950  0.21573  0.34490  1.0000
  H   H508      1.0  0.35650  0.19284  0.23066  1.0000
  H   H509      1.0  0.18930  0.23449  0.35410  1.0000
  C   C296      1.0  0.17925  0.23438  0.35317  1.0000
  C   C297      1.0  0.27581  0.23505  0.36007  1.0000
  S   S86       1.0  0.34275  0.15214  0.23042  1.0000
  N   N21       1.0  0.41838  0.21846  0.23027  1.0000
  Fe  Fe45      1.0  0.21616  0.11315  0.67775  1.0000
  S   S87       1.0  0.19621  0.10703  0.68151  1.0000
  S   S88       1.0  0.22522  0.12702  0.65888  1.0000
  Fe  Fe46      1.0  0.20793  0.08575  0.68778  1.0000
  S   S89       1.0  0.20600  0.06852  0.67971  1.0000
  S   S90       1.0  0.22821  0.09178  0.68218  1.0000
  S   S91       1.0  0.21290  0.11640  0.69871  1.0000
  Fe  Fe47      1.0  0.10479  0.18561  0.68712  1.0000
  C   C298      1.0  0.15384  0.13811  0.48504  1.0000
  S   S92       1.0  0.09379  0.16889  0.68986  1.0000
  H   H510      1.0  0.18150  0.07371  0.59924  1.0000
  C   C299      1.0  0.15543  0.20891  0.61255  1.0000
  S   S93       1.0  0.12061  0.19027  0.66809  1.0000
  Fe  Fe48      1.0  0.20295  0.20181  0.63473  1.0000
  S   S94       1.0  0.18452  0.20403  0.62667  1.0000
  S   S95       1.0  0.20329  0.19001  0.65616  1.0000
  Fe  Fe49      1.0  0.21630  0.21970  0.60932  1.0000
  H   H511      1.0  0.13256  0.00298  0.59061  1.0000
  Fe  Fe50      1.0  0.18550  0.22587  0.61890  1.0000
  H   H512      1.0  0.12637  0.15952  0.68289  1.0000
  Fe  Fe51      1.0  0.19947  0.20043  0.60727  1.0000
  S   S96       1.0  0.19570  0.18357  0.59984  1.0000
  S   S97       1.0  0.20242  0.22412  0.62892  1.0000
  S   S98       1.0  0.21812  0.19701  0.61580  1.0000
  C   C300      1.0  0.15086  0.19853  0.62557  1.0000
  Fe  Fe52      1.0  0.14312  0.05698  0.62499  1.0000
  S   S99       1.0  0.13310  0.03918  0.63235  1.0000
  S   S100      1.0  0.14595  0.06783  0.60290  1.0000
  Fe  Fe53      1.0  0.14672  0.05604  0.65307  1.0000
  S   S101      1.0  0.13691  0.03798  0.66289  1.0000
  S   S102      1.0  0.15103  0.07048  0.66325  1.0000
  Fe  Fe54      1.0  0.14926  0.02945  0.64443  1.0000
  S   S103      1.0  0.16106  0.00772  0.64299  1.0000
  Fe  Fe55      1.0  0.12145  0.04895  0.65001  1.0000
  S   S104      1.0  0.09875  0.04964  0.65720  1.0000
  S   S105      1.0  0.16041  0.04670  0.63566  1.0000
  S   S106      1.0  0.13012  0.06745  0.64163  1.0000
  Fe  Fe56      1.0  0.12823  0.16212  0.55642  1.0000
  S   S107      1.0  0.14297  0.17175  0.53879  1.0000
  S   S108      1.0  0.10525  0.16908  0.56058  1.0000
  Fe  Fe57      1.0  0.15054  0.14198  0.56926  1.0000
  S   S109      1.0  0.16748  0.14949  0.55262  1.0000
  S   S110      1.0  0.15160  0.12876  0.59012  1.0000
  Fe  Fe58      1.0  0.15475  0.17042  0.55442  1.0000
  S   S111      1.0  0.16230  0.18833  0.55567  1.0000
  Fe  Fe59      1.0  0.15448  0.15020  0.53817  1.0000
  S   S112      1.0  0.16338  0.14160  0.51888  1.0000
  S   S113      1.0  0.13879  0.16286  0.57184  1.0000
  S   S114      1.0  0.13882  0.14067  0.55484  1.0000
  Fe  Fe60      1.0  0.05738  0.15031  0.64267  1.0000
  S   S115      1.0  0.03986  0.14168  0.65705  1.0000
  S   S116      1.0  0.06635  0.16736  0.64347  1.0000
  Fe  Fe61      1.0  0.06090  0.13278  0.62282  1.0000
  S   S117      1.0  0.04386  0.12248  0.63539  1.0000
  S   S118      1.0  0.07470  0.12618  0.60404  1.0000
  Fe  Fe62      1.0  0.03207  0.14326  0.63856  1.0000
  S   S119      1.0  0.00933  0.15212  0.63860  1.0000
  Fe  Fe63      1.0  0.05286  0.12154  0.65277  1.0000
  S   S120      1.0  0.05388  0.10260  0.66928  1.0000
  S   S121      1.0  0.04857  0.15372  0.62439  1.0000
  S   S122      1.0  0.07093  0.12999  0.63997  1.0000
  S   S123      1.0  0.24208  0.08923  0.71335  1.0000
  H   H513      1.0  0.09796  0.13015  0.61653  1.0000
  C   C301      1.0  0.24315  0.09996  0.72318  1.0000
  C   C302      1.0  0.11378  0.15226  0.52547  1.0000
  C   C303      1.0  0.13771  0.13834  0.68264  1.0000
  H   H514      1.0  0.11447  0.99123  0.60446  1.0000
  H   H515      1.0  0.18054  0.15504  0.67442  1.0000
  H   H516      1.0  0.10632  0.23452  0.69828  1.0000
  C   C304      1.0  0.15531  0.14482  0.50512  1.0000
  C   C305      1.0  0.16000  0.13593  0.49606  1.0000
  C   C306      1.0  0.11775  0.12602  0.67569  1.0000
  H   H517      1.0  0.13597  0.17959  0.72059  1.0000
  C   C307      1.0  0.37181  0.19978  0.73001  1.0000
  C   C308      1.0  0.14458  0.15609  0.50285  1.0000
  H   H518      1.0  0.16556  0.23212  0.59750  1.0000
  H   H519      1.0  0.19316  0.17364  0.63775  1.0000
  H   H520      1.0  0.02707  0.10137  0.65374  1.0000
  H   H521      1.0  0.14103  0.16315  0.50958  1.0000
  C   C309      1.0  0.09687  0.15749  0.57338  1.0000
  C   C310      1.0  0.10421  0.14451  0.57838  1.0000
  C   C311      1.0  0.09732  0.13494  0.58778  1.0000
  C   C312      1.0  0.08313  0.13851  0.59274  1.0000
  C   C313      1.0  0.07581  0.15163  0.58819  1.0000
  C   C314      1.0  0.08266  0.16105  0.57833  1.0000
  H   H522      1.0  0.11518  0.14175  0.57491  1.0000
  H   H523      1.0  0.10304  0.12483  0.59134  1.0000
  H   H524      1.0  0.06481  0.15439  0.59195  1.0000
  H   H525      1.0  0.07693  0.17108  0.57455  1.0000
  C   C315      1.0  0.15330  0.99374  0.64643  1.0000
  H   H526      1.0  0.26660  0.12545  0.70776  1.0000
  C   C316      1.0  0.13936  0.22444  0.64674  1.0000
  H   H527      1.0  0.16932  0.07000  0.61507  1.0000
  H   H528      1.0  0.10122  0.17013  0.53393  1.0000
  H   H529      1.0  0.19480  0.09889  0.62557  1.0000
  H   H530      1.0  0.13374  0.00315  0.65743  1.0000
  H   H531      1.0  0.17514  0.15298  0.65409  1.0000
  C   C317      1.0  0.19876  0.07945  0.63868  1.0000
  H   H532      1.0  0.08047  0.13154  0.52432  1.0000
  C   C318      1.0  0.08695  0.06465  0.66085  1.0000
  C   C319      1.0  0.09038  0.07740  0.65653  1.0000
  C   C320      1.0  0.08025  0.08924  0.65873  1.0000
  C   C321      1.0  0.06681  0.08824  0.66571  1.0000
  C   C322      1.0  0.06355  0.07547  0.67030  1.0000
  C   C323      1.0  0.07349  0.06378  0.66766  1.0000
  H   H533      1.0  0.10078  0.07815  0.65140  1.0000
  H   H534      1.0  0.08289  0.09907  0.65533  1.0000
  H   H535      1.0  0.05324  0.07460  0.67578  1.0000
  H   H536      1.0  0.07076  0.05398  0.67104  1.0000
  C   C324      1.0  0.14655  0.08509  0.59935  1.0000
  C   C325      1.0  0.14446  0.09174  0.60986  1.0000
  C   C326      1.0  0.14555  0.10531  0.60688  1.0000
  C   C327      1.0  0.14878  0.11232  0.59338  1.0000
  C   C328      1.0  0.15045  0.10586  0.58284  1.0000
  C   C329      1.0  0.14935  0.09224  0.58583  1.0000
  H   H537      1.0  0.14218  0.08638  0.62028  1.0000
  H   H538      1.0  0.14410  0.11033  0.61507  1.0000
  H   H539      1.0  0.15297  0.11121  0.57238  1.0000
  H   H540      1.0  0.15094  0.08716  0.57766  1.0000
  C   C330      1.0  0.13836  0.15822  0.49188  1.0000
  H   H541      1.0  0.21797  0.15222  0.69595  1.0000
  S   S124      1.0  0.11117  0.22952  0.65411  1.0000
  H   H542      1.0  0.01910  0.13877  0.69076  1.0000
  H   H543      1.0  0.12607  0.21338  0.61646  1.0000
  C   C331      1.0  0.37961  0.22430  0.71597  1.0000
  H   H544      1.0  0.09124  0.15330  0.54582  1.0000
  C   C332      1.0  0.22863  0.14969  0.69743  1.0000
  H   H545      1.0  0.14020  0.20214  0.63106  1.0000
  H   H546      1.0  0.01091  0.12428  0.63659  1.0000
  C   C333      1.0  0.18646  0.18521  0.58743  1.0000
  C   C334      1.0  0.18347  0.19738  0.57805  1.0000
  C   C335      1.0  0.17609  0.19820  0.56834  1.0000
  C   C336      1.0  0.17165  0.18687  0.56793  1.0000
  C   C337      1.0  0.17464  0.17470  0.57731  1.0000
  C   C338      1.0  0.18210  0.17387  0.58692  1.0000
  H   H547      1.0  0.18703  0.20609  0.57814  1.0000
  H   H548      1.0  0.17393  0.20761  0.56103  1.0000
  H   H549      1.0  0.17139  0.16588  0.57702  1.0000
  H   H550      1.0  0.18463  0.16432  0.59388  1.0000
  H   H551      1.0  0.17992  0.15203  0.61672  1.0000
  C   C339      1.0  0.08674  0.16822  0.67664  1.0000
  C   C340      1.0  0.08110  0.15712  0.67790  1.0000
  C   C341      1.0  0.07499  0.15656  0.66773  1.0000
  C   C342      1.0  0.07439  0.16719  0.65629  1.0000
  C   C343      1.0  0.08032  0.17812  0.65489  1.0000
  C   C344      1.0  0.08653  0.17861  0.66499  1.0000
  H   H552      1.0  0.08119  0.14906  0.68691  1.0000
  H   H553      1.0  0.07046  0.14809  0.66889  1.0000
  H   H554      1.0  0.07987  0.18638  0.64608  1.0000
  H   H555      1.0  0.09081  0.18722  0.66393  1.0000
  C   C345      1.0  0.25932  0.13549  0.70653  1.0000
  H   H556      1.0  0.22841  0.23213  0.62753  1.0000
  H   H557      1.0  0.16062  0.09726  0.64716  1.0000
  H   H558      1.0  0.08553  0.13556  0.56522  1.0000
  H   H559      1.0  0.17338  0.21838  0.71200  1.0000
  H   H560      1.0  0.13935  0.21495  0.65410  1.0000
  H   H561      1.0  0.16142  0.22086  0.64092  1.0000
  C   C346      1.0  0.19054  0.06888  0.67559  1.0000
  C   C347      1.0  0.17905  0.07954  0.67747  1.0000
  C   C348      1.0  0.16700  0.07973  0.67380  1.0000
  C   C349      1.0  0.16630  0.06931  0.66817  1.0000
  C   C350      1.0  0.17777  0.05864  0.66625  1.0000
  C   C351      1.0  0.18983  0.05841  0.67001  1.0000
  H   H562      1.0  0.17943  0.08757  0.68188  1.0000
  H   H563      1.0  0.15814  0.08798  0.67537  1.0000
  H   H564      1.0  0.17734  0.05056  0.66194  1.0000
  H   H565      1.0  0.19867  0.05011  0.66855  1.0000
  C   C352      1.0  0.21975  0.14446  0.65867  1.0000
  C   C353      1.0  0.22425  0.15370  0.64692  1.0000
  C   C354      1.0  0.21937  0.16771  0.64617  1.0000
  C   C355      1.0  0.21012  0.17253  0.65723  1.0000
  C   C356      1.0  0.20601  0.16328  0.66918  1.0000
  C   C357      1.0  0.21074  0.14925  0.66986  1.0000
  H   H566      1.0  0.23138  0.15004  0.63829  1.0000
  H   H567      1.0  0.22288  0.17475  0.63707  1.0000
  H   H568      1.0  0.19880  0.16697  0.67773  1.0000
  H   H569      1.0  0.20728  0.14218  0.67898  1.0000
  H   H570      1.0  0.24915  0.16028  0.65530  1.0000
  N   N22       1.0  0.16411  0.19510  0.71048  1.0000
  C   C358      1.0  0.15915  0.20435  0.72050  1.0000
  C   C359      1.0  0.15170  0.19095  0.70956  1.0000
  C   C360      1.0  0.17027  0.20314  0.69688  1.0000
  C   C361      1.0  0.17474  0.18315  0.71569  1.0000
  C   C362      1.0  0.16975  0.21149  0.72166  1.0000
  C   C363      1.0  0.13337  0.99239  0.58999  1.0000
  C   C364      1.0  0.17123  0.19812  0.68407  1.0000
  C   C365      1.0  0.12535  0.22899  0.71390  1.0000
  C   C366      1.0  0.01826  0.12887  0.68953  1.0000
  H   H571      1.0  0.12998  0.16692  0.49028  1.0000
  H   H572      1.0  0.15413  0.18501  0.70162  1.0000
  H   H573      1.0  0.14386  0.20014  0.70635  1.0000
  H   H574      1.0  0.16419  0.21384  0.69518  1.0000
  H   H575      1.0  0.18084  0.20379  0.69663  1.0000
  H   H576      1.0  0.18401  0.18653  0.71550  1.0000
  H   H577      1.0  0.35814  0.20496  0.71643  1.0000
  C   C367      1.0  0.33022  0.23005  0.67673  1.0000
  H   H578      1.0  0.02842  0.12438  0.68376  1.0000
  H   H579      1.0  0.14432  0.98729  0.58758  1.0000
  S   S125      1.0  0.12949  0.20905  0.68352  1.0000
  H   H580      1.0  0.01646  0.12472  0.65748  1.0000
  C   C368      1.0  0.23166  0.10951  0.72796  1.0000
  H   H581      1.0  0.14292  0.98735  0.62520  1.0000
  H   H582      1.0  0.10468  0.12959  0.71691  1.0000
  H   H583      1.0  0.17730  0.20406  0.67513  1.0000
  H   H584      1.0  0.19298  0.15029  0.65266  1.0000
  H   H585      1.0  0.18527  0.17566  0.49184  1.0000
  H   H586      1.0  0.15153  0.17285  0.72643  1.0000
  H   H587      1.0  0.23289  0.15875  0.69214  1.0000
  H   H588      1.0  0.00891  0.10414  0.65692  1.0000
  H   H589      1.0  0.01610  0.12251  0.69990  1.0000
  H   H590      1.0  0.16234  0.21763  0.58517  1.0000
  H   H591      1.0  0.14000  0.15745  0.66841  1.0000
  H   H592      1.0  0.15917  0.16309  0.64087  1.0000
  H   H593      1.0  0.14481  0.11727  0.71269  1.0000
  H   H594      1.0  0.19165  0.09231  0.59820  1.0000
  C   C369      1.0  0.15260  0.22338  0.59055  1.0000
  C   C370      1.0  0.12596  0.12466  0.51976  1.0000
  C   C371      1.0  0.01663  0.11608  0.66646  1.0000
  H   H595      1.0  0.26300  0.14220  0.71060  1.0000
  C   C372      1.0  0.18322  0.11073  0.60530  1.0000
  H   H596      1.0  0.10928  0.13129  0.67032  1.0000
  C   C373      1.0  0.17785  0.15681  0.62554  1.0000
  H   H597      1.0  0.11680  0.14811  0.70289  1.0000
  H   H598      1.0  0.18068  0.11662  0.59542  1.0000
  H   H599      1.0  0.08117  0.13348  0.55092  1.0000
  H   H600      1.0  0.99590  0.11123  0.69885  1.0000
  H   H601      1.0  0.38261  0.23377  0.71058  1.0000
  C   C374      1.0  0.13984  0.99403  0.65393  1.0000
  H   H602      1.0  0.12432  0.15293  0.66953  1.0000
  H   H603      1.0  0.16095  0.19995  0.68191  1.0000
  C   C375      1.0  0.01749  0.10314  0.66166  1.0000
  N   N23       1.0  0.00477  0.11953  0.67802  1.0000
  H   H604      1.0  0.17936  0.16733  0.62098  1.0000
  C   C376      1.0  0.00049  0.13006  0.63685  1.0000
  H   H605      1.0  0.17643  0.18732  0.68451  1.0000
  C   C377      1.0  0.38582  0.21583  0.72658  1.0000
  Fe  Fe64      1.0  0.11402  0.21156  0.67136  1.0000
  H   H606      1.0  0.16323  0.08631  0.62638  1.0000
  H   H607      1.0  0.18962  0.08163  0.64691  1.0000
  H   H608      1.0  0.21841  0.13970  0.61229  1.0000
  C   C378      1.0  0.13729  0.20436  0.58716  1.0000
  H   H609      1.0  0.26467  0.09148  0.72268  1.0000
  H   H610      1.0  0.20776  0.12323  0.63885  1.0000
  H   H611      1.0  0.11185  0.17398  0.51755  1.0000
  C   C379      1.0  0.16619  0.10000  0.63643  1.0000
  H   H612      1.0  0.09201  0.12123  0.53466  1.0000
  C   C380      1.0  0.18013  0.17143  0.70802  1.0000
  H   H613      1.0  0.16835  0.12721  0.49768  1.0000
  S   S126      1.0  0.09688  0.20737  0.68944  1.0000
  C   C381      1.0  0.00312  0.10763  0.68983  1.0000
  H   H614      1.0  0.13348  0.22650  0.61697  1.0000
  H   H615      1.0  0.09656  0.16863  0.51907  1.0000
  H   H616      1.0  0.16473  0.21796  0.72928  1.0000
  H   H617      1.0  0.02597  0.10163  0.68859  1.0000
  H   H618      1.0  0.13205  0.13904  0.70831  1.0000
  C   C382      1.0  0.14728  0.11338  0.70329  1.0000
  C   C383      1.0  0.11631  0.22218  0.72425  1.0000
  H   H619      1.0  0.25775  0.10120  0.68319  1.0000
  H   H620      1.0  0.19509  0.11437  0.64985  1.0000
  H   H621      1.0  0.14629  0.22769  0.58283  1.0000
  C   C384      1.0  0.10515  0.16699  0.52403  1.0000
  H   H622      1.0  0.33372  0.22055  0.68395  1.0000
  H   H623      1.0  0.30994  0.22656  0.68242  1.0000
  H   H624      1.0  0.13828  0.11158  0.68806  1.0000
  N   N24       1.0  0.10602  0.14109  0.53215  1.0000
  C   C385      1.0  0.13465  0.11622  0.69716  1.0000
  H   H625      1.0  0.11925  0.15125  0.51497  1.0000
  C   C386      1.0  0.16251  0.15770  0.63237  1.0000
  H   H626      1.0  0.15662  0.21746  0.61611  1.0000
  C   C387      1.0  0.18324  0.09571  0.60666  1.0000
  C   C388      1.0  0.11453  0.13030  0.71847  1.0000
  H   H627      1.0  0.12905  0.99305  0.58122  1.0000
  H   H628      1.0  0.13833  0.19451  0.58451  1.0000
  C   C389      1.0  0.13210  0.22099  0.60992  1.0000
  H   H629      1.0  0.08179  0.22619  0.70793  1.0000
  C   C390      1.0  0.15256  0.15624  0.70048  1.0000
  H   H630      1.0  0.10880  0.14231  0.68677  1.0000
  C   C391      1.0  0.25847  0.12048  0.68669  1.0000
  H   H631      1.0  0.15207  0.18848  0.62336  1.0000
  N   N25       1.0  0.25141  0.13536  0.68538  1.0000
  H   H632      1.0  0.17425  0.10468  0.63688  1.0000
  H   H633      1.0  0.10807  0.12603  0.69642  1.0000
  S   S127      1.0  0.23377  0.23071  0.59897  1.0000
  H   H634      1.0  0.13983  0.19482  0.60724  1.0000
  C   C392      1.0  0.11517  0.13178  0.68845  1.0000
  C   C393      1.0  0.25341  0.11220  0.67975  1.0000
  C   C394      1.0  0.36952  0.22044  0.71237  1.0000
  H   H635      1.0  0.18180  0.17365  0.65390  1.0000
  H   H636      1.0  0.17540  0.11543  0.61322  1.0000
  S   S128      1.0  0.36085  0.23079  0.69968  1.0000
  H   H637      1.0  0.11391  0.11964  0.61984  1.0000
  H   H638      1.0  0.30688  0.22601  0.66322  1.0000
  C   C395      1.0  0.15679  0.14371  0.70900  1.0000
  H   H639      1.0  0.19997  0.06965  0.61150  1.0000
  H   H640      1.0  0.12880  0.22631  0.70406  1.0000
  H   H641      1.0  0.14342  0.13244  0.67466  1.0000
  C   C396      1.0  0.23649  0.13641  0.69249  1.0000
  H   H642      1.0  0.00786  0.14001  0.67333  1.0000
  H   H643      1.0  0.25695  0.11466  0.66853  1.0000
  N   N26       1.0  0.12768  0.13098  0.69342  1.0000
  H   H644      1.0  0.01549  0.09889  0.70532  1.0000
  N   N27       1.0  0.10665  0.15512  0.61541  1.0000
  C   C397      1.0  0.09318  0.15821  0.61117  1.0000
  C   C398      1.0  0.11426  0.14110  0.61312  1.0000
  C   C399      1.0  0.11465  0.16543  0.60623  1.0000
  C   C400      1.0  0.10352  0.15616  0.63008  1.0000
  C   C401      1.0  0.08487  0.17305  0.60988  1.0000
  C   C402      1.0  0.12935  0.16368  0.60780  1.0000
  C   C403      1.0  0.11484  0.14869  0.63816  1.0000
  H   H645      1.0  0.09492  0.15571  0.60115  1.0000
  H   H646      1.0  0.08618  0.15179  0.61834  1.0000
  H   H647      1.0  0.11670  0.14097  0.60210  1.0000
  H   H648      1.0  0.11530  0.16560  0.59539  1.0000
  H   H649      1.0  0.10927  0.17587  0.60774  1.0000
  H   H650      1.0  0.10056  0.16701  0.63093  1.0000
  H   H651      1.0  0.09437  0.15191  0.63589  1.0000
  H   H652      1.0  0.08923  0.17959  0.60025  1.0000
  H   H653      1.0  0.07420  0.17341  0.60953  1.0000
  H   H654      1.0  0.08425  0.17740  0.61858  1.0000
  H   H655      1.0  0.13605  0.15371  0.60619  1.0000
  H   H656      1.0  0.12936  0.16560  0.61765  1.0000
  H   H657      1.0  0.13413  0.17146  0.59982  1.0000
  H   H658      1.0  0.11491  0.15508  0.64500  1.0000
  H   H659      1.0  0.12536  0.14635  0.63200  1.0000
  H   H660      1.0  0.20525  0.15207  0.60460  1.0000
  C   C404      1.0  0.18032  0.06814  0.60999  1.0000
  C   C405      1.0  0.20207  0.15009  0.62659  1.0000
  H   H661      1.0  0.13132  0.11376  0.52138  1.0000
  C   C406      1.0  0.17162  0.08706  0.63052  1.0000
  H   H662      1.0  0.11188  0.11900  0.53849  1.0000
  C   C407      1.0  0.14452  0.18245  0.72272  1.0000
  H   H663      1.0  0.10072  0.14513  0.51270  1.0000
  H   H664      1.0  0.15550  0.19565  0.59500  1.0000
  H   H665      1.0  0.14170  0.21091  0.57760  1.0000
  H   H666      1.0  0.22190  0.11038  0.72567  1.0000
  H   H667      1.0  0.12183  0.15149  0.53095  1.0000
  H   H668      1.0  0.13407  0.13057  0.51608  1.0000
  H   H669      1.0  0.12731  0.11019  0.70434  1.0000
  H   H670      1.0  0.12026  0.12666  0.51169  1.0000
  H   H671      1.0  0.34000  0.23370  0.72675  1.0000
  H   H672      1.0  0.16955  0.16954  0.49587  1.0000
  H   H673      1.0  0.11810  0.11493  0.67851  1.0000
  H   H674      1.0  0.11195  0.23162  0.60600  1.0000
  H   H675      1.0  0.14587  0.13929  0.68704  1.0000
  H   H676      1.0  0.17244  0.16971  0.70368  1.0000
  H   H677      1.0  0.10607  0.14339  0.55191  1.0000
  H   H678      1.0  0.15885  0.10765  0.63075  1.0000
  C   C408      1.0  0.09608  0.14195  0.52371  1.0000
  H   H679      1.0  0.08669  0.15003  0.52594  1.0000
  N   N28       1.0  0.14597  0.21400  0.60275  1.0000
  C   C409      1.0  0.09002  0.13290  0.55512  1.0000
  C   C410      1.0  0.09858  0.14326  0.54621  1.0000
  N   N29       1.0  0.18496  0.08602  0.62001  1.0000
  H   H680      1.0  0.25160  0.16319  0.67027  1.0000
  N   N30       1.0  0.18774  0.14915  0.63456  1.0000
  H   H681      1.0  0.18217  0.14927  0.48668  1.0000
  H   H682      1.0  0.19851  0.12772  0.65497  1.0000
  H   H683      1.0  0.11070  0.99013  0.62722  1.0000
  H   H684      1.0  0.01741  0.08794  0.69430  1.0000
  C   C411      1.0  0.18625  0.13458  0.63936  1.0000
  H   H685      1.0  0.17481  0.17654  0.63950  1.0000
  C   C412      1.0  0.15188  0.22771  0.63913  1.0000
  H   H686      1.0  0.18548  0.13047  0.63097  1.0000
  C   C413      1.0  0.00645  0.13145  0.68232  1.0000
  C   C414      1.0  0.18702  0.15817  0.48303  1.0000
  C   C415      1.0  0.36582  0.20807  0.71927  1.0000
  H   H687      1.0  0.20166  0.06842  0.63881  1.0000
  H   H688      1.0  0.12728  0.12780  0.66821  1.0000
  C   C416      1.0  0.14501  0.20173  0.59849  1.0000
  H   H689      1.0  0.17646  0.13387  0.64701  1.0000
  H   H690      1.0  0.13528  0.01275  0.61588  1.0000
  H   H691      1.0  0.20734  0.08194  0.64116  1.0000
  C   C417      1.0  0.18478  0.15514  0.64687  1.0000
  H   H692      1.0  0.20972  0.14558  0.63309  1.0000
  C   C418      1.0  0.14290  0.14923  0.48294  1.0000
  H   H693      1.0  0.02661  0.11496  0.66879  1.0000
  H   H694      1.0  0.12435  0.22999  0.59064  1.0000
  H   H695      1.0  0.18369  0.05713  0.60985  1.0000
  H   H696      1.0  0.23547  0.12805  0.70170  1.0000
  C   C419      1.0  0.25286  0.14167  0.67042  1.0000
  H   H697      1.0  0.09625  0.12238  0.55699  1.0000
  H   H698      1.0  0.15029  0.14061  0.71880  1.0000
  H   H699      1.0  0.20627  0.08640  0.61716  1.0000
  H   H700      1.0  0.14288  0.16276  0.70379  1.0000
  C   C420      1.0  0.20719  0.14404  0.61372  1.0000
  H   H701      1.0  0.09713  0.12390  0.51634  1.0000
  C   C421      1.0  0.01629  0.09871  0.69459  1.0000
  H   H702      1.0  0.23071  0.13489  0.68579  1.0000
  H   H703      1.0  0.33299  0.22754  0.66656  1.0000
  C   C422      1.0  0.24692  0.15705  0.66656  1.0000
  H   H704      1.0  0.12343  0.12763  0.53987  1.0000
  C   C423      1.0  0.18361  0.17060  0.64410  1.0000
  Fe  Fe65      1.0  0.19408  0.10822  0.70308  1.0000
  H   H705      1.0  0.16003  0.14752  0.63599  1.0000
  C   C424      1.0  0.17376  0.15181  0.68390  1.0000
  H   H706      1.0  0.17208  0.07814  0.63920  1.0000
  H   H707      1.0  0.12615  0.20841  0.59061  1.0000
  C   C425      1.0  0.11658  0.12783  0.53330  1.0000
  H   H708      1.0  0.24212  0.11361  0.68251  1.0000
  C   C426      1.0  0.16097  0.16018  0.68777  1.0000
  S   S129      1.0  0.15590  0.17534  0.67640  1.0000
  H   H709      1.0  0.19352  0.11204  0.60500  1.0000
  C   C427      1.0  0.16933  0.13506  0.70472  1.0000
  C   C428      1.0  0.17787  0.13923  0.69226  1.0000
  S   S130      1.0  0.19915  0.22268  0.59877  1.0000
  C   C429      1.0  0.18920  0.07172  0.61753  1.0000
  H   H710      1.0  0.15751  0.19701  0.63272  1.0000
  C   C430      1.0  0.19640  0.08824  0.62476  1.0000
  H   H711      1.0  0.17356  0.09564  0.60417  1.0000
  H   H712      1.0  0.18767  0.13276  0.68903  1.0000
  H   H713      1.0  0.24906  0.13443  0.71291  1.0000
  C   C431      1.0  0.10672  0.12957  0.62088  1.0000
  H   H714      1.0  0.12442  0.13798  0.61578  1.0000
  H   H715      1.0  0.15579  0.11759  0.69588  1.0000
  H   H716      1.0  0.10303  0.12952  0.63186  1.0000
  C   C432      1.0  0.12312  0.13765  0.70547  1.0000
  C   C433      1.0  0.09140  0.12879  0.52505  1.0000
  Fe  Fe66      1.0  0.13439  0.18718  0.68213  1.0000
  H   H717      1.0  0.20297  0.16087  0.62300  1.0000
  C   C434      1.0  0.13157  0.15285  0.67554  1.0000
  H   H718      1.0  0.11229  0.13915  0.64497  1.0000
  S   S131      1.0  0.10925  0.20987  0.72148  1.0000
  N   N31       1.0  0.08826  0.08242  0.61381  1.0000
  C   C435      1.0  0.07745  0.07770  0.62588  1.0000
  C   C436      1.0  0.09790  0.06998  0.60927  1.0000
  C   C437      1.0  0.08103  0.09069  0.60259  1.0000
  C   C438      1.0  0.09541  0.09086  0.61792  1.0000
  C   C439      1.0  0.06578  0.08899  0.63140  1.0000
  C   C440      1.0  0.10421  0.05911  0.62039  1.0000
  C   C441      1.0  0.09009  0.09647  0.58906  1.0000
  C   C442      1.0  0.11042  0.09110  0.61040  1.0000
  H   H719      1.0  0.07260  0.07067  0.62351  1.0000
  H   H720      1.0  0.08212  0.07174  0.63464  1.0000
  H   H721      1.0  0.10657  0.07264  0.60085  1.0000
  H   H722      1.0  0.09253  0.06485  0.60502  1.0000
  H   H723      1.0  0.07509  0.08458  0.60030  1.0000
  H   H724      1.0  0.07335  0.09964  0.60574  1.0000
  H   H725      1.0  0.08953  0.10158  0.61695  1.0000
  H   H726      1.0  0.09568  0.08737  0.62886  1.0000
  H   H727      1.0  0.06971  0.09706  0.63305  1.0000
  H   H728      1.0  0.05839  0.09358  0.62468  1.0000
  H   H729      1.0  0.05985  0.08447  0.64140  1.0000
  H   H730      1.0  0.10777  0.06358  0.62684  1.0000
  H   H731      1.0  0.09678  0.05294  0.62702  1.0000
  H   H732      1.0  0.11315  0.05204  0.61550  1.0000
  H   H733      1.0  0.09424  0.10467  0.59013  1.0000
  H   H734      1.0  0.08358  0.10133  0.58150  1.0000
  H   H735      1.0  0.09845  0.08859  0.58474  1.0000
  H   H736      1.0  0.11745  0.08126  0.61339  1.0000
  H   H737      1.0  0.11371  0.09884  0.61339  1.0000
  H   H738      1.0  0.11200  0.09377  0.59922  1.0000
  H   H739      1.0  0.20248  0.13565  0.61424  1.0000
  H   H740      1.0  0.24760  0.13696  0.66564  1.0000
  H   H741      1.0  0.26388  0.13972  0.66506  1.0000
  C   C443      1.0  0.25895  0.14170  0.69146  1.0000
  S   S132      1.0  0.11909  0.18116  0.70106  1.0000
  S   S133      1.0  0.17412  0.11885  0.71457  1.0000
  H   H742      1.0  0.15632  0.16355  0.62472  1.0000
  S   S134      1.0  0.20457  0.08643  0.70982  1.0000
  H   H743      1.0  0.22755  0.14813  0.70856  1.0000
  H   H744      1.0  0.26980  0.14095  0.68565  1.0000
  Fe  Fe67      1.0  0.11299  0.20338  0.70151  1.0000
  H   H745      1.0  0.25469  0.15274  0.69069  1.0000
  H   H746      1.0  0.12137  0.00924  0.61136  1.0000
  H   H747      1.0  0.25719  0.11510  0.69755  1.0000
  H   H748      1.0  0.18908  0.06403  0.62727  1.0000
  H   H749      1.0  0.26975  0.11923  0.68257  1.0000
  H   H750      1.0  0.16598  0.20422  0.60742  1.0000
  H   H751      1.0  0.18932  0.17311  0.69984  1.0000
  C   C444      1.0  0.19764  0.12454  0.64608  1.0000
  Fe  Fe68      1.0  0.22382  0.09462  0.70356  1.0000
  H   H752      1.0  0.23559  0.15952  0.66992  1.0000
  C   C445      1.0  0.12287  0.23167  0.60093  1.0000
  H   H753      1.0  0.01808  0.09393  0.66990  1.0000
  H   H754      1.0  0.28785  0.23401  0.69385  1.0000
  H   H755      1.0  0.99710  0.13549  0.68953  1.0000
  H   H756      1.0  0.18306  0.16170  0.71522  1.0000
  H   H757      1.0  0.12287  0.00506  0.62889  1.0000
  H   H758      1.0  0.15020  0.21252  0.71795  1.0000
  H   H759      1.0  0.19804  0.15390  0.48323  1.0000
  C   C446      1.0  0.07496  0.23484  0.71235  1.0000
  H   H760      1.0  0.18333  0.16023  0.50382  1.0000
  H   H761      1.0  0.14624  0.99291  0.60748  1.0000
  H   H762      1.0  0.06962  0.23029  0.72266  1.0000
  C   C447      1.0  0.12866  0.00536  0.61819  1.0000
  H   H763      1.0  0.15125  0.10221  0.70606  1.0000
  C   C448      1.0  0.99728  0.14392  0.63693  1.0000
  C   C449      1.0  0.25572  0.09882  0.72639  1.0000
  C   C450      1.0  0.12694  0.23340  0.64470  1.0000
  H   H764      1.0  0.31256  0.23254  0.64586  1.0000
  H   H765      1.0  0.17113  0.17872  0.72665  1.0000
  C   C451      1.0  0.18089  0.16662  0.49406  1.0000
  H   H766      1.0  0.12030  0.12007  0.72263  1.0000
  H   H767      1.0  0.99817  0.10068  0.68746  1.0000
  C   C452      1.0  0.13779  0.99125  0.61650  1.0000
  H   H768      1.0  0.17862  0.20415  0.72531  1.0000
  H   H769      1.0  0.39357  0.21884  0.72942  1.0000
  H   H770      1.0  0.11187  0.13632  0.72642  1.0000
  H   H771      1.0  0.28600  0.23440  0.67710  1.0000
  Fe  Fe69      1.0  0.35663  0.11843  0.93435  1.0000
  S   S135      1.0  0.35401  0.13849  0.91976  1.0000
  S   S136      1.0  0.36263  0.09889  0.92670  1.0000
  Fe  Fe70      1.0  0.34922  0.13160  0.95898  1.0000
  S   S137      1.0  0.34572  0.15267  0.94599  1.0000
  Fe  Fe71      1.0  0.33500  0.14468  0.93512  1.0000
  S   S138      1.0  0.31470  0.15658  0.92995  1.0000
  Fe  Fe72      1.0  0.36500  0.14455  0.93181  1.0000
  S   S139      1.0  0.38041  0.15729  0.92015  1.0000
  S   S140      1.0  0.33683  0.12415  0.94917  1.0000
  S   S141      1.0  0.36934  0.12391  0.94544  1.0000
  Fe  Fe73      1.0  0.37641  0.07305  0.84132  1.0000
  S   S142      1.0  0.36011  0.09200  0.84180  1.0000
  S   S143      1.0  0.39865  0.07235  0.83064  1.0000
  Fe  Fe74      1.0  0.35578  0.05478  0.85405  1.0000
  S   S144      1.0  0.33768  0.07272  0.85575  1.0000
  Fe  Fe75      1.0  0.34792  0.08189  0.83466  1.0000
  S   S145      1.0  0.33862  0.09689  0.81780  1.0000
  Fe  Fe76      1.0  0.35106  0.08173  0.86277  1.0000
  S   S146      1.0  0.34156  0.09696  0.87635  1.0000
  S   S147      1.0  0.36510  0.06350  0.83238  1.0000
  S   S148      1.0  0.36839  0.06314  0.86291  1.0000
  Fe  Fe77      1.0  0.46370  0.13372  0.84545  1.0000
  S   S149      1.0  0.44583  0.14664  0.85730  1.0000
  Fe  Fe78      1.0  0.44499  0.11636  0.84315  1.0000
  S   S150      1.0  0.42613  0.12766  0.85527  1.0000
  S   S151      1.0  0.44481  0.10032  0.83257  1.0000
  Fe  Fe79      1.0  0.43381  0.14622  0.84276  1.0000
  S   S152      1.0  0.42034  0.16497  0.83275  1.0000
  Fe  Fe80      1.0  0.44002  0.12686  0.86850  1.0000
  S   S153      1.0  0.43416  0.12096  0.89121  1.0000
  S   S154      1.0  0.45203  0.13501  0.82984  1.0000
  S   S155      1.0  0.45853  0.11380  0.85751  1.0000
  Fe  Fe81      1.0  0.28287  0.11542  0.77730  1.0000
  S   S156      1.0  0.28561  0.11659  0.75490  1.0000
  S   S157      1.0  0.29010  0.09628  0.79234  1.0000
  Fe  Fe82      1.0  0.26678  0.14483  0.77552  1.0000
  H   H772      1.0  0.41564  0.99201  0.84195  1.0000
  S   S158      1.0  0.25754  0.16233  0.78603  1.0000
  Fe  Fe83      1.0  0.26340  0.12776  0.75782  1.0000
  H   H773      1.0  0.34863  0.01488  0.82625  1.0000
  Fe  Fe84      1.0  0.28997  0.13712  0.75232  1.0000
  H   H774      1.0  0.20937  0.22622  0.86318  1.0000
  S   S159      1.0  0.26030  0.12513  0.78042  1.0000
  S   S160      1.0  0.28892  0.13501  0.77440  1.0000
  H   H775      1.0  0.40296  0.11406  0.81124  1.0000
  H   H776      1.0  0.40539  0.10988  0.79526  1.0000
  H   H777      1.0  0.36435  0.21385  0.76110  1.0000
  H   H778      1.0  0.38472  0.08075  0.80680  1.0000
  H   H779      1.0  0.35551  0.22094  0.74156  1.0000
  H   H780      1.0  0.35006  0.03317  0.83631  1.0000
  H   H781      1.0  0.38594  0.12782  0.77777  1.0000
  H   H782      1.0  0.25995  0.09724  0.79652  1.0000
  C   C453      1.0  0.44968  0.13622  0.90976  1.0000
  C   C454      1.0  0.35077  0.01233  0.83627  1.0000
  C   C455      1.0  0.35532  0.99558  0.85640  1.0000
  Fe  Fe85      1.0  0.36660  0.16843  0.79402  1.0000
  S   S161      1.0  0.37442  0.16208  0.77403  1.0000
  S   S162      1.0  0.37465  0.15333  0.81143  1.0000
  Fe  Fe86      1.0  0.34532  0.19251  0.78317  1.0000
  S   S163      1.0  0.35087  0.18750  0.76258  1.0000
  S   S164      1.0  0.32985  0.21216  0.78485  1.0000
  Fe  Fe87      1.0  0.35217  0.16584  0.77394  1.0000
  S   S165      1.0  0.34520  0.14784  0.77303  1.0000
  Fe  Fe88      1.0  0.37250  0.18430  0.76462  1.0000
  H   H783      1.0  0.30390  0.00196  0.83050  1.0000
  S   S166      1.0  0.34436  0.17119  0.79440  1.0000
  S   S167      1.0  0.36691  0.19035  0.78474  1.0000
  H   H784      1.0  0.32239  0.16647  0.73446  1.0000
  Fe  Fe89      1.0  0.25621  0.18264  0.87254  1.0000
  S   S168      1.0  0.26813  0.16099  0.87443  1.0000
  S   S169      1.0  0.23808  0.18773  0.88938  1.0000
  Fe  Fe90      1.0  0.27342  0.19185  0.84504  1.0000
  S   S170      1.0  0.28675  0.17109  0.84417  1.0000
  S   S171      1.0  0.27409  0.21058  0.82841  1.0000
  Fe  Fe91      1.0  0.26727  0.16383  0.85281  1.0000
  S   S172      1.0  0.26465  0.14618  0.84646  1.0000
  Fe  Fe92      1.0  0.28679  0.16975  0.86588  1.0000
  S   S173      1.0  0.30676  0.15820  0.87185  1.0000
  S   S174      1.0  0.25370  0.18473  0.85158  1.0000
  S   S175      1.0  0.27505  0.19131  0.86609  1.0000
  C   C456      1.0  0.49305  0.13314  0.86268  1.0000
  H   H785      1.0  0.25966  0.06384  0.77841  1.0000
  H   H786      1.0  0.40751  0.01426  0.86950  1.0000
  C   C457      1.0  0.22565  0.20302  0.88689  1.0000
  C   C458      1.0  0.22266  0.20957  0.87413  1.0000
  H   H787      1.0  0.25197  0.08015  0.75976  1.0000
  H   H788      1.0  0.27274  0.07532  0.79353  1.0000
  C   C459      1.0  0.11211  0.22573  0.73701  1.0000
  H   H789      1.0  0.22836  0.20539  0.86534  1.0000
  H   H790      1.0  0.44969  0.11466  0.91555  1.0000
  C   C460      1.0  0.31473  0.21144  0.79745  1.0000
  C   C461      1.0  0.31376  0.20025  0.80834  1.0000
  C   C462      1.0  0.30139  0.20000  0.81815  1.0000
  C   C463      1.0  0.28996  0.21081  0.81689  1.0000
  C   C464      1.0  0.29102  0.22197  0.80601  1.0000
  C   C465      1.0  0.30339  0.22232  0.79637  1.0000
  H   H791      1.0  0.32255  0.19189  0.80931  1.0000
  H   H792      1.0  0.30073  0.19146  0.82664  1.0000
  H   H793      1.0  0.48542  0.12704  0.86682  1.0000
  H   H794      1.0  0.40280  0.03751  0.86364  1.0000
  H   H795      1.0  0.35799  0.19130  0.93341  1.0000
  H   H796      1.0  0.32215  0.98964  0.85823  1.0000
  H   H797      1.0  0.31902  0.19973  0.76542  1.0000
  H   H798      1.0  0.43447  0.16031  0.89052  1.0000
  H   H799      1.0  0.34755  0.19053  0.95009  1.0000
  H   H800      1.0  0.23439  0.22251  0.82774  1.0000
  H   H801      1.0  0.38384  0.11470  0.76167  1.0000
  H   H802      1.0  0.44663  0.13681  0.75945  1.0000
  H   H803      1.0  0.37055  0.09969  0.81331  1.0000
  H   H804      1.0  0.42999  0.17471  0.89821  1.0000
  H   H805      1.0  0.10516  0.22049  0.74512  1.0000
  C   C466      1.0  0.35157  0.02274  0.84195  1.0000
  H   H806      1.0  0.43047  0.13481  0.76963  1.0000
  H   H807      1.0  0.24285  0.09679  0.76178  1.0000
  H   H808      1.0  0.39408  0.11049  0.78022  1.0000
  H   H809      1.0  0.41192  0.04811  0.84996  1.0000
  H   H810      1.0  0.47053  0.13671  0.88465  1.0000
  C   C467      1.0  0.43733  0.14201  0.76594  1.0000
  C   C468      1.0  0.25678  0.07086  0.78553  1.0000
  C   C469      1.0  0.26850  0.06688  0.79328  1.0000
  C   C470      1.0  0.35400  0.01967  0.85503  1.0000
  C   C471      1.0  0.26288  0.15067  0.82961  1.0000
  C   C472      1.0  0.26564  0.14056  0.82226  1.0000
  C   C473      1.0  0.26415  0.14410  0.80878  1.0000
  C   C474      1.0  0.25950  0.15772  0.80281  1.0000
  C   C475      1.0  0.25660  0.16780  0.81023  1.0000
  C   C476      1.0  0.25855  0.16431  0.82353  1.0000
  H   H811      1.0  0.26905  0.13000  0.82692  1.0000
  H   H812      1.0  0.26644  0.13628  0.80307  1.0000
  H   H813      1.0  0.25298  0.17834  0.80563  1.0000
  H   H814      1.0  0.25646  0.17216  0.82912  1.0000
  C   C477      1.0  0.31844  0.14693  0.74580  1.0000
  C   C478      1.0  0.32135  0.13601  0.75647  1.0000
  C   C479      1.0  0.32990  0.13638  0.76444  1.0000
  C   C480      1.0  0.33555  0.14768  0.76187  1.0000
  C   C481      1.0  0.33313  0.15845  0.75087  1.0000
  H   H815      1.0  0.22360  0.12481  0.74001  1.0000
  H   H816      1.0  0.31695  0.12726  0.75862  1.0000
  H   H817      1.0  0.33195  0.12793  0.77278  1.0000
  C   C482      1.0  0.38653  0.02682  0.83652  1.0000
  H   H818      1.0  0.44613  0.13780  0.92039  1.0000
  H   H819      1.0  0.42735  0.15862  0.90852  1.0000
  H   H820      1.0  0.44495  0.11814  0.78953  1.0000
  H   H821      1.0  0.36798  0.12430  0.76945  1.0000
  S   S176      1.0  0.35479  0.03240  0.86291  1.0000
  S   S177      1.0  0.38824  0.19400  0.74813  1.0000
  H   H822      1.0  0.22383  0.08797  0.77853  1.0000
  H   H823      1.0  0.25150  0.23455  0.82474  1.0000
  N   N32       1.0  0.36875  0.17184  0.96332  1.0000
  S   S178      1.0  0.48497  0.13867  0.83831  1.0000
  C   C483      1.0  0.45723  0.12118  0.91041  1.0000
  C   C484      1.0  0.40743  0.16184  0.82702  1.0000
  C   C485      1.0  0.39856  0.17271  0.82041  1.0000
  C   C486      1.0  0.38843  0.17026  0.81548  1.0000
  C   C487      1.0  0.38699  0.15695  0.81748  1.0000
  C   C488      1.0  0.39572  0.14614  0.82426  1.0000
  C   C489      1.0  0.40605  0.14856  0.82881  1.0000
  H   H824      1.0  0.39961  0.18301  0.81898  1.0000
  H   H825      1.0  0.38167  0.17865  0.81029  1.0000
  H   H826      1.0  0.39468  0.13582  0.82574  1.0000
  H   H827      1.0  0.41301  0.14011  0.83360  1.0000
  C   C490      1.0  0.41054  0.08089  0.83197  1.0000
  C   C491      1.0  0.40727  0.09067  0.83993  1.0000
  C   C492      1.0  0.41755  0.09698  0.84029  1.0000
  C   C493      1.0  0.43104  0.09341  0.83274  1.0000
  C   C494      1.0  0.43404  0.08382  0.82475  1.0000
  C   C495      1.0  0.42392  0.07767  0.82435  1.0000
  H   H828      1.0  0.39693  0.09329  0.84582  1.0000
  H   H829      1.0  0.41511  0.10441  0.84648  1.0000
  H   H830      1.0  0.44437  0.08102  0.81888  1.0000
  H   H831      1.0  0.42656  0.07022  0.81813  1.0000
  C   C496      1.0  0.32529  0.09604  0.81094  1.0000
  C   C497      1.0  0.31780  0.08585  0.81636  1.0000
  C   C498      1.0  0.30704  0.08596  0.81059  1.0000
  C   C499      1.0  0.30370  0.09624  0.79943  1.0000
  C   C500      1.0  0.31131  0.10631  0.79402  1.0000
  C   C501      1.0  0.32200  0.10621  0.79977  1.0000
  H   H832      1.0  0.32027  0.07794  0.82497  1.0000
  H   H833      1.0  0.30126  0.07808  0.81480  1.0000
  H   H834      1.0  0.30914  0.11408  0.78527  1.0000
  H   H835      1.0  0.32776  0.11410  0.79552  1.0000
  C   C502      1.0  0.39538  0.14733  0.91200  1.0000
  C   C503      1.0  0.40233  0.15261  0.89891  1.0000
  C   C504      1.0  0.41408  0.14445  0.89225  1.0000
  C   C505      1.0  0.41910  0.13117  0.89887  1.0000
  C   C506      1.0  0.41236  0.12606  0.91206  1.0000
  C   C507      1.0  0.40041  0.13405  0.91854  1.0000
  H   H836      1.0  0.39846  0.16290  0.89383  1.0000
  H   H837      1.0  0.41935  0.14848  0.88209  1.0000
  H   H838      1.0  0.41627  0.11582  0.91723  1.0000
  H   H839      1.0  0.39523  0.12997  0.92869  1.0000
  C   C508      1.0  0.35801  0.09883  0.91176  1.0000
  C   C509      1.0  0.34968  0.11027  0.90528  1.0000
  C   C510      1.0  0.34527  0.10971  0.89400  1.0000
  C   C511      1.0  0.34910  0.09769  0.88914  1.0000
  C   C512      1.0  0.35788  0.08638  0.89525  1.0000
  C   C513      1.0  0.36228  0.08695  0.90657  1.0000
  H   H840      1.0  0.34630  0.11944  0.90919  1.0000
  H   H841      1.0  0.33859  0.11853  0.88921  1.0000
  H   H842      1.0  0.36087  0.07705  0.89159  1.0000
  H   H843      1.0  0.36876  0.07805  0.91151  1.0000
  C   C514      1.0  0.31260  0.15726  0.91367  1.0000
  C   C515      1.0  0.32281  0.15004  0.90476  1.0000
  C   C516      1.0  0.32096  0.15057  0.89189  1.0000
  C   C517      1.0  0.30880  0.15819  0.88789  1.0000
  C   C518      1.0  0.29846  0.16526  0.89684  1.0000
  C   C519      1.0  0.30038  0.16480  0.90971  1.0000
  H   H844      1.0  0.33208  0.14397  0.90780  1.0000
  H   H845      1.0  0.32893  0.14500  0.88504  1.0000
  H   H846      1.0  0.28902  0.17112  0.89382  1.0000
  H   H847      1.0  0.29240  0.17035  0.91658  1.0000
  C   C520      1.0  0.24433  0.09461  0.78727  1.0000
  H   H848      1.0  0.43165  0.14647  0.81097  1.0000
  C   C521      1.0  0.35821  0.19004  0.94422  1.0000
  N   N33       1.0  0.21923  0.16579  0.86824  1.0000
  C   C522      1.0  0.22817  0.16277  0.87830  1.0000
  C   C523      1.0  0.21333  0.18092  0.86558  1.0000
  C   C524      1.0  0.22830  0.16163  0.85535  1.0000
  C   C525      1.0  0.20833  0.15763  0.87438  1.0000
  C   C526      1.0  0.23638  0.14797  0.88160  1.0000
  C   C527      1.0  0.20336  0.18649  0.87779  1.0000
  C   C528      1.0  0.22329  0.16830  0.84204  1.0000
  C   C529      1.0  0.19679  0.16047  0.86676  1.0000
  H   H849      1.0  0.23577  0.16934  0.87461  1.0000
  H   H850      1.0  0.22203  0.16517  0.88823  1.0000
  H   H851      1.0  0.20769  0.18433  0.85731  1.0000
  H   H852      1.0  0.22178  0.18651  0.86186  1.0000
  H   H853      1.0  0.23853  0.16402  0.85336  1.0000
  H   H854      1.0  0.23041  0.15042  0.85639  1.0000
  H   H855      1.0  0.21302  0.14658  0.87525  1.0000
  H   H856      1.0  0.20348  0.15848  0.88511  1.0000
  H   H857      1.0  0.22961  0.14072  0.88665  1.0000
  H   H858      1.0  0.24365  0.14472  0.87250  1.0000
  H   H859      1.0  0.24268  0.14728  0.88884  1.0000
  H   H860      1.0  0.19925  0.19755  0.87438  1.0000
  H   H861      1.0  0.19442  0.18167  0.88190  1.0000
  H   H862      1.0  0.20855  0.18550  0.88602  1.0000
  H   H863      1.0  0.22435  0.17903  0.83849  1.0000
  H   H864      1.0  0.21265  0.16781  0.84279  1.0000
  H   H865      1.0  0.22993  0.16287  0.83396  1.0000
  H   H866      1.0  0.19969  0.15396  0.85921  1.0000
  H   H867      1.0  0.19373  0.17123  0.86170  1.0000
  H   H868      1.0  0.18734  0.15817  0.87419  1.0000
  C   C530      1.0  0.24973  0.09475  0.79946  1.0000
  C   C531      1.0  0.38383  0.11742  0.78154  1.0000
  H   H869      1.0  0.41396  0.16095  0.79863  1.0000
  S   S179      1.0  0.24539  0.12624  0.75055  1.0000
  C   C532      1.0  0.23265  0.11767  0.73609  1.0000
  H   H870      1.0  0.45391  0.16875  0.89573  1.0000
  H   H871      1.0  0.41522  0.01844  0.83000  1.0000
  H   H872      1.0  0.45364  0.16499  0.87394  1.0000
  H   H873      1.0  0.47078  0.16270  0.87602  1.0000
  N   N34       1.0  0.30853  0.11297  0.92847  1.0000
  C   C533      1.0  0.32094  0.10322  0.93314  1.0000
  C   C534      1.0  0.30598  0.12542  0.93414  1.0000
  C   C535      1.0  0.31227  0.11689  0.91317  1.0000
  C   C536      1.0  0.29667  0.10598  0.93335  1.0000
  C   C537      1.0  0.32595  0.08961  0.92837  1.0000
  C   C538      1.0  0.30098  0.12357  0.94971  1.0000
  C   C539      1.0  0.30093  0.12622  0.90593  1.0000
  C   C540      1.0  0.28206  0.11512  0.93354  1.0000
  H   H874      1.0  0.32986  0.10815  0.92999  1.0000
  H   H875      1.0  0.31897  0.10032  0.94441  1.0000
  H   H876      1.0  0.29858  0.13412  0.92962  1.0000
  H   H877      1.0  0.31557  0.12925  0.93129  1.0000
  H   H878      1.0  0.32098  0.12207  0.90991  1.0000
  H   H879      1.0  0.31578  0.10781  0.90857  1.0000
  H   H880      1.0  0.29808  0.09849  0.92706  1.0000
  H   H881      1.0  0.29660  0.09982  0.94388  1.0000
  H   H882      1.0  0.33029  0.09094  0.91729  1.0000
  H   H883      1.0  0.33452  0.08326  0.93325  1.0000
  H   H884      1.0  0.31786  0.08373  0.93140  1.0000
  H   H885      1.0  0.30891  0.11682  0.95517  1.0000
  H   H886      1.0  0.29881  0.13364  0.95237  1.0000
  H   H887      1.0  0.29137  0.11984  0.95359  1.0000
  H   H888      1.0  0.30555  0.12893  0.89491  1.0000
  H   H889      1.0  0.29645  0.13595  0.90931  1.0000
  H   H890      1.0  0.29279  0.12094  0.90680  1.0000
  H   H891      1.0  0.27696  0.11205  0.92724  1.0000
  H   H892      1.0  0.28161  0.12612  0.92977  1.0000
  H   H893      1.0  0.27563  0.11367  0.94402  1.0000
  N   N35       1.0  0.31185  0.12424  0.84853  1.0000
  C   C541      1.0  0.31948  0.13171  0.85331  1.0000
  C   C542      1.0  0.29675  0.12951  0.85381  1.0000
  C   C543      1.0  0.31528  0.12757  0.83318  1.0000
  C   C544      1.0  0.31654  0.10922  0.85395  1.0000
  C   C545      1.0  0.33511  0.12943  0.84750  1.0000
  C   C546      1.0  0.29179  0.12700  0.86940  1.0000
  C   C547      1.0  0.30531  0.12538  0.82594  1.0000
  C   C548      1.0  0.30867  0.09960  0.85216  1.0000
  H   H894      1.0  0.31527  0.14289  0.85077  1.0000
  H   H895      1.0  0.31813  0.12888  0.86455  1.0000
  H   H896      1.0  0.29023  0.12524  0.85014  1.0000
  H   H897      1.0  0.29386  0.14066  0.84977  1.0000
  H   H898      1.0  0.31582  0.13847  0.82929  1.0000
  H   H899      1.0  0.32563  0.12160  0.82919  1.0000
  H   H900      1.0  0.32745  0.10556  0.84903  1.0000
  H   H901      1.0  0.31676  0.10703  0.86490  1.0000
  H   H902      1.0  0.34041  0.11861  0.84998  1.0000
  H   H903      1.0  0.33760  0.13347  0.83640  1.0000
  H   H904      1.0  0.33940  0.13513  0.85219  1.0000
  H   H905      1.0  0.29457  0.11612  0.87431  1.0000
  H   H906      1.0  0.29567  0.13326  0.87380  1.0000
  H   H907      1.0  0.28041  0.13018  0.87194  1.0000
  H   H908      1.0  0.29526  0.13272  0.82745  1.0000
  H   H909      1.0  0.30374  0.11490  0.82889  1.0000
  H   H910      1.0  0.30975  0.12728  0.81483  1.0000
  H   H911      1.0  0.31380  0.09568  0.84275  1.0000
  H   H912      1.0  0.29776  0.10406  0.85206  1.0000
  H   H913      1.0  0.30861  0.09080  0.86093  1.0000
  H   H914      1.0  0.33772  0.16708  0.74870  1.0000
  H   H915      1.0  0.40300  0.99982  0.86717  1.0000
  N   N36       1.0  0.45768  0.14666  0.90080  1.0000
  H   H916      1.0  0.47485  0.16490  0.89846  1.0000
  H   H917      1.0  0.23353  0.07050  0.77896  1.0000
  H   H918      1.0  0.46771  0.15429  0.86503  1.0000
  H   H919      1.0  0.22832  0.08093  0.76393  1.0000
  H   H920      1.0  0.38274  0.03335  0.81617  1.0000
  N   N37       1.0  0.39689  0.02423  0.84505  1.0000
  S   S180      1.0  0.30625  0.14703  0.73714  1.0000
  H   H921      1.0  0.31757  0.19005  0.78231  1.0000
  H   H922      1.0  0.37624  0.22112  0.76438  1.0000
  C   C549      1.0  0.37322  0.10162  0.80205  1.0000
  H   H923      1.0  0.43246  0.15140  0.75944  1.0000
  C   C550      1.0  0.37649  0.11543  0.77156  1.0000
  H   H924      1.0  0.44448  0.15546  0.77283  1.0000
  H   H925      1.0  0.24199  0.10531  0.78141  1.0000
  H   H926      1.0  0.45147  0.13839  0.77888  1.0000
  C   C551      1.0  0.32457  0.15805  0.74279  1.0000
  C   C552      1.0  0.30547  0.16768  0.79125  1.0000
  C   C553      1.0  0.28443  0.18505  0.78550  1.0000
  C   C554      1.0  0.29775  0.15769  0.80234  1.0000
  C   C555      1.0  0.28367  0.19157  0.79732  1.0000
  H   H927      1.0  0.28807  0.16029  0.78093  1.0000
  H   H928      1.0  0.30818  0.17400  0.79653  1.0000
  H   H929      1.0  0.27630  0.17910  0.78925  1.0000
  H   H930      1.0  0.29825  0.14858  0.79862  1.0000
  H   H931      1.0  0.30273  0.15413  0.81113  1.0000
  H   H932      1.0  0.28688  0.16242  0.80610  1.0000
  H   H933      1.0  0.27684  0.20188  0.79603  1.0000
  H   H934      1.0  0.29354  0.19288  0.79806  1.0000
  H   H935      1.0  0.27875  0.18579  0.80720  1.0000
  N   N38       1.0  0.38013  0.13319  0.87488  1.0000
  C   C556      1.0  0.38054  0.12024  0.87093  1.0000
  C   C557      1.0  0.38860  0.12939  0.88546  1.0000
  C   C558      1.0  0.38639  0.14257  0.86237  1.0000
  C   C559      1.0  0.36532  0.13956  0.88018  1.0000
  C   C560      1.0  0.37385  0.12189  0.85899  1.0000
  C   C561      1.0  0.38453  0.11852  0.89815  1.0000
  C   C562      1.0  0.39275  0.15320  0.86465  1.0000
  C   C563      1.0  0.36236  0.15293  0.88496  1.0000
  H   H936      1.0  0.39138  0.11450  0.86822  1.0000
  H   H937      1.0  0.37522  0.11333  0.87961  1.0000
  H   H938      1.0  0.38849  0.13832  0.88920  1.0000
  H   H939      1.0  0.39962  0.12552  0.88089  1.0000
  H   H940      1.0  0.39488  0.13659  0.85576  1.0000
  H   H941      1.0  0.37873  0.14820  0.85604  1.0000
  H   H942      1.0  0.35942  0.14213  0.87214  1.0000
  H   H943      1.0  0.36002  0.13231  0.88836  1.0000
  H   H944      1.0  0.36256  0.12558  0.86167  1.0000
  H   H945      1.0  0.37831  0.12857  0.84956  1.0000
  H   H946      1.0  0.37567  0.11174  0.85663  1.0000
  H   H947      1.0  0.39029  0.11786  0.90583  1.0000
  H   H948      1.0  0.37351  0.12106  0.90296  1.0000
  H   H949      1.0  0.38726  0.10826  0.89585  1.0000
  H   H950      1.0  0.38598  0.15914  0.87215  1.0000
  H   H951      1.0  0.39504  0.16059  0.85494  1.0000
  H   H952      1.0  0.40263  0.14833  0.86779  1.0000
  H   H953      1.0  0.36260  0.16175  0.87622  1.0000
  H   H954      1.0  0.36927  0.15280  0.89131  1.0000
  H   H955      1.0  0.35194  0.15449  0.89168  1.0000
  N   N39       1.0  0.37613  0.11563  0.79618  1.0000
  C   C564      1.0  0.38396  0.11904  0.80445  1.0000
  C   C565      1.0  0.36262  0.12593  0.79662  1.0000
  C   C566      1.0  0.39829  0.11000  0.80532  1.0000
  C   C567      1.0  0.35369  0.12740  0.81082  1.0000
  C   C568      1.0  0.38461  0.08942  0.79788  1.0000
  H   H956      1.0  0.37821  0.11846  0.81519  1.0000
  H   H957      1.0  0.38522  0.12971  0.80043  1.0000
  H   H958      1.0  0.36429  0.13626  0.79113  1.0000
  H   H959      1.0  0.35601  0.12344  0.79137  1.0000
  H   H960      1.0  0.39759  0.09954  0.81103  1.0000
  H   H961      1.0  0.35778  0.13317  0.81559  1.0000
  H   H962      1.0  0.35260  0.11747  0.81767  1.0000
  H   H963      1.0  0.34325  0.13336  0.80971  1.0000
  H   H964      1.0  0.39514  0.09112  0.79445  1.0000
  H   H965      1.0  0.38217  0.08578  0.79004  1.0000
  H   H966      1.0  0.41725  0.01168  0.84650  1.0000
  H   H967      1.0  0.37839  0.17765  0.94202  1.0000
  H   H968      1.0  0.26477  0.06198  0.80403  1.0000
  H   H969      1.0  0.23426  0.09180  0.79190  1.0000
  H   H970      1.0  0.39095  0.16713  0.96056  1.0000
  H   H971      1.0  0.36545  0.16855  0.94508  1.0000
  C   C569      1.0  0.38230  0.16181  0.96425  1.0000
  H   H972      1.0  0.24059  0.22695  0.86473  1.0000
  H   H973      1.0  0.35760  0.15612  0.96703  1.0000
  C   C570      1.0  0.30728  0.18441  0.76956  1.0000
  H   H974      1.0  0.48819  0.15193  0.90467  1.0000
  H   H975      1.0  0.36187  0.19880  0.94479  1.0000
  H   H976      1.0  0.40654  0.04086  0.83296  1.0000
  H   H977      1.0  0.37769  0.14521  0.95800  1.0000
  C   C571      1.0  0.47051  0.14419  0.90596  1.0000
  H   H978      1.0  0.24749  0.06817  0.79304  1.0000
  C   C572      1.0  0.20779  0.22020  0.89700  1.0000
  H   H979      1.0  0.36400  0.10100  0.79904  1.0000
  H   H980      1.0  0.27302  0.08305  0.75138  1.0000
  C   C573      1.0  0.29489  0.99790  0.83145  1.0000
  H   H981      1.0  0.27715  0.05919  0.78891  1.0000
  C   C574      1.0  0.44156  0.14549  0.77731  1.0000
  H   H982      1.0  0.31556  0.16157  0.78674  1.0000
  H   H983      1.0  0.37241  0.10608  0.77526  1.0000
  N   N40       1.0  0.25339  0.08540  0.77791  1.0000
  C   C575      1.0  0.23210  0.08103  0.77281  1.0000
  H   H984      1.0  0.26283  0.10137  0.76406  1.0000
  H   H985      1.0  0.46518  0.11809  0.91649  1.0000
  H   H986      1.0  0.39247  0.00879  0.87995  1.0000
  H   H987      1.0  0.46778  0.14426  0.91701  1.0000
  H   H988      1.0  0.40179  0.14856  0.79121  1.0000
  N   N41       1.0  0.29801  0.17611  0.78023  1.0000
  H   H989      1.0  0.28106  0.19338  0.77711  1.0000
  C   C576      1.0  0.24557  0.08614  0.76748  1.0000
  C   C577      1.0  0.26593  0.09099  0.77024  1.0000
  H   H990      1.0  0.27143  0.09262  0.77705  1.0000
  H   H991      1.0  0.39107  0.04581  0.84475  1.0000
  C   C578      1.0  0.43759  0.12001  0.79912  1.0000
  H   H992      1.0  0.42029  0.13100  0.79057  1.0000
  H   H993      1.0  0.43191  0.17045  0.79887  1.0000
  H   H994      1.0  0.43276  0.11111  0.80350  1.0000
  N   N42       1.0  0.43115  0.14605  0.79054  1.0000
  C   C579      1.0  0.42628  0.13298  0.79674  1.0000
  C   C580      1.0  0.40747  0.15589  0.78361  1.0000
  H   H995      1.0  0.44797  0.14063  0.80090  1.0000
  H   H996      1.0  0.44317  0.12022  0.80660  1.0000
  C   C581      1.0  0.34587  0.22717  0.74655  1.0000
  C   C582      1.0  0.34255  0.17306  0.97312  1.0000
  C   C583      1.0  0.43806  0.14816  0.80046  1.0000
  C   C584      1.0  0.41909  0.15792  0.78877  1.0000
  C   C585      1.0  0.44135  0.16228  0.79769  1.0000
  H   H997      1.0  0.39986  0.16573  0.78217  1.0000
  H   H998      1.0  0.42257  0.16704  0.78183  1.0000
  H   H999      1.0  0.44816  0.16483  0.78760  1.0000
  H   H1000     1.0  0.41901  0.13368  0.80672  1.0000
  H   H1001     1.0  0.44683  0.16221  0.80541  1.0000
  H   H1002     1.0  0.41100  0.15282  0.77374  1.0000
  H   H1003     1.0  0.35779  0.00352  0.87229  1.0000
  C   C586      1.0  0.38978  0.01938  0.85962  1.0000
  H   H1004     1.0  0.26647  0.10626  0.73677  1.0000
  H   H1005     1.0  0.30310  0.20311  0.77712  1.0000
  C   C587      1.0  0.27667  0.08247  0.76052  1.0000
  C   C588      1.0  0.23288  0.22812  0.83580  1.0000
  C   C589      1.0  0.24515  0.11649  0.73939  1.0000
  H   H1006     1.0  0.30226  0.19041  0.76105  1.0000
  H   H1007     1.0  0.44021  0.13730  0.90631  1.0000
  H   H1008     1.0  0.47711  0.13397  0.90500  1.0000
  H   H1009     1.0  0.28604  0.08670  0.75683  1.0000
  H   H1010     1.0  0.32172  0.98837  0.83620  1.0000
  H   H1011     1.0  0.39762  0.99795  0.84681  1.0000
  S   S181      1.0  0.26811  0.14836  0.75327  1.0000
  C   C590      1.0  0.40696  0.00053  0.83942  1.0000
  H   H1012     1.0  0.27976  0.18072  0.76284  1.0000
  H   H1013     1.0  0.37347  0.12658  0.97773  1.0000
  H   H1014     1.0  0.44759  0.16182  0.91297  1.0000
  H   H1015     1.0  0.41865  0.03021  0.85263  1.0000
  C   C591      1.0  0.35592  0.00603  0.86217  1.0000
  H   H1016     1.0  0.38220  0.01345  0.86021  1.0000
  C   C592      1.0  0.40054  0.03762  0.84341  1.0000
  H   H1017     1.0  0.38286  0.01749  0.83767  1.0000
  H   H1018     1.0  0.40588  0.00095  0.82907  1.0000
  H   H1019     1.0  0.38343  0.02821  0.86418  1.0000
  H   H1020     1.0  0.37086  0.23397  0.74281  1.0000
  C   C593      1.0  0.46117  0.14489  0.88633  1.0000
  C   C594      1.0  0.43440  0.16360  0.89971  1.0000
  H   H1021     1.0  0.23622  0.22059  0.84454  1.0000
  C   C595      1.0  0.25114  0.22583  0.85849  1.0000
  C   C596      1.0  0.40898  0.03811  0.85308  1.0000
  C   C597      1.0  0.21201  0.22138  0.87289  1.0000
  C   C598      1.0  0.40955  0.01405  0.84023  1.0000
  H   H1022     1.0  0.46180  0.11889  0.90016  1.0000
  C   C599      1.0  0.39889  0.01011  0.86945  1.0000
  H   H1023     1.0  0.40028  0.02545  0.81631  1.0000
  C   C600      1.0  0.25676  0.10715  0.73438  1.0000
  H   H1024     1.0  0.25763  0.22391  0.86590  1.0000
  C   C601      1.0  0.39119  0.03238  0.82114  1.0000
  H   H1025     1.0  0.39316  0.04271  0.81896  1.0000
  C   C602      1.0  0.20476  0.22686  0.88434  1.0000
  C   C603      1.0  0.31185  0.19482  0.77413  1.0000
  C   C604      1.0  0.38612  0.15039  0.95627  1.0000
  H   H1026     1.0  0.33803  0.17316  0.96469  1.0000
  S   S182      1.0  0.35075  0.98614  0.83598  1.0000
  H   H1027     1.0  0.37712  0.03423  0.84022  1.0000
  H   H1028     1.0  0.24262  0.10278  0.80470  1.0000
  H   H1029     1.0  0.36882  0.19030  0.73529  1.0000
  H   H1030     1.0  0.45302  0.14125  0.88428  1.0000
  H   H1031     1.0  0.28598  0.00536  0.83585  1.0000
  H   H1032     1.0  0.24990  0.08501  0.80704  1.0000
  H   H1033     1.0  0.15542  0.19872  0.73096  1.0000
  C   C605      1.0  0.28912  0.17262  0.76096  1.0000
  C   C606      1.0  0.46343  0.15752  0.87490  1.0000
  H   H1034     1.0  0.31677  0.17758  0.76505  1.0000
  H   H1035     1.0  0.38945  0.15431  0.94520  1.0000
  H   H1036     1.0  0.29675  0.17643  0.75198  1.0000
  H   H1037     1.0  0.29391  0.99793  0.82117  1.0000
  H   H1038     1.0  0.34222  0.22044  0.75638  1.0000
  C   C607      1.0  0.29535  0.16630  0.77362  1.0000
  H   H1039     1.0  0.28604  0.16460  0.75823  1.0000
  C   C608      1.0  0.44892  0.16050  0.90246  1.0000
  H   H1040     1.0  0.27987  0.07171  0.76553  1.0000
  H   H1041     1.0  0.22016  0.20321  0.90819  1.0000
  C   C609      1.0  0.35744  0.16463  0.97148  1.0000
  H   H1042     1.0  0.30496  0.15873  0.77063  1.0000
  H   H1043     1.0  0.39494  0.14253  0.95952  1.0000
  C   C610      1.0  0.35260  0.99869  0.84344  1.0000
  C   C611      1.0  0.21803  0.20829  0.89829  1.0000
  H   H1044     1.0  0.35932  0.19189  0.96796  1.0000
  C   C612      1.0  0.36811  0.17644  0.94850  1.0000
  H   H1045     1.0  0.30412  0.23099  0.78797  1.0000
  H   H1046     1.0  0.28223  0.23034  0.80500  1.0000
  H   H1047     1.0  0.37734  0.18846  0.96299  1.0000
  C   C613      1.0  0.36545  0.22312  0.76343  1.0000
  H   H1048     1.0  0.48568  0.15238  0.88860  1.0000
  H   H1049     1.0  0.38258  0.15669  0.97499  1.0000
  C   C614      1.0  0.33569  0.22936  0.73752  1.0000
  H   H1050     1.0  0.35879  0.22450  0.77346  1.0000
  H   H1051     1.0  0.13976  0.18833  0.73083  1.0000
  H   H1052     1.0  0.20215  0.22427  0.90590  1.0000
  H   H1053     1.0  0.31684  0.98893  0.81352  1.0000
  C   C615      1.0  0.38167  0.20373  0.73384  1.0000
  H   H1054     1.0  0.34140  0.18356  0.97407  1.0000
  H   H1055     1.0  0.25392  0.21669  0.85408  1.0000
  H   H1056     1.0  0.30443  0.99243  0.85824  1.0000
  C   C616      1.0  0.48010  0.15409  0.89887  1.0000
  H   H1057     1.0  0.22171  0.23257  0.83857  1.0000
  C   C617      1.0  0.36858  0.18365  0.96897  1.0000
  H   H1058     1.0  0.33402  0.21930  0.73769  1.0000
  H   H1059     1.0  0.26321  0.23490  0.84005  1.0000
  H   H1060     1.0  0.35670  0.98518  0.86209  1.0000
  H   H1061     1.0  0.23653  0.25592  0.14428  1.0000
  C   C618      1.0  0.36374  0.25092  0.16565  1.0000
  H   H1062     1.0  0.20259  0.33055  0.17188  1.0000
  Fe  Fe93      1.0  0.22724  0.36006  0.19732  1.0000
  S   S183      1.0  0.20565  0.37238  0.19972  1.0000
  S   S184      1.0  0.23701  0.34416  0.18470  1.0000
  Fe  Fe94      1.0  0.21507  0.38966  0.19826  1.0000
  S   S185      1.0  0.20670  0.41020  0.18623  1.0000
  C   C619      1.0  0.37272  0.23854  0.16373  1.0000
  C   C620      1.0  0.01109  0.35906  0.14083  1.0000
  S   S186      1.0  0.23684  0.37766  0.19403  1.0000
  H   H1063     1.0  0.12770  0.38548  0.18329  1.0000
  S   S187      1.0  0.30229  0.27122  0.11632  1.0000
  Fe  Fe95      1.0  0.14174  0.44180  0.13255  1.0000
  Fe  Fe96      1.0  0.21636  0.32759  0.12999  1.0000
  S   S188      1.0  0.19666  0.32144  0.14143  1.0000
  S   S189      1.0  0.21721  0.34807  0.13192  1.0000
  Fe  Fe97      1.0  0.22717  0.30276  0.11745  1.0000
  S   S190      1.0  0.20812  0.29484  0.12770  1.0000
  S   S191      1.0  0.24272  0.28944  0.10409  1.0000
  Fe  Fe98      1.0  0.19680  0.31642  0.12201  1.0000
  S   S192      1.0  0.17712  0.32170  0.11484  1.0000
  Fe  Fe99      1.0  0.20990  0.30062  0.14593  1.0000
  S   S193      1.0  0.20769  0.28660  0.16639  1.0000
  S   S194      1.0  0.21568  0.32400  0.11013  1.0000
  S   S195      1.0  0.22980  0.30710  0.13625  1.0000
  Fe  Fe100     1.0  0.14121  0.30033  0.21037  1.0000
  S   S196      1.0  0.15108  0.31807  0.20431  1.0000
  S   S197      1.0  0.14531  0.28845  0.19440  1.0000
  S   S198      1.0  0.12925  0.43348  0.12353  1.0000
  Fe  Fe101     1.0  0.12999  0.32955  0.21243  1.0000
  S   S199      1.0  0.12252  0.34897  0.19805  1.0000
  N   N43       1.0  0.20271  0.31600  0.19116  1.0000
  C   C621      1.0  0.19838  0.32149  0.17778  1.0000
  C   C622      1.0  0.06590  0.40019  0.16325  1.0000
  H   H1064     1.0  0.17716  0.33283  0.18474  1.0000
  Fe  Fe102     1.0  0.06641  0.35153  0.16056  1.0000
  S   S200      1.0  0.05399  0.37199  0.15263  1.0000
  S   S201      1.0  0.06989  0.34474  0.18188  1.0000
  Fe  Fe103     1.0  0.07119  0.34215  0.13454  1.0000
  S   S202      1.0  0.05940  0.36180  0.12413  1.0000
  S   S203      1.0  0.08151  0.32362  0.12593  1.0000
  Fe  Fe104     1.0  0.07037  0.37121  0.13353  1.0000
  S   S204      1.0  0.08003  0.38885  0.12177  1.0000
  Fe  Fe105     1.0  0.04392  0.36074  0.14408  1.0000
  S   S205      1.0  0.02066  0.36696  0.14669  1.0000
  S   S206      1.0  0.08354  0.35159  0.14211  1.0000
  S   S207      1.0  0.05498  0.34027  0.15382  1.0000
  Fe  Fe106     1.0  0.15630  0.35774  0.05047  1.0000
  S   S208      1.0  0.14682  0.37881  0.04030  1.0000
  S   S209      1.0  0.17794  0.35175  0.05365  1.0000
  Fe  Fe107     1.0  0.12973  0.34842  0.05850  1.0000
  S   S210      1.0  0.11777  0.36860  0.04947  1.0000
  S   S211      1.0  0.12138  0.32971  0.06801  1.0000
  Fe  Fe108     1.0  0.13602  0.36821  0.03174  1.0000
  S   S212      1.0  0.13184  0.37568  0.01039  1.0000
  Fe  Fe109     1.0  0.12956  0.37734  0.05871  1.0000
  S   S213      1.0  0.11925  0.39243  0.07220  1.0000
  S   S214      1.0  0.14721  0.34729  0.04026  1.0000
  S   S215      1.0  0.13966  0.35708  0.06937  1.0000
  Fe  Fe110     1.0  0.16236  0.41491  0.13667  1.0000
  S   S216      1.0  0.14315  0.42395  0.15036  1.0000
  S   S217      1.0  0.18141  0.40070  0.14248  1.0000
  Fe  Fe111     1.0  0.14960  0.42338  0.11215  1.0000
  S   S218      1.0  0.15584  0.42023  0.09064  1.0000
  Fe  Fe112     1.0  0.13227  0.41508  0.14035  1.0000
  S   S219      1.0  0.11736  0.40189  0.15262  1.0000
  S   S220      1.0  0.16192  0.43326  0.11952  1.0000
  S   S221      1.0  0.15160  0.40451  0.12828  1.0000
  H   H1065     1.0  0.18087  0.32935  0.16826  1.0000
  C   C623      1.0  0.13127  0.36513  0.00004  1.0000
  H   H1066     1.0  0.22837  0.38359  0.15198  1.0000
  C   C624      1.0  0.14211  0.47572  0.13583  1.0000
  C   C625      1.0  0.13682  0.35113  0.00266  1.0000
  H   H1067     1.0  0.17439  0.47657  0.10079  1.0000
  H   H1068     1.0  0.14187  0.34652  0.01106  1.0000
  C   C626      1.0  0.14588  0.41181  0.08606  1.0000
  C   C627      1.0  0.15082  0.40705  0.07395  1.0000
  C   C628      1.0  0.14296  0.40060  0.06987  1.0000
  C   C629      1.0  0.12990  0.39931  0.07767  1.0000
  C   C630      1.0  0.12500  0.40396  0.08985  1.0000
  C   C631      1.0  0.13304  0.41002  0.09415  1.0000
  H   H1069     1.0  0.16068  0.40851  0.06759  1.0000
  H   H1070     1.0  0.14681  0.39709  0.06044  1.0000
  H   H1071     1.0  0.11495  0.40290  0.09594  1.0000
  H   H1072     1.0  0.12915  0.41363  0.10352  1.0000
  C   C632      1.0  0.09091  0.39211  0.13005  1.0000
  C   C633      1.0  0.09311  0.38393  0.14256  1.0000
  C   C634      1.0  0.10157  0.38679  0.14923  1.0000
  C   C635      1.0  0.10785  0.39786  0.14344  1.0000
  C   C636      1.0  0.10599  0.40581  0.13073  1.0000
  C   C637      1.0  0.09747  0.40297  0.12407  1.0000
  H   H1073     1.0  0.08807  0.37558  0.14726  1.0000
  H   H1074     1.0  0.10315  0.38049  0.15894  1.0000
  H   H1075     1.0  0.11078  0.41438  0.12620  1.0000
  H   H1076     1.0  0.09578  0.40935  0.11441  1.0000
  C   C638      1.0  0.09253  0.32592  0.10985  1.0000
  C   C639      1.0  0.09543  0.33863  0.10298  1.0000
  C   C640      1.0  0.10452  0.33999  0.09013  1.0000
  C   C641      1.0  0.11048  0.32864  0.08419  1.0000
  C   C642      1.0  0.10743  0.31605  0.09107  1.0000
  C   C643      1.0  0.09858  0.31467  0.10388  1.0000
  H   H1077     1.0  0.09061  0.34730  0.10762  1.0000
  H   H1078     1.0  0.10682  0.34976  0.08478  1.0000
  H   H1079     1.0  0.11198  0.30728  0.08650  1.0000
  H   H1080     1.0  0.09633  0.30485  0.10916  1.0000
  H   H1081     1.0  0.19105  0.34635  0.20310  1.0000
  C   C644      1.0  0.22686  0.30445  0.17937  1.0000
  H   H1082     1.0  0.09934  0.38309  0.18270  1.0000
  C   C645      1.0  0.30875  0.23842  0.20169  1.0000
  H   H1083     1.0  0.02844  0.34838  0.12811  1.0000
  C   C646      1.0  0.10804  0.34785  0.19327  1.0000
  C   C647      1.0  0.09785  0.34204  0.20297  1.0000
  C   C648      1.0  0.08624  0.34119  0.19927  1.0000
  C   C649      1.0  0.08479  0.34598  0.18581  1.0000
  C   C650      1.0  0.09507  0.35163  0.17599  1.0000
  C   C651      1.0  0.10660  0.35274  0.17976  1.0000
  C   C652      1.0  0.06113  0.40241  0.17799  1.0000
  H   H1084     1.0  0.07836  0.33677  0.20691  1.0000
  H   H1085     1.0  0.09403  0.35533  0.16557  1.0000
  H   H1086     1.0  0.11448  0.35724  0.17222  1.0000
  C   C653      1.0  0.17797  0.32963  0.09766  1.0000
  C   C654      1.0  0.18798  0.33703  0.09034  1.0000
  C   C655      1.0  0.18814  0.34363  0.07671  1.0000
  C   C656      1.0  0.17823  0.34288  0.07042  1.0000
  C   C657      1.0  0.16851  0.33513  0.07765  1.0000
  C   C658      1.0  0.16829  0.32864  0.09126  1.0000
  H   H1087     1.0  0.19543  0.33788  0.09521  1.0000
  H   H1088     1.0  0.19579  0.34946  0.07108  1.0000
  H   H1089     1.0  0.16125  0.33395  0.07268  1.0000
  H   H1090     1.0  0.16068  0.32272  0.09678  1.0000
  C   C659      1.0  0.16266  0.28712  0.18629  1.0000
  C   C660      1.0  0.17275  0.28079  0.19381  1.0000
  C   C661      1.0  0.18663  0.28007  0.18746  1.0000
  C   C662      1.0  0.19040  0.28624  0.17374  1.0000
  C   C663      1.0  0.18030  0.29262  0.16622  1.0000
  C   C664      1.0  0.16642  0.29290  0.17246  1.0000
  H   H1091     1.0  0.16984  0.27633  0.20450  1.0000
  H   H1092     1.0  0.19441  0.27498  0.19328  1.0000
  H   H1093     1.0  0.18315  0.29729  0.15559  1.0000
  H   H1094     1.0  0.15862  0.29786  0.16665  1.0000
  C   C665      1.0  0.28572  0.27589  0.11301  1.0000
  C   C666      1.0  0.27709  0.28820  0.11578  1.0000
  C   C667      1.0  0.26382  0.29230  0.11326  1.0000
  C   C668      1.0  0.25926  0.28432  0.10753  1.0000
  C   C669      1.0  0.26792  0.27204  0.10462  1.0000
  C   C670      1.0  0.28106  0.26773  0.10755  1.0000
  H   H1095     1.0  0.28070  0.29459  0.11991  1.0000
  H   H1096     1.0  0.25728  0.30183  0.11541  1.0000
  H   H1097     1.0  0.26445  0.26582  0.10018  1.0000
  H   H1098     1.0  0.28772  0.25828  0.10527  1.0000
  C   C671      1.0  0.19962  0.40815  0.17381  1.0000
  C   C672      1.0  0.20407  0.39594  0.16940  1.0000
  C   C673      1.0  0.19841  0.39396  0.15972  1.0000
  C   C674      1.0  0.18815  0.40408  0.15443  1.0000
  C   C675      1.0  0.18355  0.41637  0.15880  1.0000
  C   C676      1.0  0.18941  0.41846  0.16843  1.0000
  H   H1099     1.0  0.21205  0.38805  0.17334  1.0000
  H   H1100     1.0  0.20194  0.38450  0.15639  1.0000
  H   H1101     1.0  0.17561  0.42426  0.15473  1.0000
  H   H1102     1.0  0.18593  0.42795  0.17184  1.0000
  H   H1103     1.0  0.05886  0.40353  0.05862  1.0000
  H   H1104     1.0  0.09500  0.39179  0.06680  1.0000
  H   H1105     1.0  0.27802  0.40756  0.21885  1.0000
  H   H1106     1.0  0.09373  0.30869  0.21051  1.0000
  H   H1107     1.0  0.09014  0.41819  0.09000  1.0000
  C   C677      1.0  0.09700  0.36357  0.02320  1.0000
  C   C678      1.0  0.17638  0.37014  0.17293  1.0000
  H   H1108     1.0  0.09004  0.39519  0.08910  1.0000
  H   H1109     1.0  0.14627  0.36532  0.18515  1.0000
  C   C679      1.0  0.23136  0.34566  0.16999  1.0000
  C   C680      1.0  0.21996  0.35563  0.16666  1.0000
  C   C681      1.0  0.21547  0.35612  0.15508  1.0000
  C   C682      1.0  0.22233  0.34671  0.14684  1.0000
  C   C683      1.0  0.23359  0.33665  0.15028  1.0000
  C   C684      1.0  0.23816  0.33620  0.16177  1.0000
  H   H1110     1.0  0.21458  0.36286  0.17304  1.0000
  H   H1111     1.0  0.20662  0.36368  0.15245  1.0000
  H   H1112     1.0  0.23898  0.32940  0.14390  1.0000
  H   H1113     1.0  0.24694  0.32843  0.16435  1.0000
  H   H1114     1.0  0.16252  0.46633  0.07314  1.0000
  H   H1115     1.0  0.26599  0.36819  0.14808  1.0000
  H   H1116     1.0  0.27319  0.27808  0.14555  1.0000
  H   H1117     1.0  0.16846  0.36181  0.98257  1.0000
  H   H1118     1.0  0.31775  0.26501  0.19632  1.0000
  C   C685      1.0  0.15638  0.47279  0.13414  1.0000
  H   H1119     1.0  0.20822  0.34093  0.19436  1.0000
  H   H1120     1.0  0.21636  0.39028  0.13368  1.0000
  H   H1121     1.0  0.08907  0.37283  0.08216  1.0000
  C   C686      1.0  0.20458  0.29411  0.21008  1.0000
  H   H1122     1.0  0.27431  0.24583  0.17540  1.0000
  S   S222      1.0  0.33241  0.23684  0.11233  1.0000
  S   S223      1.0  0.31987  0.24595  0.14199  1.0000
  H   H1123     1.0  0.23657  0.39981  0.11853  1.0000
  H   H1124     1.0  0.10308  0.32383  0.14834  1.0000
  H   H1125     1.0  0.30147  0.37280  0.22151  1.0000
  H   H1126     1.0  0.22876  0.40037  0.14243  1.0000
  H   H1127     1.0  0.10145  0.36983  0.01340  1.0000
  C   C687      1.0  0.25775  0.36301  0.14915  1.0000
  H   H1128     1.0  0.26318  0.35247  0.14807  1.0000
  H   H1129     1.0  0.12576  0.32398  0.17436  1.0000
  H   H1130     1.0  0.30382  0.24827  0.20474  1.0000
  H   H1131     1.0  0.24897  0.38438  0.16089  1.0000
  C   C688      1.0  0.12244  0.30682  0.16827  1.0000
  C   C689      1.0  0.99680  0.31457  0.15220  1.0000
  C   C690      1.0  0.28322  0.39112  0.20869  1.0000
  H   H1132     1.0  0.31404  0.26985  0.17464  1.0000
  C   C691      1.0  0.27835  0.26840  0.15136  1.0000
  H   H1133     1.0  0.11436  0.26966  0.18720  1.0000
  H   H1134     1.0  0.08700  0.31286  0.17570  1.0000
  H   H1135     1.0  0.25110  0.36253  0.15952  1.0000
  H   H1136     1.0  0.20277  0.31393  0.17119  1.0000
  H   H1137     1.0  0.20171  0.29605  0.19017  1.0000
  H   H1138     1.0  0.26492  0.38895  0.10809  1.0000
  H   H1139     1.0  0.22474  0.29413  0.18310  1.0000
  H   H1140     1.0  0.22557  0.30840  0.16875  1.0000
  H   H1141     1.0  0.08219  0.37594  0.09920  1.0000
  C   C692      1.0  0.25776  0.39090  0.12957  1.0000
  C   C693      1.0  0.26873  0.38586  0.11760  1.0000
  H   H1142     1.0  0.26322  0.38916  0.13777  1.0000
  H   H1143     1.0  0.25453  0.40218  0.12651  1.0000
  H   H1144     1.0  0.27271  0.37470  0.11997  1.0000
  H   H1145     1.0  0.12524  0.47235  0.09219  1.0000
  H   H1146     1.0  0.27762  0.39059  0.11551  1.0000
  H   H1147     1.0  0.32498  0.24936  0.16821  1.0000
  H   H1148     1.0  0.05007  0.40756  0.17937  1.0000
  H   H1149     1.0  0.04694  0.36237  0.19990  1.0000
  C   C694      1.0  0.31592  0.24805  0.17672  1.0000
  Fe  Fe113     1.0  0.23443  0.37250  0.21672  1.0000
  H   H1150     1.0  0.15286  0.48043  0.18187  1.0000
  H   H1151     1.0  0.17116  0.37161  0.19968  1.0000
  H   H1152     1.0  0.04370  0.38681  0.18818  1.0000
  H   H1153     1.0  0.06641  0.40998  0.17871  1.0000
  C   C695      1.0  0.12925  0.34883  0.98348  1.0000
  H   H1154     1.0  0.34513  0.25502  0.14216  1.0000
  H   H1155     1.0  0.06821  0.38949  0.16238  1.0000
  H   H1156     1.0  0.04654  0.37267  0.21102  1.0000
  N   N44       1.0  0.06329  0.38982  0.18902  1.0000
  H   H1157     1.0  0.17429  0.35986  0.17567  1.0000
  H   H1158     1.0  0.29990  0.26344  0.18691  1.0000
  C   C696      1.0  0.25279  0.26594  0.14413  1.0000
  C   C697      1.0  0.14292  0.39310  0.18881  1.0000
  C   C698      1.0  0.06897  0.38759  0.08496  1.0000
  H   H1159     1.0  0.06421  0.38429  0.07852  1.0000
  H   H1160     1.0  0.15081  0.34679  0.20365  1.0000
  H   H1161     1.0  0.38777  0.28644  0.22879  1.0000
  H   H1162     1.0  0.12068  0.38180  0.98678  1.0000
  H   H1163     1.0  0.01430  0.33869  0.11928  1.0000
  H   H1164     1.0  0.16233  0.46273  0.13306  1.0000
  S   S224      1.0  0.25261  0.36883  0.22614  1.0000
  C   C699      1.0  0.13264  0.39428  0.18019  1.0000
  H   H1165     1.0  0.13755  0.39569  0.16922  1.0000
  C   C700      1.0  0.05259  0.36904  0.20168  1.0000
  N   N45       1.0  0.10030  0.33814  0.03613  1.0000
  C   C701      1.0  0.11242  0.32662  0.03884  1.0000
  C   C702      1.0  0.09420  0.34365  0.04892  1.0000
  C   C703      1.0  0.10574  0.34890  0.02456  1.0000
  C   C704      1.0  0.09036  0.33261  0.03230  1.0000
  C   C705      1.0  0.12026  0.31935  0.02704  1.0000
  C   C706      1.0  0.08743  0.33404  0.06141  1.0000
  H   H1166     1.0  0.21582  0.29017  0.20724  1.0000
  C   C707      1.0  0.07634  0.34216  0.03080  1.0000
  H   H1167     1.0  0.12008  0.33032  0.04162  1.0000
  H   H1168     1.0  0.10932  0.31849  0.04759  1.0000
  H   H1169     1.0  0.08621  0.35311  0.04741  1.0000
  H   H1170     1.0  0.10219  0.34669  0.05187  1.0000
  H   H1171     1.0  0.11588  0.34974  0.02547  1.0000
  H   H1172     1.0  0.10762  0.34609  0.01460  1.0000
  H   H1173     1.0  0.09493  0.32957  0.02234  1.0000
  H   H1174     1.0  0.08851  0.32293  0.03946  1.0000
  H   H1175     1.0  0.11409  0.31329  0.02514  1.0000
  H   H1176     1.0  0.12371  0.32648  0.01756  1.0000
  H   H1177     1.0  0.12963  0.31210  0.02983  1.0000
  H   H1178     1.0  0.09490  0.32486  0.06514  1.0000
  H   H1179     1.0  0.08303  0.33945  0.06994  1.0000
  H   H1180     1.0  0.07889  0.33103  0.05946  1.0000
  H   H1181     1.0  0.29437  0.41756  0.20859  1.0000
  C   C708      1.0  0.14811  0.36822  0.19383  1.0000
  H   H1182     1.0  0.15519  0.35671  0.21240  1.0000
  H   H1183     1.0  0.07681  0.34810  0.02019  1.0000
  H   H1184     1.0  0.07232  0.34915  0.03788  1.0000
  H   H1185     1.0  0.06854  0.33596  0.03330  1.0000
  H   H1186     1.0  0.15159  0.44986  0.09270  1.0000
  H   H1187     1.0  0.15711  0.38021  0.16784  1.0000
  H   H1188     1.0  0.28951  0.26825  0.14821  1.0000
  N   N46       1.0  0.12783  0.35318  0.11859  1.0000
  C   C709      1.0  0.12186  0.34165  0.11847  1.0000
  C   C710      1.0  0.11723  0.36620  0.11599  1.0000
  C   C711      1.0  0.13019  0.35101  0.13265  1.0000
  C   C712      1.0  0.14117  0.35295  0.10803  1.0000
  C   C713      1.0  0.13042  0.32717  0.12259  1.0000
  C   C714      1.0  0.11166  0.36870  0.10320  1.0000
  C   C715      1.0  0.13558  0.36205  0.13534  1.0000
  C   C716      1.0  0.14524  0.36670  0.10117  1.0000
  H   H1189     1.0  0.11141  0.34220  0.12521  1.0000
  H   H1190     1.0  0.12049  0.34239  0.10812  1.0000
  H   H1191     1.0  0.12109  0.37529  0.11521  1.0000
  H   H1192     1.0  0.10819  0.36642  0.12471  1.0000
  H   H1193     1.0  0.12049  0.35000  0.14041  1.0000
  H   H1194     1.0  0.13783  0.34137  0.13507  1.0000
  H   H1195     1.0  0.14991  0.34605  0.11240  1.0000
  H   H1196     1.0  0.14110  0.34857  0.09952  1.0000
  H   H1197     1.0  0.14137  0.32607  0.11723  1.0000
  H   H1198     1.0  0.12960  0.32414  0.13372  1.0000
  H   H1199     1.0  0.12628  0.31984  0.11985  1.0000
  H   H1200     1.0  0.10368  0.36289  0.10525  1.0000
  H   H1201     1.0  0.10672  0.37962  0.10047  1.0000
  H   H1202     1.0  0.11977  0.36599  0.09436  1.0000
  H   H1203     1.0  0.13572  0.35972  0.14630  1.0000
  H   H1204     1.0  0.12896  0.37236  0.13325  1.0000
  H   H1205     1.0  0.14632  0.36196  0.12968  1.0000
  H   H1206     1.0  0.13852  0.37316  0.09424  1.0000
  H   H1207     1.0  0.15572  0.36471  0.09472  1.0000
  H   H1208     1.0  0.14527  0.37255  0.10845  1.0000
  C   C717      1.0  0.25567  0.25355  0.16695  1.0000
  C   C718      1.0  0.12533  0.32115  0.16507  1.0000
  H   H1209     1.0  0.12448  0.30363  0.15849  1.0000
  H   H1210     1.0  0.13058  0.29993  0.17343  1.0000
  H   H1211     1.0  0.11778  0.32907  0.15991  1.0000
  H   H1212     1.0  0.32185  0.25253  0.21125  1.0000
  H   H1213     1.0  0.13561  0.32111  0.15817  1.0000
  N   N47       1.0  0.18781  0.37614  0.10238  1.0000
  C   C719      1.0  0.17845  0.36650  0.10999  1.0000
  C   C720      1.0  0.18163  0.38532  0.09071  1.0000
  C   C721      1.0  0.18820  0.38425  0.11213  1.0000
  C   C722      1.0  0.20189  0.36779  0.09762  1.0000
  C   C723      1.0  0.18237  0.35653  0.12289  1.0000
  C   C724      1.0  0.18205  0.37851  0.07925  1.0000
  C   C725      1.0  0.19151  0.39842  0.10595  1.0000
  C   C726      1.0  0.21278  0.37566  0.08843  1.0000
  H   H1214     1.0  0.16774  0.37231  0.11311  1.0000
  H   H1215     1.0  0.17794  0.36003  0.10344  1.0000
  H   H1216     1.0  0.18670  0.39393  0.08556  1.0000
  H   H1217     1.0  0.17073  0.39027  0.09455  1.0000
  H   H1218     1.0  0.17813  0.38611  0.11944  1.0000
  H   H1219     1.0  0.19571  0.37840  0.11858  1.0000
  H   H1220     1.0  0.20637  0.36162  0.10645  1.0000
  H   H1221     1.0  0.20147  0.35998  0.09250  1.0000
  H   H1222     1.0  0.19207  0.34900  0.12040  1.0000
  H   H1223     1.0  0.18313  0.36178  0.13041  1.0000
  H   H1224     1.0  0.17429  0.35062  0.12794  1.0000
  H   H1225     1.0  0.17727  0.38626  0.07134  1.0000
  H   H1226     1.0  0.19271  0.37437  0.07415  1.0000
  H   H1227     1.0  0.17617  0.37045  0.08276  1.0000
  H   H1228     1.0  0.18264  0.40582  0.10226  1.0000
  H   H1229     1.0  0.20082  0.39832  0.09769  1.0000
  H   H1230     1.0  0.19331  0.40232  0.11396  1.0000
  H   H1231     1.0  0.21806  0.37865  0.09463  1.0000
  H   H1232     1.0  0.20863  0.38473  0.08122  1.0000
  H   H1233     1.0  0.22053  0.36904  0.08194  1.0000
  H   H1234     1.0  0.33441  0.26121  0.19960  1.0000
  C   C727      1.0  0.23768  0.26527  0.14639  1.0000
  H   H1235     1.0  0.27380  0.24374  0.12772  1.0000
  Fe  Fe114     1.0  0.15384  0.31264  0.22570  1.0000
  H   H1236     1.0  0.13166  0.46423  0.10713  1.0000
  H   H1237     1.0  0.09881  0.33837  0.21343  1.0000
  H   H1238     1.0  0.09304  0.29508  0.20385  1.0000
  S   S225      1.0  0.21350  0.38625  0.22068  1.0000
  H   H1239     1.0  0.42001  0.24788  0.22045  1.0000
  S   S226      1.0  0.36395  0.25844  0.17864  1.0000
  S   S227      1.0  0.13327  0.46369  0.13530  1.0000
  H   H1240     1.0  0.05811  0.37600  0.18016  1.0000
  Fe  Fe115     1.0  0.20557  0.36809  0.22178  1.0000
  H   H1241     1.0  0.03723  0.39602  0.20711  1.0000
  C   C728      1.0  0.00935  0.34507  0.12660  1.0000
  H   H1242     1.0  0.28001  0.25695  0.13683  1.0000
  H   H1243     1.0  0.18162  0.37185  0.16201  1.0000
  H   H1244     1.0  0.09741  0.36831  0.03128  1.0000
  C   C729      1.0  0.19751  0.34029  0.19546  1.0000
  H   H1245     1.0  0.16581  0.39117  0.17045  1.0000
  H   H1246     1.0  0.10910  0.28839  0.16828  1.0000
  H   H1247     1.0  0.04323  0.40299  0.21746  1.0000
  C   C730      1.0  0.21800  0.31435  0.18862  1.0000
  H   H1248     1.0  0.08624  0.36432  0.02312  1.0000
  N   N48       1.0  0.32051  0.23960  0.18946  1.0000
  C   C731      1.0  0.32573  0.25666  0.20031  1.0000
  H   H1249     1.0  0.29198  0.39384  0.20046  1.0000
  H   H1250     1.0  0.22151  0.31124  0.19833  1.0000
  C   C732      1.0  0.15928  0.47735  0.06918  1.0000
  N   N49       1.0  0.21112  0.29625  0.07795  1.0000
  C   C733      1.0  0.20644  0.29589  0.09303  1.0000
  C   C734      1.0  0.22544  0.29880  0.07353  1.0000
  C   C735      1.0  0.21130  0.28252  0.07583  1.0000
  C   C736      1.0  0.20101  0.30734  0.07096  1.0000
  C   C737      1.0  0.19267  0.29160  0.10011  1.0000
  C   C738      1.0  0.22677  0.31254  0.07506  1.0000
  C   C739      1.0  0.22044  0.27842  0.06258  1.0000
  C   C740      1.0  0.20458  0.31109  0.05531  1.0000
  H   H1251     1.0  0.21435  0.28885  0.09853  1.0000
  H   H1252     1.0  0.20518  0.30605  0.09516  1.0000
  H   H1253     1.0  0.23011  0.29828  0.06278  1.0000
  H   H1254     1.0  0.23241  0.29063  0.07936  1.0000
  H   H1255     1.0  0.21496  0.27426  0.08417  1.0000
  H   H1256     1.0  0.20072  0.28170  0.07631  1.0000
  H   H1257     1.0  0.19082  0.30467  0.07376  1.0000
  H   H1258     1.0  0.19873  0.31683  0.07469  1.0000
  H   H1259     1.0  0.19037  0.29184  0.11104  1.0000
  H   H1260     1.0  0.18395  0.29874  0.09604  1.0000
  H   H1261     1.0  0.19305  0.28107  0.09966  1.0000
  H   H1262     1.0  0.22468  0.31302  0.08586  1.0000
  H   H1263     1.0  0.23755  0.31358  0.07064  1.0000
  H   H1264     1.0  0.22011  0.32131  0.06960  1.0000
  H   H1265     1.0  0.23149  0.27609  0.06273  1.0000
  H   H1266     1.0  0.21851  0.28615  0.05337  1.0000
  H   H1267     1.0  0.21830  0.26892  0.06172  1.0000
  H   H1268     1.0  0.20054  0.30487  0.05099  1.0000
  H   H1269     1.0  0.21563  0.31034  0.05078  1.0000
  H   H1270     1.0  0.19971  0.32197  0.05190  1.0000
  H   H1271     1.0  0.24455  0.38368  0.11423  1.0000
  N   N50       1.0  0.29453  0.39248  0.22719  1.0000
  C   C741      1.0  0.05420  0.38081  0.18914  1.0000
  H   H1272     1.0  0.17405  0.48071  0.13215  1.0000
  C   C742      1.0  0.16300  0.48302  0.13362  1.0000
  C   C743      1.0  0.99497  0.34793  0.13089  1.0000
  S   S228      1.0  0.22626  0.35393  0.21973  1.0000
  H   H1273     1.0  0.30088  0.26566  0.16949  1.0000
  H   H1274     1.0  0.28309  0.24678  0.15253  1.0000
  H   H1275     1.0  0.33793  0.24912  0.18268  1.0000
  C   C744      1.0  0.30729  0.26256  0.17716  1.0000
  C   C745      1.0  0.14184  0.45548  0.08961  1.0000
  N   N51       1.0  0.24534  0.38469  0.13441  1.0000
  C   C746      1.0  0.23817  0.38864  0.12275  1.0000
  C   C747      1.0  0.23547  0.39044  0.14616  1.0000
  C   C748      1.0  0.24169  0.39331  0.15654  1.0000
  C   C749      1.0  0.07958  0.37493  0.09004  1.0000
  H   H1276     1.0  0.07501  0.36587  0.09314  1.0000
  N   N52       1.0  0.15445  0.38056  0.18901  1.0000
  H   H1277     1.0  0.18727  0.30407  0.20101  1.0000
  C   C750      1.0  0.24917  0.36938  0.13823  1.0000
  H   H1278     1.0  0.25435  0.36476  0.12922  1.0000
  H   H1279     1.0  0.12764  0.27886  0.18113  1.0000
  C   C751      1.0  0.04485  0.40163  0.20695  1.0000
  C   C752      1.0  0.05983  0.39405  0.20241  1.0000
  C   C753      1.0  0.18278  0.32506  0.17864  1.0000
  H   H1280     1.0  0.17841  0.31586  0.18269  1.0000
  H   H1281     1.0  0.24673  0.40205  0.15203  1.0000
  C   C754      1.0  0.35399  0.25700  0.15762  1.0000
  H   H1282     1.0  0.10691  0.31920  0.18928  1.0000
  H   H1283     1.0  0.27325  0.39274  0.22929  1.0000
  H   H1284     1.0  0.31188  0.41425  0.20083  1.0000
  H   H1285     1.0  0.08835  0.31694  0.15309  1.0000
  C   C755      1.0  0.19864  0.30259  0.19764  1.0000
  H   H1286     1.0  0.15598  0.38026  0.20924  1.0000
  Fe  Fe116     1.0  0.31268  0.24920  0.12282  1.0000
  H   H1287     1.0  0.05589  0.41440  0.08412  1.0000
  C   C756      1.0  0.99671  0.36173  0.14528  1.0000
  H   H1288     1.0  0.23331  0.39631  0.16514  1.0000
  H   H1289     1.0  0.14697  0.40252  0.18466  1.0000
  C   C757      1.0  0.26440  0.24319  0.17656  1.0000
  H   H1290     1.0  0.23980  0.36522  0.14230  1.0000
  H   H1291     1.0  0.11528  0.28075  0.19690  1.0000
  C   C758      1.0  0.30459  0.41273  0.21085  1.0000
  H   H1292     1.0  0.16142  0.40262  0.19654  1.0000
  H   H1293     1.0  0.16673  0.35204  0.19719  1.0000
  H   H1294     1.0  0.20217  0.29979  0.21821  1.0000
  H   H1295     1.0  0.06067  0.38979  0.09400  1.0000
  H   H1296     1.0  0.27518  0.26832  0.16236  1.0000
  C   C759      1.0  0.26420  0.24060  0.13373  1.0000
  N   N53       1.0  0.26149  0.25408  0.15199  1.0000
  H   H1297     1.0  0.07378  0.40440  0.09653  1.0000
  H   H1298     1.0  0.11583  0.30252  0.19493  1.0000
  S   S229      1.0  0.11995  0.31197  0.21746  1.0000
  C   C760      1.0  0.08117  0.40348  0.08665  1.0000
  H   H1299     1.0  0.08198  0.38954  0.06056  1.0000
  C   C761      1.0  0.33107  0.24521  0.19229  1.0000
  N   N54       1.0  0.07450  0.40010  0.07732  1.0000
  Fe  Fe117     1.0  0.36867  0.24273  0.19717  1.0000
  C   C762      1.0  0.08476  0.39697  0.06455  1.0000
  C   C763      1.0  0.15586  0.35527  0.20214  1.0000
  H   H1300     1.0  0.19422  0.34516  0.18579  1.0000
  H   H1301     1.0  0.14336  0.45817  0.07840  1.0000
  N   N55       1.0  0.10842  0.30528  0.17678  1.0000
  C   C764      1.0  0.10688  0.30837  0.19040  1.0000
  H   H1302     1.0  0.10474  0.30562  0.15177  1.0000
  C   C765      1.0  0.27605  0.25594  0.14795  1.0000
  C   C766      1.0  0.06246  0.41157  0.07445  1.0000
  C   C767      1.0  0.08678  0.41651  0.08156  1.0000
  S   S230      1.0  0.35390  0.24408  0.21723  1.0000
  C   C768      1.0  0.16260  0.38072  0.19880  1.0000
  H   H1303     1.0  0.09633  0.28988  0.18324  1.0000
  C   C769      1.0  0.05300  0.40869  0.06709  1.0000
  C   C770      1.0  0.16304  0.38111  0.17475  1.0000
  H   H1304     1.0  0.09609  0.41537  0.07330  1.0000
  H   H1305     1.0  0.34711  0.26664  0.15898  1.0000
  H   H1306     1.0  0.33795  0.23703  0.19817  1.0000
  H   H1307     1.0  0.19988  0.32175  0.21007  1.0000
  C   C771      1.0  0.22403  0.38503  0.12599  1.0000
  C   C772      1.0  0.16918  0.39305  0.19545  1.0000
  H   H1308     1.0  0.18364  0.37073  0.17860  1.0000
  H   H1309     1.0  0.05776  0.40578  0.15753  1.0000
  H   H1310     1.0  0.09584  0.40539  0.04451  1.0000
  H   H1311     1.0  0.19986  0.28513  0.21448  1.0000
  C   C773      1.0  0.09874  0.31514  0.15503  1.0000
  H   H1312     1.0  0.09661  0.32557  0.17079  1.0000
  H   H1313     1.0  0.22476  0.37395  0.12924  1.0000
  C   C774      1.0  0.35279  0.25039  0.14818  1.0000
  H   H1314     1.0  0.17568  0.39142  0.20279  1.0000
  C   C775      1.0  0.10706  0.29096  0.17835  1.0000
  C   C776      1.0  0.11669  0.27960  0.18638  1.0000
  H   H1315     1.0  0.07902  0.42573  0.07854  1.0000
  H   H1316     1.0  0.08056  0.37735  0.17757  1.0000
  H   H1317     1.0  0.21993  0.38843  0.11663  1.0000
  H   H1318     1.0  0.17600  0.39429  0.18521  1.0000
  C   C777      1.0  0.09724  0.31501  0.17015  1.0000
  C   C778      1.0  0.01739  0.35056  0.13158  1.0000
  H   H1319     1.0  0.06583  0.42097  0.06829  1.0000
  H   H1320     1.0  0.08818  0.39402  0.19341  1.0000
  C   C779      1.0  0.08688  0.40901  0.05239  1.0000
  H   H1321     1.0  0.07793  0.41294  0.04758  1.0000
  H   H1322     1.0  0.04648  0.41844  0.06282  1.0000
  C   C780      1.0  0.09368  0.30590  0.20105  1.0000
  H   H1323     1.0  0.08430  0.31241  0.19768  1.0000
  C   C781      1.0  0.13577  0.34304  0.99444  1.0000
  H   H1324     1.0  0.04596  0.40239  0.07431  1.0000
  H   H1325     1.0  0.13692  0.39371  0.19933  1.0000
  H   H1326     1.0  0.23785  0.30344  0.17906  1.0000
  H   H1327     1.0  0.12429  0.40347  0.18139  1.0000
  H   H1328     1.0  0.08915  0.41751  0.05501  1.0000
  H   H1329     1.0  0.13775  0.37047  0.20063  1.0000
  C   C782      1.0  0.19578  0.32551  0.20074  1.0000
  C   C783      1.0  0.08905  0.39005  0.18439  1.0000
  C   C784      1.0  0.30659  0.39739  0.21716  1.0000
  H   H1330     1.0  0.25560  0.24707  0.12902  1.0000
  H   H1331     1.0  0.08900  0.39843  0.17525  1.0000
  H   H1332     1.0  0.06628  0.40101  0.20210  1.0000
  H   H1333     1.0  0.18460  0.32577  0.20421  1.0000
  H   H1334     1.0  0.07976  0.37323  0.19518  1.0000
  H   H1335     1.0  0.22082  0.32423  0.18372  1.0000
  C   C785      1.0  0.07802  0.38198  0.18655  1.0000
  H   H1336     1.0  0.28398  0.37999  0.21112  1.0000
  H   H1337     1.0  0.25737  0.26730  0.13307  1.0000
  H   H1338     1.0  0.25372  0.26373  0.16932  1.0000
  H   H1339     1.0  0.06230  0.38512  0.21070  1.0000
  H   H1340     1.0  0.15281  0.46746  0.10975  1.0000
  H   H1341     1.0  0.14012  0.33222  0.99650  1.0000
  C   C786      1.0  0.12498  0.37097  0.98891  1.0000
  C   C787      1.0  0.12392  0.36287  0.98069  1.0000
  H   H1342     1.0  0.31071  0.39175  0.20878  1.0000
  H   H1343     1.0  0.00251  0.30438  0.15651  1.0000
  H   H1344     1.0  0.25168  0.23763  0.15405  1.0000
  H   H1345     1.0  0.38084  0.26682  0.22572  1.0000
  H   H1346     1.0  0.31034  0.24272  0.17299  1.0000
  H   H1347     1.0  0.24545  0.25089  0.17007  1.0000
  H   H1348     1.0  0.31541  0.39497  0.22210  1.0000
  C   C788      1.0  0.28186  0.39641  0.22144  1.0000
  H   H1349     1.0  0.07502  0.40458  0.15783  1.0000
  H   H1350     1.0  0.23268  0.27401  0.13934  1.0000
  H   H1351     1.0  0.16805  0.48222  0.06714  1.0000
  H   H1352     1.0  0.25876  0.24321  0.18724  1.0000
  H   H1353     1.0  0.04267  0.41196  0.20047  1.0000
  H   H1354     1.0  0.25245  0.27562  0.14673  1.0000
  H   H1355     1.0  0.06260  0.36259  0.20349  1.0000
  N   N56       1.0  0.14309  0.47865  0.09304  1.0000
  Fe  Fe118     1.0  0.37258  0.23656  0.22620  1.0000
  H   H1356     1.0  0.13493  0.44823  0.09323  1.0000
  H   H1357     1.0  0.00028  0.32219  0.15520  1.0000
  H   H1358     1.0  0.40132  0.23590  0.22831  1.0000
  C   C789      1.0  0.26154  0.24083  0.14892  1.0000
  H   H1359     1.0  0.30673  0.41821  0.21744  1.0000
  H   H1360     1.0  0.23191  0.26622  0.15683  1.0000
  S   S231      1.0  0.38748  0.23715  0.20586  1.0000
  C   C790      1.0  0.13487  0.46800  0.09594  1.0000
  H   H1361     1.0  0.15720  0.47847  0.05906  1.0000
  C   C791      1.0  0.36165  0.23790  0.14642  1.0000
  H   H1362     1.0  0.16268  0.46412  0.09410  1.0000
  H   H1363     1.0  0.99972  0.31659  0.14095  1.0000
  H   H1364     1.0  0.29266  0.23908  0.19141  1.0000
  C   C792      1.0  0.16450  0.48244  0.09805  1.0000
  H   H1365     1.0  0.27373  0.39585  0.20474  1.0000
  C   C793      1.0  0.15572  0.47246  0.09887  1.0000
  C   C794      1.0  0.14638  0.48491  0.07805  1.0000
  Fe  Fe119     1.0  0.39739  0.30114  0.29647  1.0000
  S   S232      1.0  0.38723  0.28636  0.29282  1.0000
  S   S233      1.0  0.41414  0.29666  0.30800  1.0000
  Fe  Fe120     1.0  0.37891  0.32600  0.28322  1.0000
  S   S234      1.0  0.36726  0.31385  0.27810  1.0000
  S   S235      1.0  0.37470  0.34869  0.28125  1.0000
  Fe  Fe121     1.0  0.36749  0.30112  0.29905  1.0000
  S   S236      1.0  0.34702  0.29615  0.31022  1.0000
  Fe  Fe122     1.0  0.38762  0.29987  0.27200  1.0000
  S   S237      1.0  0.39159  0.29316  0.25204  1.0000
  S   S238      1.0  0.37752  0.31433  0.30470  1.0000
  S   S239      1.0  0.39944  0.31346  0.27512  1.0000
  Fe  Fe123     1.0  0.30356  0.30037  0.38166  1.0000
  S   S240      1.0  0.29217  0.32048  0.38679  1.0000
  S   S241      1.0  0.32602  0.29964  0.37209  1.0000
  Fe  Fe124     1.0  0.27877  0.28733  0.39549  1.0000
  S   S242      1.0  0.26570  0.30661  0.40175  1.0000
  S   S243      1.0  0.27144  0.26745  0.40224  1.0000
  Fe  Fe125     1.0  0.27482  0.31687  0.38071  1.0000
  S   S244      1.0  0.26262  0.33488  0.36851  1.0000
  Fe  Fe126     1.0  0.28438  0.30846  0.40728  1.0000
  S   S245      1.0  0.28255  0.31630  0.42591  1.0000
  S   S246      1.0  0.28671  0.29745  0.37390  1.0000
  S   S247      1.0  0.29687  0.28840  0.40275  1.0000
  Fe  Fe127     1.0  0.27502  0.39088  0.27957  1.0000
  S   S248      1.0  0.28916  0.40480  0.27626  1.0000
  S   S249      1.0  0.25656  0.39818  0.26986  1.0000
  Fe  Fe128     1.0  0.29166  0.36808  0.29725  1.0000
  S   S250      1.0  0.30725  0.37992  0.29527  1.0000
  S   S251      1.0  0.29579  0.34614  0.30786  1.0000
  Fe  Fe129     1.0  0.28921  0.39724  0.29850  1.0000
  S   S252      1.0  0.28712  0.41150  0.31220  1.0000
  Fe  Fe130     1.0  0.30598  0.38635  0.27343  1.0000
  S   S253      1.0  0.32466  0.38629  0.25643  1.0000
  S   S254      1.0  0.27344  0.38487  0.30216  1.0000
  S   S255      1.0  0.29198  0.37299  0.27509  1.0000
  C   C795      1.0  0.38723  0.27870  0.25016  1.0000
  S   S256      1.0  0.11248  0.30053  0.25826  1.0000
  H   H1366     1.0  0.28090  0.24536  0.42965  1.0000
  H   H1367     1.0  0.36105  0.29729  0.32997  1.0000
  C   C796      1.0  0.38108  0.25672  0.25933  1.0000
  H   H1368     1.0  0.27178  0.24444  0.44684  1.0000
  Fe  Fe131     1.0  0.43424  0.36448  0.35604  1.0000
  S   S257      1.0  0.41879  0.35450  0.35410  1.0000
  S   S258      1.0  0.42725  0.38492  0.36170  1.0000
  Fe  Fe132     1.0  0.45752  0.33973  0.35316  1.0000
  S   S259      1.0  0.44375  0.32742  0.35110  1.0000
  S   S260      1.0  0.47965  0.33022  0.35526  1.0000
  Fe  Fe133     1.0  0.43505  0.34648  0.33730  1.0000
  S   S261      1.0  0.42616  0.34822  0.31933  1.0000
  Fe  Fe134     1.0  0.42838  0.33631  0.36799  1.0000
  S   S262      1.0  0.41342  0.32496  0.38379  1.0000
  S   S263      1.0  0.44996  0.35827  0.33794  1.0000
  S   S264      1.0  0.44269  0.34685  0.37134  1.0000
  Fe  Fe135     1.0  0.33870  0.33492  0.44823  1.0000
  S   S265      1.0  0.34812  0.34905  0.43003  1.0000
  S   S266      1.0  0.33615  0.31593  0.44379  1.0000
  Fe  Fe136     1.0  0.33732  0.35250  0.46765  1.0000
  S   S267      1.0  0.34642  0.36810  0.45073  1.0000
  H   H1369     1.0  0.37279  0.38611  0.35787  1.0000
  Fe  Fe137     1.0  0.33265  0.36567  0.43900  1.0000
  S   S268      1.0  0.32133  0.38201  0.42448  1.0000
  Fe  Fe138     1.0  0.36114  0.35020  0.44312  1.0000
  S   S269      1.0  0.38324  0.35167  0.43471  1.0000
  S   S270      1.0  0.32213  0.35150  0.45640  1.0000
  S   S271      1.0  0.35316  0.33464  0.46089  1.0000
  Fe  Fe139     1.0  0.34138  0.42833  0.34349  1.0000
  S   S272      1.0  0.35086  0.44477  0.32808  1.0000
  S   S273      1.0  0.33477  0.41111  0.33935  1.0000
  Fe  Fe140     1.0  0.35388  0.43119  0.36571  1.0000
  S   S274      1.0  0.36472  0.44726  0.35191  1.0000
  S   S275      1.0  0.35742  0.42323  0.38694  1.0000
  Fe  Fe141     1.0  0.34487  0.45629  0.34508  1.0000
  C   C797      1.0  0.35277  0.29149  0.26489  1.0000
  Fe  Fe142     1.0  0.36979  0.43460  0.33636  1.0000
  S   S276      1.0  0.39046  0.42736  0.32346  1.0000
  S   S277      1.0  0.33362  0.44059  0.35990  1.0000
  S   S278      1.0  0.36078  0.41781  0.35083  1.0000
  H   H1370     1.0  0.24807  0.23924  0.37436  1.0000
  H   H1371     1.0  0.25836  0.24488  0.41018  1.0000
  H   H1372     1.0  0.34678  0.32147  0.40156  1.0000
  H   H1373     1.0  0.44802  0.39770  0.39028  1.0000
  H   H1374     1.0  0.46294  0.39901  0.36248  1.0000
  C   C798      1.0  0.38357  0.38583  0.35755  1.0000
  C   C799      1.0  0.33036  0.39458  0.41471  1.0000
  C   C800      1.0  0.34059  0.39719  0.41923  1.0000
  C   C801      1.0  0.34859  0.40634  0.41078  1.0000
  C   C802      1.0  0.34640  0.41289  0.39777  1.0000
  C   C803      1.0  0.33594  0.41057  0.39336  1.0000
  C   C804      1.0  0.32785  0.40150  0.40187  1.0000
  H   H1375     1.0  0.34248  0.39202  0.42917  1.0000
  H   H1376     1.0  0.35666  0.40812  0.41424  1.0000
  H   H1377     1.0  0.33420  0.41559  0.38332  1.0000
  H   H1378     1.0  0.31986  0.39963  0.39837  1.0000
  C   C805      1.0  0.41805  0.39742  0.35057  1.0000
  C   C806      1.0  0.42015  0.39653  0.33707  1.0000
  C   C807      1.0  0.41214  0.40622  0.32853  1.0000
  C   C808      1.0  0.40157  0.41639  0.33368  1.0000
  C   C809      1.0  0.39955  0.41733  0.34716  1.0000
  C   C810      1.0  0.40804  0.40809  0.35548  1.0000
  H   H1379     1.0  0.42797  0.38839  0.33318  1.0000
  H   H1380     1.0  0.41389  0.40561  0.31805  1.0000
  H   H1381     1.0  0.39149  0.42522  0.35117  1.0000
  H   H1382     1.0  0.40645  0.40890  0.36588  1.0000
  C   C811      1.0  0.40558  0.33172  0.39844  1.0000
  C   C812      1.0  0.41125  0.34061  0.40183  1.0000
  C   C813      1.0  0.40449  0.34642  0.41319  1.0000
  C   C814      1.0  0.39190  0.34357  0.42106  1.0000
  C   C815      1.0  0.38626  0.33461  0.41773  1.0000
  C   C816      1.0  0.39315  0.32862  0.40651  1.0000
  H   H1383     1.0  0.42086  0.34299  0.39574  1.0000
  H   H1384     1.0  0.40893  0.35327  0.41577  1.0000
  H   H1385     1.0  0.37668  0.33217  0.42389  1.0000
  H   H1386     1.0  0.38874  0.32169  0.40401  1.0000
  H   H1387     1.0  0.36085  0.26662  0.28184  1.0000
  H   H1388     1.0  0.32961  0.27593  0.29034  1.0000
  H   H1389     1.0  0.36291  0.40778  0.31969  1.0000
  N   N57       1.0  0.46572  0.37822  0.37420  1.0000
  C   C817      1.0  0.45173  0.37841  0.38362  1.0000
  H   H1390     1.0  0.37738  0.39161  0.39690  1.0000
  C   C818      1.0  0.28183  0.41187  0.24037  1.0000
  H   H1391     1.0  0.44548  0.37376  0.37988  1.0000
  C   C819      1.0  0.19272  0.33735  0.23569  1.0000
  C   C820      1.0  0.38607  0.30496  0.34030  1.0000
  H   H1392     1.0  0.38062  0.37412  0.40514  1.0000
  S   S279      1.0  0.16020  0.23966  0.32282  1.0000
  H   H1393     1.0  0.15406  0.25281  0.25379  1.0000
  H   H1394     1.0  0.31781  0.33528  0.38062  1.0000
  H   H1395     1.0  0.38125  0.39806  0.37187  1.0000
  C   C821      1.0  0.12156  0.25443  0.27403  1.0000
  C   C822      1.0  0.11605  0.26312  0.28318  1.0000
  C   C823      1.0  0.11276  0.27728  0.27828  1.0000
  C   C824      1.0  0.11538  0.28279  0.26425  1.0000
  C   C825      1.0  0.12091  0.27409  0.25515  1.0000
  C   C826      1.0  0.12380  0.25995  0.26003  1.0000
  H   H1396     1.0  0.11418  0.25892  0.29399  1.0000
  H   H1397     1.0  0.10846  0.28399  0.28535  1.0000
  H   H1398     1.0  0.12282  0.27824  0.24433  1.0000
  H   H1399     1.0  0.12797  0.25327  0.25293  1.0000
  C   C827      1.0  0.30104  0.41185  0.31860  1.0000
  C   C828      1.0  0.31233  0.40086  0.31930  1.0000
  C   C829      1.0  0.32259  0.40090  0.32561  1.0000
  C   C830      1.0  0.32195  0.41210  0.33082  1.0000
  C   C831      1.0  0.31083  0.42323  0.32985  1.0000
  C   C832      1.0  0.30032  0.42301  0.32394  1.0000
  H   H1400     1.0  0.31297  0.39219  0.31532  1.0000
  H   H1401     1.0  0.33107  0.39221  0.32650  1.0000
  H   H1402     1.0  0.31015  0.43186  0.33394  1.0000
  H   H1403     1.0  0.29159  0.43153  0.32348  1.0000
  C   C833      1.0  0.40365  0.29987  0.37020  1.0000
  C   C834      1.0  0.25498  0.38965  0.25822  1.0000
  C   C835      1.0  0.24544  0.39596  0.24995  1.0000
  H   H1404     1.0  0.23902  0.40588  0.25095  1.0000
  H   H1405     1.0  0.21077  0.26469  0.34475  1.0000
  H   H1406     1.0  0.38030  0.36045  0.36626  1.0000
  C   C836      1.0  0.17709  0.28787  0.36576  1.0000
  C   C837      1.0  0.29756  0.31604  0.43077  1.0000
  C   C838      1.0  0.30991  0.30681  0.42719  1.0000
  C   C839      1.0  0.32155  0.30655  0.43166  1.0000
  C   C840      1.0  0.32109  0.31591  0.43919  1.0000
  C   C841      1.0  0.30878  0.32519  0.44268  1.0000
  C   C842      1.0  0.29702  0.32513  0.43863  1.0000
  H   H1407     1.0  0.31051  0.29982  0.42105  1.0000
  H   H1408     1.0  0.33104  0.29932  0.42895  1.0000
  H   H1409     1.0  0.30827  0.33232  0.44863  1.0000
  H   H1410     1.0  0.28748  0.33223  0.44151  1.0000
  C   C843      1.0  0.27147  0.33773  0.35150  1.0000
  C   C844      1.0  0.28434  0.32949  0.34747  1.0000
  C   C845      1.0  0.29143  0.33176  0.33389  1.0000
  C   C846      1.0  0.28601  0.34273  0.32442  1.0000
  C   C847      1.0  0.27316  0.35107  0.32841  1.0000
  C   C848      1.0  0.26581  0.34846  0.34194  1.0000
  H   H1411     1.0  0.28890  0.32137  0.35479  1.0000
  H   H1412     1.0  0.30124  0.32512  0.33081  1.0000
  H   H1413     1.0  0.26880  0.35936  0.32104  1.0000
  H   H1414     1.0  0.25578  0.35477  0.34501  1.0000
  C   C849      1.0  0.25727  0.26507  0.39762  1.0000
  C   C850      1.0  0.25026  0.27511  0.38854  1.0000
  C   C851      1.0  0.23916  0.27276  0.38499  1.0000
  H   H1415     1.0  0.25339  0.28468  0.38425  1.0000
  H   H1416     1.0  0.23379  0.28062  0.37798  1.0000
  C   C852      1.0  0.41826  0.31114  0.31005  1.0000
  C   C853      1.0  0.41038  0.32419  0.30625  1.0000
  C   C854      1.0  0.41311  0.33547  0.30892  1.0000
  C   C855      1.0  0.42362  0.33381  0.31557  1.0000
  C   C856      1.0  0.43172  0.32081  0.31912  1.0000
  C   C857      1.0  0.42911  0.30953  0.31625  1.0000
  H   H1417     1.0  0.40217  0.32562  0.30122  1.0000
  H   H1418     1.0  0.40696  0.34551  0.30591  1.0000
  H   H1419     1.0  0.44001  0.31946  0.32402  1.0000
  H   H1420     1.0  0.43541  0.29951  0.31899  1.0000
  C   C858      1.0  0.36138  0.35896  0.27335  1.0000
  C   C859      1.0  0.35373  0.35342  0.26811  1.0000
  C   C860      1.0  0.34242  0.36181  0.26286  1.0000
  C   C861      1.0  0.33889  0.37575  0.26272  1.0000
  C   C862      1.0  0.34667  0.38129  0.26778  1.0000
  C   C863      1.0  0.35789  0.37292  0.27305  1.0000
  H   H1421     1.0  0.35641  0.34268  0.26823  1.0000
  H   H1422     1.0  0.33643  0.35751  0.25893  1.0000
  H   H1423     1.0  0.34397  0.39206  0.26766  1.0000
  H   H1424     1.0  0.36378  0.37726  0.27706  1.0000
  C   C864      1.0  0.34124  0.29758  0.32727  1.0000
  C   C865      1.0  0.32735  0.29819  0.33352  1.0000
  C   C866      1.0  0.32253  0.29900  0.34724  1.0000
  C   C867      1.0  0.33164  0.29900  0.35480  1.0000
  C   C868      1.0  0.34551  0.29858  0.34849  1.0000
  C   C869      1.0  0.35030  0.29793  0.33472  1.0000
  H   H1425     1.0  0.32029  0.29799  0.32777  1.0000
  H   H1426     1.0  0.31181  0.29943  0.35199  1.0000
  H   H1427     1.0  0.35258  0.29851  0.35435  1.0000
  N   N58       1.0  0.21095  0.36222  0.26477  1.0000
  C   C870      1.0  0.20528  0.35069  0.26413  1.0000
  C   C871      1.0  0.22493  0.36117  0.25531  1.0000
  C   C872      1.0  0.20153  0.37535  0.25962  1.0000
  C   C873      1.0  0.21144  0.36106  0.27930  1.0000
  C   C874      1.0  0.19030  0.35060  0.27190  1.0000
  C   C875      1.0  0.23526  0.34750  0.25819  1.0000
  C   C876      1.0  0.20574  0.38863  0.25843  1.0000
  C   C877      1.0  0.22183  0.36784  0.28158  1.0000
  H   H1428     1.0  0.20592  0.35057  0.25337  1.0000
  H   H1429     1.0  0.21148  0.34068  0.26831  1.0000
  H   H1430     1.0  0.22994  0.36914  0.25526  1.0000
  H   H1431     1.0  0.22400  0.36302  0.24461  1.0000
  H   H1432     1.0  0.20023  0.37544  0.24942  1.0000
  H   H1433     1.0  0.19107  0.37634  0.26631  1.0000
  H   H1434     1.0  0.20110  0.36522  0.28518  1.0000
  H   H1435     1.0  0.21419  0.35015  0.28436  1.0000
  H   H1436     1.0  0.18289  0.35878  0.26674  1.0000
  H   H1437     1.0  0.18797  0.34088  0.27196  1.0000
  H   H1438     1.0  0.18853  0.35135  0.28261  1.0000
  H   H1439     1.0  0.24572  0.34868  0.25237  1.0000
  H   H1440     1.0  0.23561  0.34400  0.26907  1.0000
  H   H1441     1.0  0.23295  0.33953  0.25463  1.0000
  H   H1442     1.0  0.20498  0.39044  0.26856  1.0000
  H   H1443     1.0  0.19841  0.39727  0.25360  1.0000
  H   H1444     1.0  0.21602  0.38911  0.25183  1.0000
  H   H1445     1.0  0.21747  0.37159  0.29118  1.0000
  H   H1446     1.0  0.22445  0.37666  0.27361  1.0000
  H   H1447     1.0  0.23142  0.36024  0.28320  1.0000
  C   C878      1.0  0.38355  0.38133  0.39540  1.0000
  H   H1448     1.0  0.38305  0.36682  0.31744  1.0000
  H   H1449     1.0  0.38344  0.39496  0.32490  1.0000
  H   H1450     1.0  0.30823  0.37391  0.24785  1.0000
  H   H1451     1.0  0.38307  0.46563  0.36540  1.0000
  H   H1452     1.0  0.37309  0.35941  0.46125  1.0000
  C   C879      1.0  0.47511  0.38651  0.34824  1.0000
  H   H1453     1.0  0.33818  0.45185  0.38663  1.0000
  H   H1454     1.0  0.40047  0.35421  0.47564  1.0000
  H   H1455     1.0  0.44014  0.39921  0.37638  1.0000
  C   C880      1.0  0.32900  0.28979  0.26584  1.0000
  H   H1456     1.0  0.27356  0.29099  0.42996  1.0000
  C   C881      1.0  0.30573  0.35685  0.41851  1.0000
  H   H1457     1.0  0.32490  0.46543  0.38100  1.0000
  H   H1458     1.0  0.46278  0.35114  0.39067  1.0000
  H   H1459     1.0  0.31642  0.31379  0.29329  1.0000
  H   H1460     1.0  0.23729  0.39471  0.23361  1.0000
  C   C882      1.0  0.32338  0.32859  0.38847  1.0000
  H   H1461     1.0  0.37929  0.24840  0.26789  1.0000
  H   H1462     1.0  0.32322  0.32629  0.40952  1.0000
  C   C883      1.0  0.47464  0.38181  0.38119  1.0000
  H   H1463     1.0  0.28754  0.26067  0.45545  1.0000
  H   H1464     1.0  0.32684  0.35831  0.41323  1.0000
  H   H1465     1.0  0.30493  0.27346  0.44393  1.0000
  C   C884      1.0  0.38491  0.26786  0.26112  1.0000
  C   C885      1.0  0.36804  0.41157  0.30911  1.0000
  H   H1466     1.0  0.27037  0.37174  0.26337  1.0000
  H   H1467     1.0  0.37272  0.38172  0.46111  1.0000
  C   C886      1.0  0.39897  0.36769  0.45591  1.0000
  C   C887      1.0  0.25053  0.23576  0.36475  1.0000
  H   H1468     1.0  0.31750  0.37973  0.37975  1.0000
  C   C888      1.0  0.24696  0.24848  0.35368  1.0000
  H   H1469     1.0  0.34978  0.26218  0.27402  1.0000
  H   H1470     1.0  0.25168  0.26610  0.45442  1.0000
  C   C889      1.0  0.48990  0.38102  0.37404  1.0000
  S   S280      1.0  0.37425  0.24215  0.24516  1.0000
  C   C890      1.0  0.36173  0.45623  0.39051  1.0000
  C   C891      1.0  0.37134  0.37917  0.47237  1.0000
  H   H1471     1.0  0.34671  0.30369  0.24580  1.0000
  H   H1472     1.0  0.48139  0.36322  0.36436  1.0000
  C   C892      1.0  0.35324  0.30356  0.25256  1.0000
  H   H1473     1.0  0.26879  0.25569  0.36428  1.0000
  H   H1474     1.0  0.33428  0.32763  0.34415  1.0000
  C   C893      1.0  0.32296  0.37200  0.38722  1.0000
  H   H1475     1.0  0.33070  0.26872  0.26468  1.0000
  C   C894      1.0  0.25289  0.37693  0.23867  1.0000
  H   H1476     1.0  0.36029  0.46998  0.36485  1.0000
  H   H1477     1.0  0.35725  0.45374  0.41278  1.0000
  S   S281      1.0  0.12615  0.23668  0.27961  1.0000
  H   H1478     1.0  0.47976  0.35361  0.38951  1.0000
  H   H1479     1.0  0.31988  0.37596  0.39665  1.0000
  C   C895      1.0  0.26618  0.28784  0.43954  1.0000
  C   C896      1.0  0.33300  0.30342  0.27923  1.0000
  H   H1480     1.0  0.43314  0.39115  0.39316  1.0000
  H   H1481     1.0  0.47057  0.39243  0.38265  1.0000
  H   H1482     1.0  0.36119  0.43834  0.40691  1.0000
  H   H1483     1.0  0.26867  0.36061  0.24612  1.0000
  C   C897      1.0  0.34052  0.34387  0.39528  1.0000
  N   N59       1.0  0.33872  0.29058  0.27372  1.0000
  H   H1484     1.0  0.41123  0.37680  0.31492  1.0000
  N   N60       1.0  0.16155  0.26340  0.27307  1.0000
  H   H1485     1.0  0.36652  0.33218  0.32687  1.0000
  C   C898      1.0  0.15993  0.26455  0.28748  1.0000
  C   C899      1.0  0.17609  0.26351  0.26510  1.0000
  C   C900      1.0  0.15143  0.27425  0.26593  1.0000
  C   C901      1.0  0.38198  0.26703  0.23558  1.0000
  C   C902      1.0  0.14535  0.26501  0.29657  1.0000
  C   C903      1.0  0.18305  0.27379  0.26708  1.0000
  C   C904      1.0  0.15077  0.28919  0.26566  1.0000
  H   H1486     1.0  0.28232  0.24521  0.37194  1.0000
  H   H1487     1.0  0.47336  0.39567  0.34003  1.0000
  H   H1488     1.0  0.16289  0.27372  0.28794  1.0000
  H   H1489     1.0  0.16704  0.25587  0.29265  1.0000
  H   H1490     1.0  0.18299  0.25335  0.26767  1.0000
  H   H1491     1.0  0.17664  0.26542  0.25400  1.0000
  H   H1492     1.0  0.15346  0.27362  0.25514  1.0000
  H   H1493     1.0  0.14092  0.27246  0.27008  1.0000
  C   C905      1.0  0.47122  0.36414  0.37135  1.0000
  H   H1494     1.0  0.40940  0.36142  0.45280  1.0000
  C   C906      1.0  0.31962  0.30375  0.29038  1.0000
  H   H1495     1.0  0.32236  0.35556  0.37926  1.0000
  H   H1496     1.0  0.35208  0.36309  0.30358  1.0000
  H   H1497     1.0  0.35948  0.34991  0.32269  1.0000
  H   H1498     1.0  0.49135  0.39062  0.36661  1.0000
  H   H1499     1.0  0.25383  0.27785  0.46260  1.0000
  H   H1500     1.0  0.17699  0.28435  0.26536  1.0000
  H   H1501     1.0  0.15777  0.29363  0.25642  1.0000
  H   H1502     1.0  0.15290  0.29077  0.27477  1.0000
  H   H1503     1.0  0.14014  0.29519  0.26543  1.0000
  H   H1504     1.0  0.48564  0.38500  0.34953  1.0000
  N   N61       1.0  0.35478  0.47087  0.38610  1.0000
  H   H1505     1.0  0.30765  0.36011  0.39188  1.0000
  C   C907      1.0  0.39097  0.39091  0.31632  1.0000
  H   H1506     1.0  0.36018  0.37078  0.33197  1.0000
  H   H1507     1.0  0.33518  0.48282  0.38181  1.0000
  H   H1508     1.0  0.36650  0.39784  0.29787  1.0000
  H   H1509     1.0  0.23712  0.25505  0.35787  1.0000
  H   H1510     1.0  0.39245  0.36541  0.45052  1.0000
  C   C908      1.0  0.39514  0.38220  0.29593  1.0000
  H   H1511     1.0  0.34459  0.35231  0.39597  1.0000
  H   H1512     1.0  0.29937  0.26917  0.43137  1.0000
  H   H1513     1.0  0.45424  0.38874  0.35855  1.0000
  H   H1514     1.0  0.27061  0.24830  0.46648  1.0000
  H   H1515     1.0  0.37510  0.30547  0.34103  1.0000
  H   H1516     1.0  0.34448  0.27610  0.25303  1.0000
  C   C909      1.0  0.37601  0.37678  0.31457  1.0000
  C   C910      1.0  0.40158  0.37908  0.32260  1.0000
  N   N62       1.0  0.38402  0.38761  0.30717  1.0000
  H   H1517     1.0  0.32614  0.29957  0.25864  1.0000
  C   C911      1.0  0.31964  0.33455  0.40128  1.0000
  C   C912      1.0  0.39015  0.37897  0.28487  1.0000
  H   H1518     1.0  0.34470  0.44934  0.40677  1.0000
  H   H1519     1.0  0.20465  0.28038  0.35022  1.0000
  H   H1520     1.0  0.38608  0.29241  0.36039  1.0000
  H   H1521     1.0  0.35683  0.38855  0.32501  1.0000
  C   C913      1.0  0.37947  0.25630  0.24661  1.0000
  C   C914      1.0  0.16111  0.24575  0.26013  1.0000
  H   H1522     1.0  0.38029  0.30996  0.35984  1.0000
  C   C915      1.0  0.23497  0.26037  0.39042  1.0000
  H   H1523     1.0  0.39396  0.30381  0.39033  1.0000
  H   H1524     1.0  0.16553  0.25944  0.36841  1.0000
  C   C916      1.0  0.38136  0.35540  0.37672  1.0000
  H   H1525     1.0  0.14218  0.25527  0.29865  1.0000
  H   H1526     1.0  0.32491  0.34502  0.34491  1.0000
  H   H1527     1.0  0.36390  0.30258  0.24637  1.0000
  C   C917      1.0  0.39872  0.38123  0.39417  1.0000
  H   H1528     1.0  0.16043  0.28789  0.34951  1.0000
  H   H1529     1.0  0.18972  0.25724  0.35543  1.0000
  C   C918      1.0  0.35800  0.37247  0.39981  1.0000
  H   H1530     1.0  0.40168  0.39042  0.38698  1.0000
  N   N63       1.0  0.27078  0.27297  0.44576  1.0000
  H   H1531     1.0  0.36293  0.48230  0.33453  1.0000
  H   H1532     1.0  0.32109  0.29601  0.29978  1.0000
  H   H1533     1.0  0.36292  0.36152  0.40204  1.0000
  H   H1534     1.0  0.34709  0.37351  0.39984  1.0000
  H   H1535     1.0  0.36201  0.37748  0.37802  1.0000
  C   C919      1.0  0.27316  0.26503  0.43502  1.0000
  H   H1536     1.0  0.34275  0.28129  0.29380  1.0000
  H   H1537     1.0  0.29862  0.35310  0.41511  1.0000
  H   H1538     1.0  0.26550  0.24265  0.37933  1.0000
  H   H1539     1.0  0.40442  0.38209  0.33058  1.0000
  H   H1540     1.0  0.35065  0.33921  0.33707  1.0000
  H   H1541     1.0  0.37557  0.38672  0.47464  1.0000
  C   C920      1.0  0.36148  0.47591  0.37154  1.0000
  N   N64       1.0  0.27325  0.38518  0.34940  1.0000
  C   C921      1.0  0.28850  0.37921  0.34628  1.0000
  C   C922      1.0  0.27133  0.39911  0.35204  1.0000
  C   C923      1.0  0.26786  0.38636  0.33708  1.0000
  C   C924      1.0  0.26671  0.37568  0.36153  1.0000
  C   C925      1.0  0.29306  0.36589  0.34104  1.0000
  C   C926      1.0  0.27688  0.39953  0.36404  1.0000
  C   C927      1.0  0.25461  0.39718  0.33511  1.0000
  C   C928      1.0  0.25122  0.38021  0.36730  1.0000
  H   H1542     1.0  0.29396  0.38667  0.33848  1.0000
  H   H1543     1.0  0.29281  0.37699  0.35543  1.0000
  H   H1544     1.0  0.26040  0.40451  0.35391  1.0000
  H   H1545     1.0  0.27638  0.40572  0.34280  1.0000
  H   H1546     1.0  0.27563  0.38894  0.32762  1.0000
  H   H1547     1.0  0.26611  0.37645  0.33688  1.0000
  H   H1548     1.0  0.26792  0.36572  0.35901  1.0000
  H   H1549     1.0  0.27212  0.37283  0.37001  1.0000
  H   H1550     1.0  0.30435  0.36252  0.33955  1.0000
  H   H1551     1.0  0.28872  0.35751  0.34839  1.0000
  H   H1552     1.0  0.29062  0.36732  0.33104  1.0000
  H   H1553     1.0  0.27243  0.39313  0.37369  1.0000
  H   H1554     1.0  0.28826  0.39665  0.36194  1.0000
  H   H1555     1.0  0.27395  0.41015  0.36551  1.0000
  H   H1556     1.0  0.25659  0.40759  0.33211  1.0000
  H   H1557     1.0  0.24608  0.39646  0.34414  1.0000
  H   H1558     1.0  0.25114  0.39578  0.32660  1.0000
  H   H1559     1.0  0.24515  0.37736  0.36175  1.0000
  H   H1560     1.0  0.24777  0.39116  0.36735  1.0000
  H   H1561     1.0  0.24877  0.37500  0.37816  1.0000
  C   C929      1.0  0.37428  0.35527  0.47190  1.0000
  C   C930      1.0  0.38844  0.30246  0.35476  1.0000
  C   C931      1.0  0.18721  0.29187  0.37155  1.0000
  H   H1562     1.0  0.14530  0.26666  0.30660  1.0000
  H   H1563     1.0  0.39639  0.39926  0.31061  1.0000
  N   N65       1.0  0.40257  0.30287  0.35556  1.0000
  H   H1564     1.0  0.17664  0.26182  0.40179  1.0000
  H   H1565     1.0  0.36959  0.38085  0.33529  1.0000
  H   H1566     1.0  0.30318  0.35427  0.42979  1.0000
  H   H1567     1.0  0.16304  0.26192  0.39454  1.0000
  C   C932      1.0  0.38750  0.36312  0.38331  1.0000
  H   H1568     1.0  0.34069  0.30538  0.28357  1.0000
  H   H1569     1.0  0.23871  0.24084  0.40394  1.0000
  H   H1570     1.0  0.33660  0.37280  0.29812  1.0000
  H   H1571     1.0  0.31102  0.30262  0.28683  1.0000
  C   C933      1.0  0.18924  0.26812  0.35488  1.0000
  H   H1572     1.0  0.31899  0.28843  0.27277  1.0000
  C   C934      1.0  0.38577  0.38727  0.37092  1.0000
  H   H1573     1.0  0.47434  0.37785  0.34457  1.0000
  H   H1574     1.0  0.33079  0.31247  0.27100  1.0000
  H   H1575     1.0  0.16791  0.27765  0.39306  1.0000
  N   N66       1.0  0.38045  0.37773  0.38374  1.0000
  H   H1576     1.0  0.40012  0.38141  0.40422  1.0000
  H   H1577     1.0  0.40550  0.28870  0.37449  1.0000
  H   H1578     1.0  0.43232  0.29788  0.34550  1.0000
  H   H1579     1.0  0.35953  0.33045  0.40011  1.0000
  H   H1580     1.0  0.30826  0.33666  0.40449  1.0000
  H   H1581     1.0  0.15869  0.23560  0.26223  1.0000
  H   H1582     1.0  0.37957  0.48395  0.36013  1.0000
  C   C935      1.0  0.40639  0.31617  0.34790  1.0000
  C   C936      1.0  0.39115  0.30611  0.38034  1.0000
  C   C937      1.0  0.39694  0.32928  0.35197  1.0000
  H   H1583     1.0  0.41270  0.30311  0.37094  1.0000
  H   H1584     1.0  0.41672  0.31628  0.34888  1.0000
  H   H1585     1.0  0.40760  0.31745  0.33684  1.0000
  H   H1586     1.0  0.42869  0.28543  0.36111  1.0000
  H   H1587     1.0  0.39207  0.29650  0.33515  1.0000
  H   H1588     1.0  0.38228  0.30149  0.38206  1.0000
  H   H1589     1.0  0.38808  0.31729  0.37736  1.0000
  H   H1590     1.0  0.40020  0.33162  0.36010  1.0000
  H   H1591     1.0  0.38595  0.32908  0.35510  1.0000
  H   H1592     1.0  0.39779  0.33784  0.34298  1.0000
  H   H1593     1.0  0.25200  0.28742  0.42748  1.0000
  H   H1594     1.0  0.39349  0.34078  0.46534  1.0000
  H   H1595     1.0  0.28152  0.41485  0.24982  1.0000
  H   H1596     1.0  0.35650  0.33862  0.30668  1.0000
  H   H1597     1.0  0.34169  0.37728  0.31084  1.0000
  C   C938      1.0  0.47282  0.35241  0.38383  1.0000
  H   H1598     1.0  0.31610  0.33172  0.34830  1.0000
  H   H1599     1.0  0.28013  0.26921  0.42558  1.0000
  H   H1600     1.0  0.32013  0.31877  0.39136  1.0000
  C   C939      1.0  0.25303  0.25270  0.40312  1.0000
  C   C940      1.0  0.37485  0.40038  0.30078  1.0000
  H   H1601     1.0  0.32423  0.34179  0.42146  1.0000
  H   H1602     1.0  0.40193  0.38952  0.29073  1.0000
  H   H1603     1.0  0.38299  0.38774  0.28006  1.0000
  C   C941      1.0  0.41267  0.29172  0.34903  1.0000
  C   C942      1.0  0.46395  0.38856  0.36120  1.0000
  H   H1604     1.0  0.18237  0.29373  0.38194  1.0000
  S   S282      1.0  0.33467  0.47878  0.34496  1.0000
  S   S283      1.0  0.18604  0.36431  0.23652  1.0000
  C   C943      1.0  0.26217  0.37051  0.24715  1.0000
  H   H1605     1.0  0.32540  0.32755  0.30456  1.0000
  S   S284      1.0  0.22099  0.25793  0.38553  1.0000
  C   C944      1.0  0.26320  0.37682  0.25689  1.0000
  C   C945      1.0  0.18242  0.26416  0.37980  1.0000
  C   C946      1.0  0.29606  0.27532  0.43925  1.0000
  C   C947      1.0  0.34834  0.33079  0.40339  1.0000
  C   C948      1.0  0.35572  0.44920  0.40510  1.0000
  C   C949      1.0  0.16511  0.27050  0.36641  1.0000
  C   C950      1.0  0.17178  0.26670  0.39295  1.0000
  H   H1606     1.0  0.37836  0.33448  0.46946  1.0000
  H   H1607     1.0  0.33409  0.37135  0.38295  1.0000
  H   H1608     1.0  0.47417  0.37571  0.39176  1.0000
  C   C951      1.0  0.24195  0.25034  0.39954  1.0000
  H   H1609     1.0  0.41311  0.29393  0.33795  1.0000
  H   H1610     1.0  0.15673  0.27436  0.37463  1.0000
  H   H1611     1.0  0.43395  0.28069  0.34505  1.0000
  H   H1612     1.0  0.27781  0.24127  0.34954  1.0000
  N   N67       1.0  0.37905  0.36488  0.47701  1.0000
  H   H1613     1.0  0.34849  0.25706  0.29194  1.0000
  N   N68       1.0  0.17867  0.27289  0.36676  1.0000
  H   H1614     1.0  0.33359  0.33463  0.28784  1.0000
  H   H1615     1.0  0.36011  0.41924  0.30418  1.0000
  H   H1616     1.0  0.46456  0.36196  0.36591  1.0000
  H   H1617     1.0  0.39765  0.36973  0.32752  1.0000
  H   H1618     1.0  0.16664  0.29219  0.37135  1.0000
  C   C952      1.0  0.20398  0.26956  0.35316  1.0000
  H   H1619     1.0  0.40197  0.37255  0.30002  1.0000
  H   H1620     1.0  0.37045  0.37504  0.30779  1.0000
  H   H1621     1.0  0.14915  0.27640  0.35495  1.0000
  H   H1622     1.0  0.19725  0.28467  0.37165  1.0000
  H   H1623     1.0  0.33454  0.32628  0.38404  1.0000
  H   H1624     1.0  0.16582  0.27130  0.34502  1.0000
  H   H1625     1.0  0.38072  0.40564  0.29108  1.0000
  C   C953      1.0  0.31905  0.35829  0.38938  1.0000
  H   H1626     1.0  0.48474  0.35551  0.33660  1.0000
  C   C954      1.0  0.16002  0.27702  0.35312  1.0000
  H   H1627     1.0  0.39925  0.37862  0.45220  1.0000
  H   H1628     1.0  0.38750  0.35700  0.39375  1.0000
  H   H1629     1.0  0.34144  0.46281  0.37009  1.0000
  H   H1630     1.0  0.34393  0.32542  0.29983  1.0000
  H   H1631     1.0  0.38833  0.34528  0.37628  1.0000
  H   H1632     1.0  0.39063  0.37664  0.35430  1.0000
  H   H1633     1.0  0.37279  0.45525  0.38996  1.0000
  N   N69       1.0  0.32507  0.34687  0.39982  1.0000
  H   H1634     1.0  0.18404  0.25323  0.37975  1.0000
  H   H1635     1.0  0.28165  0.27749  0.45817  1.0000
  C   C955      1.0  0.36510  0.38018  0.38605  1.0000
  H   H1636     1.0  0.45259  0.37213  0.39391  1.0000
  C   C956      1.0  0.28375  0.27133  0.45039  1.0000
  H   H1637     1.0  0.35799  0.37682  0.40830  1.0000
  H   H1638     1.0  0.35794  0.28223  0.26081  1.0000
  H   H1639     1.0  0.38609  0.26807  0.27097  1.0000
  H   H1640     1.0  0.37131  0.35343  0.38290  1.0000
  H   H1641     1.0  0.40586  0.37200  0.39105  1.0000
  H   H1642     1.0  0.38643  0.39455  0.34944  1.0000
  H   H1643     1.0  0.34978  0.32587  0.31971  1.0000
  H   H1644     1.0  0.26343  0.26608  0.43200  1.0000
  H   H1645     1.0  0.18944  0.30174  0.36529  1.0000
  H   H1646     1.0  0.34383  0.34330  0.38437  1.0000
  C   C957      1.0  0.32114  0.35071  0.41346  1.0000
  H   H1647     1.0  0.19235  0.26506  0.38095  1.0000
  C   C958      1.0  0.44295  0.39252  0.38586  1.0000
  H   H1648     1.0  0.33380  0.47128  0.39774  1.0000
  H   H1649     1.0  0.32562  0.32775  0.32523  1.0000
  H   H1650     1.0  0.17783  0.29350  0.35500  1.0000
  H   H1651     1.0  0.40933  0.28189  0.35328  1.0000
  H   H1652     1.0  0.36039  0.39121  0.38535  1.0000
  C   C959      1.0  0.33606  0.46248  0.38081  1.0000
  H   H1653     1.0  0.14810  0.24925  0.27910  1.0000
  H   H1654     1.0  0.28916  0.24732  0.44151  1.0000
  H   H1655     1.0  0.25485  0.25464  0.35019  1.0000
  H   H1656     1.0  0.30359  0.36813  0.41584  1.0000
  C   C960      1.0  0.15886  0.24976  0.27382  1.0000
  H   H1657     1.0  0.20823  0.26435  0.36226  1.0000
  H   H1658     1.0  0.39852  0.36227  0.37815  1.0000
  C   C961      1.0  0.42768  0.28895  0.35039  1.0000
  H   H1659     1.0  0.38537  0.37003  0.28886  1.0000
  H   H1660     1.0  0.24538  0.24568  0.34487  1.0000
  H   H1661     1.0  0.38833  0.31471  0.33382  1.0000
  H   H1662     1.0  0.18545  0.27087  0.27729  1.0000
  H   H1663     1.0  0.39704  0.38583  0.36923  1.0000
  H   H1664     1.0  0.13758  0.27350  0.29227  1.0000
  H   H1665     1.0  0.37568  0.41704  0.30928  1.0000
  C   C962      1.0  0.36511  0.37959  0.32742  1.0000
  H   H1666     1.0  0.36174  0.45008  0.38339  1.0000
  H   H1667     1.0  0.34544  0.33039  0.41445  1.0000
  C   C963      1.0  0.27911  0.24967  0.43872  1.0000
  H   H1668     1.0  0.39917  0.37619  0.27667  1.0000
  H   H1669     1.0  0.18639  0.27384  0.34510  1.0000
  H   H1670     1.0  0.19300  0.27368  0.25956  1.0000
  N   N70       1.0  0.33515  0.34505  0.31637  1.0000
  C   C964      1.0  0.33261  0.34607  0.30261  1.0000
  C   C965      1.0  0.33277  0.35933  0.31826  1.0000
  C   C966      1.0  0.32468  0.33803  0.32684  1.0000
  C   C967      1.0  0.34955  0.33696  0.31692  1.0000
  C   C968      1.0  0.33401  0.33253  0.29870  1.0000
  C   C969      1.0  0.34137  0.36852  0.30705  1.0000
  C   C970      1.0  0.32522  0.33566  0.34183  1.0000
  C   C971      1.0  0.35672  0.33987  0.32653  1.0000
  H   H1671     1.0  0.32222  0.35234  0.30170  1.0000
  H   H1672     1.0  0.33989  0.35133  0.29443  1.0000
  H   H1673     1.0  0.33470  0.35940  0.32810  1.0000
  H   H1674     1.0  0.32179  0.36459  0.31871  1.0000
  H   H1675     1.0  0.31414  0.34382  0.32581  1.0000
  C   C972      1.0  0.33970  0.47240  0.38701  1.0000
  H   H1676     1.0  0.38051  0.47624  0.37716  1.0000
  H   H1677     1.0  0.47751  0.34272  0.38031  1.0000
  C   C973      1.0  0.25202  0.29210  0.43575  1.0000
  H   H1678     1.0  0.39744  0.37156  0.47523  1.0000
  C   C974      1.0  0.38591  0.27814  0.23736  1.0000
  C   C975      1.0  0.33977  0.27862  0.28563  1.0000
  H   H1679     1.0  0.29392  0.28628  0.43449  1.0000
  H   H1680     1.0  0.35968  0.29200  0.27106  1.0000
  Fe  Fe143     1.0  0.21538  0.23757  0.38905  1.0000
  C   C976      1.0  0.25951  0.26901  0.45778  1.0000
  H   H1681     1.0  0.36380  0.35409  0.47768  1.0000
  C   C977      1.0  0.33346  0.27823  0.25799  1.0000
  H   H1682     1.0  0.24969  0.30329  0.43185  1.0000
  H   H1683     1.0  0.32815  0.28130  0.24944  1.0000
  H   H1684     1.0  0.16542  0.24146  0.27995  1.0000
  H   H1685     1.0  0.26592  0.29436  0.44644  1.0000
  C   C978      1.0  0.37703  0.47529  0.36852  1.0000
  C   C979      1.0  0.35030  0.26545  0.28297  1.0000
  H   H1686     1.0  0.36662  0.47618  0.39722  1.0000
  H   H1687     1.0  0.24354  0.28986  0.44454  1.0000
  H   H1688     1.0  0.35052  0.31343  0.25567  1.0000
  C   C980      1.0  0.39418  0.36424  0.47156  1.0000
  C   C981      1.0  0.27263  0.24510  0.36952  1.0000
  H   H1689     1.0  0.28616  0.39069  0.24886  1.0000
  C   C982      1.0  0.35611  0.47907  0.39524  1.0000
  C   C983      1.0  0.49240  0.35177  0.34269  1.0000
  C   C984      1.0  0.38340  0.34079  0.47257  1.0000
  C   C985      1.0  0.26379  0.25757  0.46969  1.0000
  H   H1690     1.0  0.30095  0.39770  0.24277  1.0000
  C   C986      1.0  0.31038  0.37077  0.23811  1.0000
  H   H1691     1.0  0.17189  0.24485  0.25432  1.0000
  H   H1692     1.0  0.31185  0.35954  0.24057  1.0000
  C   C987      1.0  0.49224  0.33964  0.35245  1.0000
  S   S285      1.0  0.12337  0.23656  0.31914  1.0000
  H   H1693     1.0  0.34931  0.47682  0.40548  1.0000
  C   C988      1.0  0.29134  0.39763  0.24010  1.0000
  C   C989      1.0  0.24442  0.38964  0.24016  1.0000
  H   H1694     1.0  0.27110  0.41176  0.24072  1.0000
  C   C990      1.0  0.35571  0.38210  0.47828  1.0000
  H   H1695     1.0  0.26890  0.26119  0.47555  1.0000
  H   H1696     1.0  0.20293  0.33736  0.23623  1.0000
  H   H1697     1.0  0.25445  0.25461  0.47681  1.0000
  H   H1698     1.0  0.35065  0.37545  0.47573  1.0000
  H   H1699     1.0  0.18458  0.23819  0.33127  1.0000
  H   H1700     1.0  0.35111  0.39273  0.47377  1.0000
  H   H1701     1.0  0.41034  0.25142  0.23644  1.0000
  Fe  Fe144     1.0  0.12567  0.30697  0.23764  1.0000
  H   H1702     1.0  0.42657  0.23976  0.23577  1.0000
  C   C991      1.0  0.16920  0.34912  0.23516  1.0000
  H   H1703     1.0  0.16120  0.35829  0.23534  1.0000
  C   C992      1.0  0.18244  0.34925  0.23573  1.0000
  H   H1704     1.0  0.28945  0.37297  0.23732  1.0000
  H   H1705     1.0  0.19769  0.31610  0.23519  1.0000
  C   C993      1.0  0.18973  0.32532  0.23512  1.0000
  H   H1706     1.0  0.28532  0.41985  0.23180  1.0000
  S   S286      1.0  0.13365  0.32589  0.23344  1.0000
  C   C994      1.0  0.16363  0.23609  0.33903  1.0000
  C   C995      1.0  0.17659  0.23640  0.34029  1.0000
  C   C996      1.0  0.16639  0.33722  0.23397  1.0000
  H   H1707     1.0  0.15627  0.33725  0.23317  1.0000
  C   C997      1.0  0.17669  0.32533  0.23383  1.0000
  C   C998      1.0  0.29841  0.37713  0.23076  1.0000
  H   H1708     1.0  0.32025  0.37311  0.23172  1.0000
  S   S287      1.0  0.17387  0.31060  0.23121  1.0000
  C   C999      1.0  0.41733  0.24318  0.23142  1.0000
  S   S288      1.0  0.14612  0.29354  0.23095  1.0000
  Fe  Fe145     1.0  0.46547  0.34115  0.63032  1.0000
  S   S289      1.0  0.44986  0.33803  0.65000  1.0000
  H   H1709     1.0  0.22753  0.28274  0.58943  1.0000
  Fe  Fe146     1.0  0.44300  0.34855  0.61375  1.0000
  S   S290      1.0  0.42621  0.34632  0.63247  1.0000
  S   S291      1.0  0.43743  0.35406  0.59319  1.0000
  Fe  Fe147     1.0  0.43700  0.35728  0.64020  1.0000
  S   S292      1.0  0.42487  0.37415  0.65096  1.0000
  Fe  Fe148     1.0  0.44086  0.32735  0.63998  1.0000
  S   S293      1.0  0.43709  0.30605  0.64730  1.0000
  S   S294      1.0  0.45295  0.36098  0.62099  1.0000
  S   S295      1.0  0.45732  0.32903  0.62090  1.0000
  Fe  Fe149     1.0  0.37108  0.34759  0.57738  1.0000
  S   S296      1.0  0.35497  0.36512  0.58412  1.0000
  S   S297      1.0  0.38500  0.33549  0.59158  1.0000
  Fe  Fe150     1.0  0.35934  0.34963  0.55288  1.0000
  S   S298      1.0  0.34225  0.36741  0.55774  1.0000
  S   S299      1.0  0.36258  0.33832  0.53614  1.0000
  Fe  Fe151     1.0  0.35849  0.37500  0.56206  1.0000
  S   S300      1.0  0.36008  0.39683  0.55413  1.0000
  Fe  Fe152     1.0  0.34032  0.35594  0.57941  1.0000
  S   S301      1.0  0.32076  0.35377  0.59494  1.0000
  S   S302      1.0  0.37591  0.35810  0.55545  1.0000
  S   S303      1.0  0.35609  0.33751  0.57443  1.0000
  Fe  Fe153     1.0  0.35525  0.44152  0.60623  1.0000
  S   S304      1.0  0.36613  0.42371  0.61957  1.0000
  S   S305      1.0  0.34434  0.43991  0.59119  1.0000
  Fe  Fe154     1.0  0.35947  0.46248  0.61961  1.0000
  S   S306      1.0  0.37105  0.44608  0.63372  1.0000
  Fe  Fe155     1.0  0.38125  0.43670  0.61560  1.0000
  S   S307      1.0  0.40385  0.42782  0.60995  1.0000
  Fe  Fe156     1.0  0.35475  0.43481  0.63632  1.0000
  S   S308      1.0  0.34470  0.42420  0.65689  1.0000
  S   S309      1.0  0.37108  0.45403  0.60101  1.0000
  S   S310      1.0  0.34256  0.45160  0.62334  1.0000
  H   H1710     1.0  0.46064  0.28290  0.68428  1.0000
  Fe  Fe157     1.0  0.28729  0.29670  0.60608  1.0000
  S   S311      1.0  0.26733  0.29837  0.62173  1.0000
  S   S312      1.0  0.29326  0.31118  0.58625  1.0000
  Fe  Fe158     1.0  0.30115  0.27075  0.62245  1.0000
  S   S313      1.0  0.28258  0.26986  0.63942  1.0000
  S   S314      1.0  0.32139  0.25565  0.62207  1.0000
  Fe  Fe159     1.0  0.27046  0.27581  0.62318  1.0000
  S   S315      1.0  0.25212  0.26596  0.62854  1.0000
  Fe  Fe160     1.0  0.28082  0.29217  0.63674  1.0000
  S   S316      1.0  0.27831  0.29954  0.65569  1.0000
  S   S317      1.0  0.28941  0.27472  0.60626  1.0000
  S   S318      1.0  0.30040  0.29252  0.62103  1.0000
  Fe  Fe161     1.0  0.28359  0.39329  0.66969  1.0000
  S   S319      1.0  0.26271  0.38828  0.67648  1.0000
  S   S320      1.0  0.28670  0.41436  0.65925  1.0000
  Fe  Fe162     1.0  0.29822  0.36427  0.67903  1.0000
  S   S321      1.0  0.27870  0.35684  0.68684  1.0000
  S   S322      1.0  0.31906  0.35080  0.68003  1.0000
  Fe  Fe163     1.0  0.27332  0.36983  0.66746  1.0000
  S   S323      1.0  0.26504  0.36247  0.65378  1.0000
  Fe  Fe164     1.0  0.27013  0.37565  0.69519  1.0000
  S   S324      1.0  0.29347  0.37602  0.65904  1.0000
  S   S325      1.0  0.29016  0.38207  0.68907  1.0000
  Fe  Fe165     1.0  0.36297  0.25214  0.68888  1.0000
  S   S326      1.0  0.38021  0.26046  0.67336  1.0000
  Fe  Fe166     1.0  0.34206  0.27865  0.68388  1.0000
  S   S327      1.0  0.35707  0.28937  0.66794  1.0000
  S   S328      1.0  0.31992  0.28876  0.68937  1.0000
  Fe  Fe167     1.0  0.36463  0.27008  0.66040  1.0000
  S   S329      1.0  0.36876  0.27050  0.63812  1.0000
  Fe  Fe168     1.0  0.37126  0.27925  0.68217  1.0000
  S   S330      1.0  0.38136  0.29363  0.68627  1.0000
  S   S331      1.0  0.34828  0.26031  0.67499  1.0000
  S   S332      1.0  0.35540  0.27003  0.69888  1.0000
  C   C1000     1.0  0.31937  0.30588  0.68777  1.0000
  C   C1001     1.0  0.30799  0.31569  0.68429  1.0000
  C   C1002     1.0  0.30802  0.32950  0.68164  1.0000
  C   C1003     1.0  0.31916  0.33353  0.68300  1.0000
  C   C1004     1.0  0.33049  0.32371  0.68669  1.0000
  C   C1005     1.0  0.33063  0.30986  0.68900  1.0000
  H   H1711     1.0  0.29943  0.31258  0.68312  1.0000
  H   H1712     1.0  0.29963  0.33696  0.67806  1.0000
  C   C1006     1.0  0.35533  0.26639  0.63412  1.0000
  C   C1007     1.0  0.34160  0.27265  0.63871  1.0000
  C   C1008     1.0  0.33107  0.26969  0.63480  1.0000
  C   C1009     1.0  0.33424  0.26008  0.62675  1.0000
  C   C1010     1.0  0.34795  0.25370  0.62240  1.0000
  C   C1011     1.0  0.35847  0.25704  0.62583  1.0000
  H   H1713     1.0  0.33914  0.27993  0.64507  1.0000
  H   H1714     1.0  0.32054  0.27476  0.63804  1.0000
  C   C1012     1.0  0.40259  0.28153  0.62791  1.0000
  C   C1013     1.0  0.39698  0.30418  0.63381  1.0000
  C   C1014     1.0  0.27059  0.34508  0.65328  1.0000
  C   C1015     1.0  0.27591  0.33560  0.66385  1.0000
  C   C1016     1.0  0.27845  0.32165  0.66430  1.0000
  C   C1017     1.0  0.27619  0.31708  0.65398  1.0000
  C   C1018     1.0  0.27158  0.32652  0.64300  1.0000
  C   C1019     1.0  0.26859  0.34051  0.64277  1.0000
  H   H1715     1.0  0.27750  0.33893  0.67198  1.0000
  H   H1716     1.0  0.28191  0.31433  0.67283  1.0000
  H   H1717     1.0  0.26980  0.32304  0.63498  1.0000
  H   H1718     1.0  0.26450  0.34779  0.63454  1.0000
  H   H1719     1.0  0.32123  0.32840  0.54528  1.0000
  H   H1720     1.0  0.48320  0.28243  0.63856  1.0000
  C   C1020     1.0  0.25394  0.25508  0.60652  1.0000
  C   C1021     1.0  0.24879  0.25485  0.62039  1.0000
  H   H1721     1.0  0.31182  0.31516  0.53702  1.0000
  C   C1022     1.0  0.28355  0.32903  0.72703  1.0000
  H   H1722     1.0  0.34910  0.27257  0.58290  1.0000
  H   H1723     1.0  0.26096  0.26153  0.60061  1.0000
  H   H1724     1.0  0.47212  0.36496  0.64101  1.0000
  H   H1725     1.0  0.27750  0.33533  0.53671  1.0000
  H   H1726     1.0  0.24004  0.37564  0.70144  1.0000
  C   C1023     1.0  0.13959  0.24880  0.62736  1.0000
  H   H1727     1.0  0.13964  0.25821  0.61982  1.0000
  H   H1728     1.0  0.11751  0.25252  0.63338  1.0000
  H   H1729     1.0  0.48092  0.29728  0.62545  1.0000
  C   C1024     1.0  0.32845  0.42169  0.65772  1.0000
  C   C1025     1.0  0.32478  0.40950  0.66532  1.0000
  C   C1026     1.0  0.31202  0.40714  0.66578  1.0000
  C   C1027     1.0  0.30268  0.41715  0.65902  1.0000
  C   C1028     1.0  0.30624  0.42946  0.65163  1.0000
  C   C1029     1.0  0.31914  0.43169  0.65090  1.0000
  H   H1730     1.0  0.33195  0.40173  0.67061  1.0000
  H   H1731     1.0  0.30947  0.39756  0.67136  1.0000
  H   H1732     1.0  0.29906  0.43724  0.64637  1.0000
  H   H1733     1.0  0.32177  0.44122  0.64522  1.0000
  C   C1030     1.0  0.35399  0.34423  0.52258  1.0000
  C   C1031     1.0  0.34454  0.35671  0.52110  1.0000
  C   C1032     1.0  0.33744  0.36075  0.51052  1.0000
  H   H1734     1.0  0.34253  0.36315  0.52823  1.0000
  H   H1735     1.0  0.32993  0.37029  0.50962  1.0000
  C   C1033     1.0  0.35614  0.40820  0.56503  1.0000
  C   C1034     1.0  0.35178  0.42204  0.55970  1.0000
  C   C1035     1.0  0.34858  0.43159  0.56778  1.0000
  C   C1036     1.0  0.35034  0.42754  0.58113  1.0000
  C   C1037     1.0  0.35515  0.41370  0.58647  1.0000
  C   C1038     1.0  0.35767  0.40398  0.57854  1.0000
  H   H1736     1.0  0.35059  0.42539  0.54930  1.0000
  H   H1737     1.0  0.34471  0.44221  0.56364  1.0000
  H   H1738     1.0  0.35657  0.41046  0.59677  1.0000
  H   H1739     1.0  0.36099  0.39329  0.58274  1.0000
  C   C1039     1.0  0.31281  0.34224  0.59247  1.0000
  C   C1040     1.0  0.31669  0.33807  0.58013  1.0000
  C   C1041     1.0  0.31034  0.32883  0.57819  1.0000
  C   C1042     1.0  0.30032  0.32348  0.58867  1.0000
  C   C1043     1.0  0.29658  0.32747  0.60111  1.0000
  C   C1044     1.0  0.30270  0.33698  0.60295  1.0000
  H   H1740     1.0  0.32460  0.34201  0.57212  1.0000
  H   H1741     1.0  0.31362  0.32534  0.56881  1.0000
  H   H1742     1.0  0.28884  0.32338  0.60926  1.0000
  H   H1743     1.0  0.29961  0.34021  0.61252  1.0000
  C   C1045     1.0  0.41887  0.38899  0.63953  1.0000
  C   C1046     1.0  0.40566  0.39694  0.64311  1.0000
  C   C1047     1.0  0.40088  0.40885  0.63403  1.0000
  C   C1048     1.0  0.40950  0.41306  0.62156  1.0000
  C   C1049     1.0  0.42278  0.40525  0.61813  1.0000
  C   C1050     1.0  0.42734  0.39311  0.62694  1.0000
  H   H1744     1.0  0.39905  0.39383  0.65284  1.0000
  H   H1745     1.0  0.39061  0.41486  0.63677  1.0000
  H   H1746     1.0  0.42952  0.40855  0.60856  1.0000
  H   H1747     1.0  0.43755  0.38716  0.62409  1.0000
  C   C1051     1.0  0.42270  0.34921  0.59255  1.0000
  C   C1052     1.0  0.41479  0.34276  0.60433  1.0000
  C   C1053     1.0  0.40288  0.33934  0.60394  1.0000
  C   C1054     1.0  0.39892  0.34187  0.59166  1.0000
  C   C1055     1.0  0.40668  0.34845  0.57976  1.0000
  C   C1056     1.0  0.41855  0.35214  0.58022  1.0000
  H   H1748     1.0  0.41791  0.34016  0.61377  1.0000
  H   H1749     1.0  0.39678  0.33457  0.61322  1.0000
  H   H1750     1.0  0.40374  0.35040  0.57019  1.0000
  H   H1751     1.0  0.42459  0.35713  0.57101  1.0000
  C   C1057     1.0  0.42135  0.30298  0.65783  1.0000
  C   C1058     1.0  0.41918  0.28973  0.66129  1.0000
  C   C1059     1.0  0.40673  0.28687  0.66962  1.0000
  C   C1060     1.0  0.39653  0.29720  0.67483  1.0000
  C   C1061     1.0  0.39875  0.31043  0.67149  1.0000
  C   C1062     1.0  0.41107  0.31336  0.66285  1.0000
  H   H1752     1.0  0.42718  0.28162  0.65757  1.0000
  H   H1753     1.0  0.40518  0.27660  0.67238  1.0000
  H   H1754     1.0  0.39093  0.31842  0.67562  1.0000
  H   H1755     1.0  0.41269  0.32360  0.66028  1.0000
  H   H1756     1.0  0.21132  0.27945  0.61900  1.0000
  H   H1757     1.0  0.37812  0.29604  0.63978  1.0000
  H   H1758     1.0  0.31922  0.33161  0.50744  1.0000
  S   S333      1.0  0.25959  0.37331  0.71731  1.0000
  C   C1063     1.0  0.41378  0.38984  0.58477  1.0000
  H   H1759     1.0  0.30707  0.32511  0.65550  1.0000
  H   H1760     1.0  0.34424  0.33809  0.60755  1.0000
  H   H1761     1.0  0.34191  0.31301  0.64646  1.0000
  H   H1762     1.0  0.39513  0.27928  0.65015  1.0000
  H   H1763     1.0  0.35927  0.28423  0.60598  1.0000
  H   H1764     1.0  0.33098  0.32200  0.51839  1.0000
  C   C1064     1.0  0.31091  0.24680  0.65813  1.0000
  H   H1765     1.0  0.34309  0.45452  0.65365  1.0000
  H   H1766     1.0  0.32565  0.42042  0.59669  1.0000
  H   H1767     1.0  0.33896  0.39519  0.60712  1.0000
  H   H1768     1.0  0.45815  0.30041  0.68577  1.0000
  H   H1769     1.0  0.09533  0.25616  0.72588  1.0000
  H   H1770     1.0  0.30024  0.32205  0.52624  1.0000
  N   N71       1.0  0.40552  0.29555  0.62374  1.0000
  H   H1771     1.0  0.42458  0.31237  0.60705  1.0000
  H   H1772     1.0  0.29126  0.31365  0.71431  1.0000
  C   C1065     1.0  0.31594  0.35000  0.54446  1.0000
  H   H1773     1.0  0.35316  0.38117  0.48944  1.0000
  C   C1066     1.0  0.09961  0.24260  0.69218  1.0000
  H   H1774     1.0  0.30753  0.35024  0.55368  1.0000
  C   C1067     1.0  0.22900  0.40742  0.72380  1.0000
  H   H1775     1.0  0.43695  0.30502  0.61730  1.0000
  C   C1068     1.0  0.07991  0.26177  0.69253  1.0000
  H   H1776     1.0  0.42898  0.38961  0.59580  1.0000
  H   H1777     1.0  0.37721  0.31208  0.62749  1.0000
  H   H1778     1.0  0.21981  0.25933  0.59298  1.0000
  H   H1779     1.0  0.23882  0.33987  0.71296  1.0000
  H   H1780     1.0  0.32567  0.39847  0.59067  1.0000
  H   H1781     1.0  0.37633  0.31140  0.64490  1.0000
  H   H1782     1.0  0.39124  0.30231  0.61040  1.0000
  H   H1783     1.0  0.32465  0.30559  0.59077  1.0000
  H   H1784     1.0  0.36715  0.45578  0.66220  1.0000
  H   H1785     1.0  0.40006  0.30026  0.64373  1.0000
  C   C1069     1.0  0.32799  0.44921  0.68505  1.0000
  H   H1786     1.0  0.34225  0.46842  0.68347  1.0000
  C   C1070     1.0  0.23961  0.24647  0.62788  1.0000
  H   H1787     1.0  0.09834  0.35948  0.72241  1.0000
  H   H1788     1.0  0.36553  0.35994  0.49657  1.0000
  H   H1789     1.0  0.41052  0.28501  0.59965  1.0000
  H   H1790     1.0  0.42088  0.31480  0.62428  1.0000
  C   C1071     1.0  0.33797  0.47605  0.67525  1.0000
  H   H1791     1.0  0.34484  0.39309  0.62761  1.0000
  H   H1792     1.0  0.45956  0.37901  0.67443  1.0000
  H   H1793     1.0  0.12397  0.24207  0.60030  1.0000
  H   H1794     1.0  0.38253  0.35044  0.49564  1.0000
  S   S334      1.0  0.33013  0.35762  0.48863  1.0000
  C   C1072     1.0  0.24014  0.23917  0.60761  1.0000
  H   H1795     1.0  0.44652  0.37568  0.66885  1.0000
  H   H1796     1.0  0.47723  0.30648  0.67629  1.0000
  H   H1797     1.0  0.41335  0.27240  0.64480  1.0000
  C   C1073     1.0  0.34334  0.29863  0.56936  1.0000
  C   C1074     1.0  0.34167  0.27982  0.58898  1.0000
  C   C1075     1.0  0.24957  0.24732  0.60016  1.0000
  H   H1798     1.0  0.08308  0.27072  0.71927  1.0000
  C   C1076     1.0  0.15201  0.23984  0.62934  1.0000
  H   H1799     1.0  0.38487  0.33573  0.48297  1.0000
  H   H1800     1.0  0.31414  0.28081  0.66593  1.0000
  C   C1077     1.0  0.42375  0.39650  0.58775  1.0000
  C   C1078     1.0  0.32114  0.47742  0.64639  1.0000
  H   H1801     1.0  0.46638  0.29368  0.63821  1.0000
  N   N72       1.0  0.46374  0.38092  0.65252  1.0000
  H   H1802     1.0  0.28087  0.35473  0.52036  1.0000
  C   C1079     1.0  0.45786  0.39079  0.64101  1.0000
  C   C1080     1.0  0.20061  0.25967  0.58863  1.0000
  C   C1081     1.0  0.47775  0.38251  0.65232  1.0000
  H   H1803     1.0  0.32589  0.26846  0.59317  1.0000
  C   C1082     1.0  0.46657  0.39024  0.62651  1.0000
  H   H1804     1.0  0.37590  0.28417  0.59531  1.0000
  C   C1083     1.0  0.47890  0.39687  0.65208  1.0000
  C   C1084     1.0  0.46247  0.29757  0.66460  1.0000
  H   H1805     1.0  0.45600  0.40148  0.64192  1.0000
  H   H1806     1.0  0.44761  0.38921  0.64144  1.0000
  C   C1085     1.0  0.30217  0.34950  0.52275  1.0000
  H   H1807     1.0  0.30389  0.27542  0.65818  1.0000
  H   H1808     1.0  0.48153  0.37581  0.66137  1.0000
  H   H1809     1.0  0.32452  0.33558  0.71257  1.0000
  C   C1086     1.0  0.42579  0.30746  0.61756  1.0000
  H   H1810     1.0  0.31418  0.46814  0.67878  1.0000
  C   C1087     1.0  0.48097  0.30765  0.66518  1.0000
  H   H1811     1.0  0.46707  0.38077  0.62352  1.0000
  H   H1812     1.0  0.32239  0.30410  0.63749  1.0000
  C   C1088     1.0  0.32094  0.32295  0.51610  1.0000
  N   N73       1.0  0.30816  0.24804  0.67267  1.0000
  H   H1813     1.0  0.21002  0.24977  0.61674  1.0000
  H   H1814     1.0  0.19351  0.25205  0.63958  1.0000
  H   H1815     1.0  0.28498  0.35326  0.71506  1.0000
  H   H1816     1.0  0.41004  0.27475  0.62137  1.0000
  N   N74       1.0  0.23480  0.34005  0.68622  1.0000
  C   C1089     1.0  0.24362  0.34655  0.69057  1.0000
  C   C1090     1.0  0.23282  0.34798  0.67228  1.0000
  C   C1091     1.0  0.24232  0.32546  0.68572  1.0000
  C   C1092     1.0  0.22136  0.34055  0.69658  1.0000
  C   C1093     1.0  0.24779  0.33928  0.70424  1.0000
  C   C1094     1.0  0.22632  0.36331  0.67096  1.0000
  C   C1095     1.0  0.24035  0.31920  0.67488  1.0000
  C   C1096     1.0  0.21015  0.33592  0.69324  1.0000
  H   H1817     1.0  0.25321  0.34744  0.68265  1.0000
  H   H1818     1.0  0.23836  0.35711  0.69162  1.0000
  H   H1819     1.0  0.22640  0.34375  0.66840  1.0000
  H   H1820     1.0  0.24287  0.34708  0.66484  1.0000
  H   H1821     1.0  0.25363  0.32439  0.68361  1.0000
  H   H1822     1.0  0.23977  0.31853  0.69577  1.0000
  H   H1823     1.0  0.22293  0.33406  0.70660  1.0000
  H   H1824     1.0  0.21689  0.35099  0.69848  1.0000
  H   H1825     1.0  0.25488  0.34456  0.70587  1.0000
  S   S335      1.0  0.48731  0.33523  0.63369  1.0000
  H   H1826     1.0  0.30961  0.36115  0.70537  1.0000
  C   C1097     1.0  0.48613  0.28316  0.66340  1.0000
  H   H1827     1.0  0.21640  0.36536  0.67831  1.0000
  H   H1828     1.0  0.23347  0.36895  0.67188  1.0000
  H   H1829     1.0  0.24548  0.30822  0.67656  1.0000
  H   H1830     1.0  0.24541  0.32389  0.66451  1.0000
  H   H1831     1.0  0.22948  0.31997  0.67516  1.0000
  H   H1832     1.0  0.20695  0.34239  0.68387  1.0000
  H   H1833     1.0  0.20088  0.33685  0.70165  1.0000
  H   H1834     1.0  0.21334  0.32509  0.69257  1.0000
  H   H1835     1.0  0.29121  0.34005  0.51357  1.0000
  H   H1836     1.0  0.29369  0.35626  0.50471  1.0000
  C   C1098     1.0  0.39143  0.38386  0.57703  1.0000
  N   N75       1.0  0.32532  0.32979  0.64073  1.0000
  H   H1837     1.0  0.19263  0.28934  0.59608  1.0000
  C   C1099     1.0  0.33999  0.35254  0.50113  1.0000
  N   N76       1.0  0.20388  0.27065  0.60670  1.0000
  C   C1100     1.0  0.21500  0.27546  0.60951  1.0000
  C   C1101     1.0  0.20108  0.25849  0.61780  1.0000
  C   C1102     1.0  0.19139  0.28222  0.60617  1.0000
  C   C1103     1.0  0.20949  0.26633  0.59325  1.0000
  C   C1104     1.0  0.19791  0.26055  0.63245  1.0000
  C   C1105     1.0  0.17741  0.27842  0.60902  1.0000
  C   C1106     1.0  0.48785  0.27788  0.67827  1.0000
  H   H1838     1.0  0.22385  0.26682  0.61125  1.0000
  C   C1107     1.0  0.33531  0.30383  0.59190  1.0000
  H   H1839     1.0  0.19238  0.25484  0.61706  1.0000
  H   H1840     1.0  0.19020  0.28845  0.61366  1.0000
  H   H1841     1.0  0.21140  0.27519  0.58485  1.0000
  C   C1108     1.0  0.29569  0.34738  0.71510  1.0000
  H   H1842     1.0  0.22427  0.36757  0.66062  1.0000
  H   H1843     1.0  0.33591  0.44108  0.68059  1.0000
  H   H1844     1.0  0.20749  0.25258  0.58212  1.0000
  H   H1845     1.0  0.17424  0.27324  0.61977  1.0000
  H   H1846     1.0  0.17723  0.27200  0.60234  1.0000
  H   H1847     1.0  0.16939  0.28786  0.60723  1.0000
  C   C1109     1.0  0.12967  0.23962  0.71614  1.0000
  H   H1848     1.0  0.36905  0.25215  0.62230  1.0000
  C   C1110     1.0  0.40312  0.27401  0.64267  1.0000
  N   N77       1.0  0.32030  0.40781  0.61658  1.0000
  C   C1111     1.0  0.32982  0.41228  0.62219  1.0000
  C   C1112     1.0  0.31637  0.41902  0.60488  1.0000
  H   H1849     1.0  0.31434  0.35986  0.53711  1.0000
  C   C1113     1.0  0.30803  0.40544  0.62792  1.0000
  H   H1850     1.0  0.39858  0.42116  0.58263  1.0000
  C   C1114     1.0  0.30908  0.43305  0.60829  1.0000
  C   C1115     1.0  0.32304  0.39153  0.60066  1.0000
  C   C1116     1.0  0.29643  0.40142  0.62454  1.0000
  C   C1117     1.0  0.22085  0.28674  0.59841  1.0000
  H   H1851     1.0  0.32416  0.42073  0.62750  1.0000
  H   H1852     1.0  0.30960  0.41644  0.59995  1.0000
  H   H1853     1.0  0.45642  0.30788  0.66090  1.0000
  H   H1854     1.0  0.21268  0.29552  0.59530  1.0000
  H   H1855     1.0  0.39550  0.40727  0.60351  1.0000
  H   H1856     1.0  0.31119  0.39720  0.63643  1.0000
  H   H1857     1.0  0.30339  0.41437  0.63271  1.0000
  H   H1858     1.0  0.33033  0.39682  0.64143  1.0000
  H   H1859     1.0  0.29938  0.43271  0.61608  1.0000
  H   H1860     1.0  0.31586  0.43746  0.61151  1.0000
  H   H1861     1.0  0.30640  0.44023  0.59896  1.0000
  C   C1118     1.0  0.33745  0.40128  0.63238  1.0000
  H   H1862     1.0  0.31196  0.39174  0.60325  1.0000
  H   H1863     1.0  0.32849  0.38108  0.59930  1.0000
  H   H1864     1.0  0.29866  0.39029  0.62523  1.0000
  H   H1865     1.0  0.29416  0.40699  0.61457  1.0000
  H   H1866     1.0  0.28673  0.40427  0.63201  1.0000
  C   C1119     1.0  0.28177  0.33073  0.54587  1.0000
  C   C1120     1.0  0.35974  0.29281  0.58396  1.0000
  H   H1867     1.0  0.10927  0.25447  0.70358  1.0000
  H   H1868     1.0  0.30953  0.32145  0.71293  1.0000
  C   C1121     1.0  0.10902  0.24878  0.67902  1.0000
  C   C1122     1.0  0.45667  0.29374  0.68001  1.0000
  H   H1869     1.0  0.48543  0.37912  0.64344  1.0000
  H   H1870     1.0  0.37301  0.38070  0.49757  1.0000
  H   H1871     1.0  0.23343  0.40798  0.71277  1.0000
  H   H1872     1.0  0.35135  0.33481  0.64100  1.0000
  C   C1123     1.0  0.32798  0.39488  0.61168  1.0000
  C   C1124     1.0  0.40203  0.30224  0.61010  1.0000
  H   H1873     1.0  0.35255  0.32361  0.65706  1.0000
  C   C1125     1.0  0.33544  0.32251  0.64970  1.0000
  H   H1874     1.0  0.19358  0.26744  0.58268  1.0000
  H   H1875     1.0  0.48274  0.28513  0.68501  1.0000
  H   H1876     1.0  0.32991  0.31913  0.66031  1.0000
  C   C1126     1.0  0.31472  0.25918  0.67274  1.0000
  H   H1877     1.0  0.32176  0.31358  0.51267  1.0000
  H   H1878     1.0  0.20745  0.26027  0.63541  1.0000
  C   C1127     1.0  0.37634  0.36076  0.49229  1.0000
  H   H1879     1.0  0.33958  0.33882  0.65642  1.0000
  C   C1128     1.0  0.32236  0.32734  0.72157  1.0000
  C   C1129     1.0  0.46518  0.36674  0.65079  1.0000
  H   H1880     1.0  0.19463  0.25320  0.59694  1.0000
  H   H1881     1.0  0.37922  0.47782  0.62721  1.0000
  H   H1882     1.0  0.40715  0.30143  0.58878  1.0000
  H   H1883     1.0  0.31116  0.35360  0.72225  1.0000
  C   C1130     1.0  0.34523  0.33055  0.65089  1.0000
  H   H1884     1.0  0.32555  0.34905  0.54764  1.0000
  H   H1885     1.0  0.42272  0.29010  0.63340  1.0000
  H   H1886     1.0  0.34199  0.34605  0.62088  1.0000
  S   S336      1.0  0.16750  0.24377  0.61904  1.0000
  H   H1887     1.0  0.31523  0.34469  0.65315  1.0000
  C   C1131     1.0  0.40419  0.38192  0.60872  1.0000
  C   C1132     1.0  0.39253  0.38113  0.59192  1.0000
  C   C1133     1.0  0.39204  0.37910  0.62069  1.0000
  H   H1888     1.0  0.41152  0.37198  0.60782  1.0000
  H   H1889     1.0  0.40959  0.38773  0.61208  1.0000
  H   H1890     1.0  0.41944  0.37937  0.58355  1.0000
  H   H1891     1.0  0.39714  0.37009  0.59468  1.0000
  H   H1892     1.0  0.38183  0.38246  0.59814  1.0000
  H   H1893     1.0  0.38700  0.37174  0.61927  1.0000
  H   H1894     1.0  0.39601  0.37444  0.63011  1.0000
  H   H1895     1.0  0.38440  0.38858  0.62247  1.0000
  H   H1896     1.0  0.41854  0.40639  0.59067  1.0000
  H   H1897     1.0  0.38603  0.39437  0.57340  1.0000
  H   H1898     1.0  0.35683  0.24672  0.72748  1.0000
  H   H1899     1.0  0.42714  0.28669  0.61698  1.0000
  C   C1134     1.0  0.32711  0.27909  0.58884  1.0000
  H   H1900     1.0  0.43662  0.39923  0.66129  1.0000
  H   H1901     1.0  0.44538  0.29506  0.68170  1.0000
  C   C1135     1.0  0.34647  0.46116  0.65812  1.0000
  H   H1902     1.0  0.46159  0.39869  0.61920  1.0000
  H   H1903     1.0  0.45043  0.40477  0.66397  1.0000
  C   C1136     1.0  0.32364  0.46148  0.67392  1.0000
  C   C1137     1.0  0.30714  0.27393  0.66775  1.0000
  C   C1138     1.0  0.30367  0.35757  0.71572  1.0000
  C   C1139     1.0  0.31775  0.33787  0.53798  1.0000
  H   H1904     1.0  0.35462  0.45049  0.67710  1.0000
  C   C1140     1.0  0.29294  0.25207  0.67854  1.0000
  H   H1905     1.0  0.32045  0.45706  0.66711  1.0000
  C   C1141     1.0  0.44468  0.39661  0.66722  1.0000
  H   H1906     1.0  0.47708  0.39161  0.62516  1.0000
  C   C1142     1.0  0.21739  0.36321  0.72952  1.0000
  C   C1143     1.0  0.35754  0.45195  0.66595  1.0000
  H   H1907     1.0  0.23558  0.24620  0.63862  1.0000
  H   H1908     1.0  0.33139  0.45198  0.69281  1.0000
  N   N78       1.0  0.09010  0.25249  0.70066  1.0000
  H   H1909     1.0  0.40254  0.31307  0.60735  1.0000
  H   H1910     1.0  0.31587  0.25861  0.68315  1.0000
  H   H1911     1.0  0.31261  0.23656  0.69205  1.0000
  H   H1912     1.0  0.32530  0.25800  0.66627  1.0000
  N   N79       1.0  0.33420  0.46971  0.66592  1.0000
  H   H1913     1.0  0.48904  0.36294  0.61843  1.0000
  H   H1914     1.0  0.29802  0.27730  0.67556  1.0000
  C   C1144     1.0  0.37917  0.37017  0.49970  1.0000
  H   H1915     1.0  0.33778  0.41650  0.61384  1.0000
  H   H1916     1.0  0.28503  0.31952  0.54700  1.0000
  H   H1917     1.0  0.36391  0.32638  0.51421  1.0000
  H   H1918     1.0  0.39882  0.31464  0.63041  1.0000
  H   H1919     1.0  0.35191  0.46778  0.64924  1.0000
  H   H1920     1.0  0.33606  0.23738  0.67674  1.0000
  H   H1921     1.0  0.37614  0.36623  0.51084  1.0000
  H   H1922     1.0  0.42186  0.29650  0.59598  1.0000
  C   C1145     1.0  0.38129  0.30588  0.63651  1.0000
  H   H1923     1.0  0.28893  0.34718  0.54801  1.0000
  S   S337      1.0  0.35187  0.48465  0.62153  1.0000
  C   C1146     1.0  0.28492  0.24065  0.68440  1.0000
  H   H1924     1.0  0.41203  0.39525  0.57454  1.0000
  H   H1925     1.0  0.31160  0.35146  0.51502  1.0000
  H   H1926     1.0  0.39356  0.41111  0.57413  1.0000
  C   C1147     1.0  0.42048  0.29421  0.62312  1.0000
  C   C1148     1.0  0.29360  0.33678  0.54602  1.0000
  H   H1927     1.0  0.45966  0.29042  0.66031  1.0000
  H   H1928     1.0  0.27329  0.33261  0.55481  1.0000
  H   H1929     1.0  0.39022  0.37021  0.49742  1.0000
  C   C1149     1.0  0.30906  0.32400  0.52874  1.0000
  C   C1150     1.0  0.45394  0.38241  0.66606  1.0000
  H   H1930     1.0  0.43193  0.39839  0.57849  1.0000
  C   C1151     1.0  0.39149  0.41459  0.58364  1.0000
  H   H1931     1.0  0.25327  0.32854  0.70445  1.0000
  C   C1152     1.0  0.41102  0.29575  0.59808  1.0000
  H   H1932     1.0  0.19288  0.39546  0.72411  1.0000
  C   C1153     1.0  0.34968  0.34020  0.50241  1.0000
  N   N80       1.0  0.30538  0.33707  0.53367  1.0000
  H   H1933     1.0  0.13633  0.24512  0.70795  1.0000
  H   H1934     1.0  0.35163  0.33373  0.49533  1.0000
  C   C1154     1.0  0.31331  0.32294  0.64550  1.0000
  C   C1155     1.0  0.33177  0.32865  0.62619  1.0000
  C   C1156     1.0  0.31687  0.30734  0.64714  1.0000
  C   C1157     1.0  0.30868  0.35275  0.63423  1.0000
  C   C1158     1.0  0.34359  0.33596  0.61865  1.0000
  H   H1935     1.0  0.30620  0.32701  0.63841  1.0000
  H   H1936     1.0  0.33622  0.31783  0.62565  1.0000
  H   H1937     1.0  0.32400  0.33178  0.61985  1.0000
  H   H1938     1.0  0.30716  0.30373  0.65044  1.0000
  H   H1939     1.0  0.32279  0.30208  0.65513  1.0000
  H   H1940     1.0  0.29884  0.34940  0.63852  1.0000
  H   H1941     1.0  0.30649  0.36355  0.63492  1.0000
  H   H1942     1.0  0.31210  0.35255  0.62332  1.0000
  H   H1943     1.0  0.35360  0.32952  0.62065  1.0000
  N   N81       1.0  0.40051  0.38935  0.59524  1.0000
  H   H1944     1.0  0.31134  0.47429  0.65179  1.0000
  H   H1945     1.0  0.47267  0.40034  0.66143  1.0000
  H   H1946     1.0  0.29641  0.36681  0.71876  1.0000
  C   C1159     1.0  0.33494  0.30082  0.60715  1.0000
  C   C1160     1.0  0.12708  0.24557  0.63499  1.0000
  H   H1947     1.0  0.34348  0.30396  0.60896  1.0000
  H   H1948     1.0  0.33507  0.29008  0.61211  1.0000
  H   H1949     1.0  0.43924  0.39644  0.67800  1.0000
  H   H1950     1.0  0.45509  0.36529  0.65044  1.0000
  H   H1951     1.0  0.38111  0.42146  0.58467  1.0000
  H   H1952     1.0  0.32860  0.48228  0.68074  1.0000
  H   H1953     1.0  0.48976  0.39659  0.65168  1.0000
  N   N82       1.0  0.34500  0.29370  0.58388  1.0000
  H   H1954     1.0  0.32801  0.38593  0.62036  1.0000
  H   H1955     1.0  0.31898  0.44465  0.69047  1.0000
  H   H1956     1.0  0.49141  0.30245  0.64022  1.0000
  H   H1957     1.0  0.38523  0.37713  0.57629  1.0000
  H   H1958     1.0  0.47620  0.40436  0.64295  1.0000
  H   H1959     1.0  0.28768  0.25974  0.67083  1.0000
  H   H1960     1.0  0.32662  0.33857  0.52920  1.0000
  H   H1961     1.0  0.10041  0.27171  0.71743  1.0000
  H   H1962     1.0  0.19037  0.27019  0.63384  1.0000
  C   C1161     1.0  0.34820  0.31181  0.56135  1.0000
  H   H1963     1.0  0.36027  0.44160  0.66380  1.0000
  H   H1964     1.0  0.40156  0.38130  0.57012  1.0000
  H   H1965     1.0  0.34353  0.40607  0.63612  1.0000
  C   C1162     1.0  0.22286  0.36840  0.71585  1.0000
  H   H1966     1.0  0.21685  0.37041  0.70834  1.0000
  C   C1163     1.0  0.23594  0.37137  0.71194  1.0000
  N   N83       1.0  0.47761  0.29731  0.65980  1.0000
  H   H1967     1.0  0.36691  0.27203  0.59526  1.0000
  H   H1968     1.0  0.33922  0.32678  0.68763  1.0000
  H   H1969     1.0  0.38103  0.40277  0.60186  1.0000
  H   H1970     1.0  0.31903  0.28552  0.59524  1.0000
  H   H1971     1.0  0.33784  0.31400  0.58782  1.0000
  H   H1972     1.0  0.29847  0.35881  0.52705  1.0000
  H   H1973     1.0  0.35919  0.31104  0.56070  1.0000
  H   H1974     1.0  0.34897  0.29063  0.56339  1.0000
  H   H1975     1.0  0.32501  0.30654  0.61230  1.0000
  H   H1976     1.0  0.34188  0.32077  0.56552  1.0000
  H   H1977     1.0  0.33949  0.30229  0.69168  1.0000
  H   H1978     1.0  0.07254  0.27921  0.70247  1.0000
  H   H1979     1.0  0.22752  0.29051  0.60248  1.0000
  H   H1980     1.0  0.39238  0.28181  0.62633  1.0000
  H   H1981     1.0  0.36129  0.30299  0.58365  1.0000
  C   C1164     1.0  0.31975  0.34435  0.64224  1.0000
  H   H1982     1.0  0.36680  0.28961  0.57466  1.0000
  C   C1165     1.0  0.35659  0.33604  0.51315  1.0000
  H   H1983     1.0  0.28608  0.33088  0.70503  1.0000
  H   H1984     1.0  0.34700  0.31391  0.55072  1.0000
  C   C1166     1.0  0.24351  0.36919  0.72173  1.0000
  H   H1985     1.0  0.40099  0.26380  0.64434  1.0000
  C   C1167     1.0  0.39183  0.40331  0.59670  1.0000
  H   H1986     1.0  0.21014  0.40737  0.71953  1.0000
  C   C1168     1.0  0.47090  0.35504  0.66178  1.0000
  H   H1987     1.0  0.29732  0.33067  0.55532  1.0000
  H   H1988     1.0  0.32794  0.35011  0.63924  1.0000
  C   C1169     1.0  0.29128  0.35000  0.51515  1.0000
  H   H1989     1.0  0.34288  0.27535  0.59955  1.0000
  H   H1990     1.0  0.11646  0.24037  0.67460  1.0000
  C   C1170     1.0  0.36556  0.28274  0.59589  1.0000
  H   H1991     1.0  0.48190  0.35443  0.66103  1.0000
  H   H1992     1.0  0.32528  0.28166  0.57844  1.0000
  H   H1993     1.0  0.33237  0.30070  0.56889  1.0000
  H   H1994     1.0  0.06159  0.27797  0.69276  1.0000
  C   C1171     1.0  0.06840  0.27191  0.69980  1.0000
  H   H1995     1.0  0.29967  0.34472  0.70497  1.0000
  H   H1996     1.0  0.46491  0.35577  0.67220  1.0000
  H   H1997     1.0  0.08520  0.26797  0.68317  1.0000
  H   H1998     1.0  0.32200  0.24570  0.65315  1.0000
  C   C1172     1.0  0.09862  0.26050  0.70358  1.0000
  H   H1999     1.0  0.30612  0.25642  0.65190  1.0000
  H   H2000     1.0  0.07496  0.25577  0.68886  1.0000
  C   C1173     1.0  0.12506  0.24352  0.72875  1.0000
  H   H2001     1.0  0.09978  0.26973  0.69540  1.0000
  H   H2002     1.0  0.06185  0.26675  0.70891  1.0000
  H   H2003     1.0  0.32827  0.46935  0.64135  1.0000
  H   H2004     1.0  0.47547  0.31811  0.66103  1.0000
  C   C1174     1.0  0.32757  0.48132  0.65594  1.0000
  H   H2005     1.0  0.11520  0.25494  0.68072  1.0000
  H   H2006     1.0  0.10310  0.25488  0.67123  1.0000
  H   H2007     1.0  0.29111  0.25712  0.68715  1.0000
  H   H2008     1.0  0.09098  0.23783  0.71960  1.0000
  H   H2009     1.0  0.27384  0.33695  0.72837  1.0000
  C   C1175     1.0  0.30857  0.32389  0.72287  1.0000
  H   H2010     1.0  0.48180  0.27567  0.66113  1.0000
  C   C1176     1.0  0.28381  0.32355  0.71472  1.0000
  H   H2011     1.0  0.06697  0.24028  0.70646  1.0000
  H   H2012     1.0  0.25334  0.24781  0.58936  1.0000
  H   H2013     1.0  0.22711  0.41774  0.72572  1.0000
  H   H2014     1.0  0.27357  0.32165  0.71574  1.0000
  H   H2015     1.0  0.33073  0.31830  0.71976  1.0000
  H   H2016     1.0  0.47043  0.34523  0.66005  1.0000
  C   C1177     1.0  0.23545  0.23854  0.62159  1.0000
  C   C1178     1.0  0.30593  0.23551  0.65539  1.0000
  C   C1179     1.0  0.48047  0.30194  0.64449  1.0000
  N   N84       1.0  0.29574  0.33464  0.72613  1.0000
  C   C1180     1.0  0.08319  0.24432  0.71373  1.0000
  H   H2017     1.0  0.07602  0.25096  0.72051  1.0000
  C   C1181     1.0  0.47750  0.29315  0.63649  1.0000
  H   H2018     1.0  0.47444  0.31245  0.64149  1.0000
  H   H2019     1.0  0.35752  0.48039  0.66148  1.0000
  C   C1182     1.0  0.09387  0.26502  0.71731  1.0000
  H   H2020     1.0  0.14758  0.24058  0.60081  1.0000
  H   H2021     1.0  0.35045  0.24622  0.61624  1.0000
  H   H2022     1.0  0.27381  0.24534  0.68723  1.0000
  H   H2023     1.0  0.29519  0.23918  0.65403  1.0000
  H   H2024     1.0  0.35126  0.27148  0.72731  1.0000
  H   H2025     1.0  0.15809  0.24312  0.58396  1.0000
  C   C1183     1.0  0.21574  0.40203  0.72778  1.0000
  H   H2026     1.0  0.21890  0.39117  0.72709  1.0000
  H   H2027     1.0  0.48373  0.26855  0.68292  1.0000
  C   C1184     1.0  0.15604  0.23547  0.59354  1.0000
  H   H2028     1.0  0.09375  0.23719  0.68887  1.0000
  H   H2029     1.0  0.18431  0.41145  0.72919  1.0000
  C   C1185     1.0  0.31459  0.23516  0.68146  1.0000
  H   H2030     1.0  0.23696  0.40030  0.72908  1.0000
  Fe  Fe169     1.0  0.14245  0.25877  0.77324  1.0000
  S   S338      1.0  0.14930  0.26668  0.75091  1.0000
  H   H2031     1.0  0.12124  0.33308  0.74522  1.0000
  Fe  Fe170     1.0  0.11412  0.27746  0.77447  1.0000
  S   S339      1.0  0.11870  0.28658  0.75206  1.0000
  S   S340      1.0  0.09410  0.28532  0.78852  1.0000
  Fe  Fe171     1.0  0.12869  0.26505  0.74939  1.0000
  H   H2032     1.0  0.13724  0.27997  0.90583  1.0000
  Fe  Fe172     1.0  0.13884  0.28725  0.75539  1.0000
  S   S341      1.0  0.14880  0.30525  0.74590  1.0000
  S   S342      1.0  0.12240  0.25574  0.77169  1.0000
  S   S343      1.0  0.13370  0.27942  0.77786  1.0000
  Fe  Fe173     1.0  0.16879  0.34828  0.77978  1.0000
  S   S344      1.0  0.17386  0.35628  0.79504  1.0000
  S   S345      1.0  0.15134  0.33770  0.78736  1.0000
  H   H2033     1.0  0.03759  0.38978  0.82415  1.0000
  S   S346      1.0  0.19872  0.36634  0.77038  1.0000
  H   H2034     1.0  0.11523  0.38848  0.89845  1.0000
  Fe  Fe174     1.0  0.19553  0.34728  0.78573  1.0000
  S   S347      1.0  0.21095  0.33579  0.79827  1.0000
  Fe  Fe175     1.0  0.17640  0.37453  0.77826  1.0000
  S   S348      1.0  0.16774  0.39643  0.77966  1.0000
  S   S349      1.0  0.19036  0.33784  0.77165  1.0000
  S   S350      1.0  0.16937  0.36733  0.76370  1.0000
  Fe  Fe176     1.0  0.18532  0.25568  0.86487  1.0000
  S   S351      1.0  0.16305  0.26629  0.86698  1.0000
  Fe  Fe177     1.0  0.19300  0.27044  0.83595  1.0000
  S   S352      1.0  0.17160  0.28227  0.83530  1.0000
  S   S353      1.0  0.21103  0.27324  0.81857  1.0000
  Fe  Fe178     1.0  0.17063  0.28513  0.85591  1.0000
  S   S354      1.0  0.15913  0.30565  0.86027  1.0000
  Fe  Fe179     1.0  0.16557  0.26260  0.84632  1.0000
  S   S355      1.0  0.14720  0.25900  0.84184  1.0000
  S   S356      1.0  0.19273  0.27507  0.85564  1.0000
  S   S357      1.0  0.18723  0.25022  0.84509  1.0000
  C   C1186     1.0  0.02926  0.38952  0.85057  1.0000
  H   H2035     1.0  0.08300  0.39747  0.92265  1.0000
  Fe  Fe180     1.0  0.14181  0.33138  0.92597  1.0000
  S   S358      1.0  0.12174  0.33097  0.94105  1.0000
  S   S359      1.0  0.15530  0.31229  0.91938  1.0000
  Fe  Fe181     1.0  0.13895  0.36128  0.92417  1.0000
  S   S360      1.0  0.11843  0.36360  0.93875  1.0000
  S   S361      1.0  0.15060  0.37755  0.91346  1.0000
  Fe  Fe182     1.0  0.12817  0.34389  0.95114  1.0000
  Fe  Fe183     1.0  0.11395  0.35055  0.92730  1.0000
  S   S362      1.0  0.09409  0.35487  0.92037  1.0000
  S   S363      1.0  0.14901  0.34247  0.93712  1.0000
  S   S364      1.0  0.13366  0.35018  0.91169  1.0000
  Fe  Fe184     1.0  0.07822  0.34490  0.82692  1.0000
  S   S365      1.0  0.07088  0.33103  0.84649  1.0000
  S   S366      1.0  0.09213  0.33826  0.80792  1.0000
  Fe  Fe185     1.0  0.06696  0.37015  0.83934  1.0000
  S   S367      1.0  0.05861  0.35813  0.85983  1.0000
  S   S368      1.0  0.06287  0.39317  0.83451  1.0000
  Fe  Fe186     1.0  0.07877  0.34307  0.85623  1.0000
  S   S369      1.0  0.09410  0.33282  0.86965  1.0000
  Fe  Fe187     1.0  0.05129  0.34733  0.84817  1.0000
  S   S370      1.0  0.08747  0.35587  0.83644  1.0000
  S   S371      1.0  0.05826  0.36049  0.82788  1.0000
  Fe  Fe188     1.0  0.14293  0.42889  0.84107  1.0000
  S   S372      1.0  0.13257  0.44580  0.82641  1.0000
  S   S373      1.0  0.16111  0.41196  0.83568  1.0000
  Fe  Fe189     1.0  0.12050  0.43614  0.86520  1.0000
  S   S374      1.0  0.10830  0.45335  0.85233  1.0000
  S   S375      1.0  0.11202  0.43065  0.88768  1.0000
  Fe  Fe190     1.0  0.11329  0.43877  0.83848  1.0000
  S   S376      1.0  0.09843  0.43607  0.82770  1.0000
  Fe  Fe191     1.0  0.12877  0.45871  0.84179  1.0000
  S   S377      1.0  0.12389  0.42129  0.85216  1.0000
  S   S378      1.0  0.14071  0.44215  0.85559  1.0000
  C   C1187     1.0  0.07348  0.40420  0.83338  1.0000
  C   C1188     1.0  0.07100  0.41704  0.82488  1.0000
  C   C1189     1.0  0.07872  0.42650  0.82350  1.0000
  C   C1190     1.0  0.08890  0.42350  0.83084  1.0000
  C   C1191     1.0  0.09140  0.41066  0.83961  1.0000
  C   C1192     1.0  0.08373  0.40096  0.84082  1.0000
  H   H2036     1.0  0.06308  0.41972  0.81918  1.0000
  H   H2037     1.0  0.07670  0.43632  0.81670  1.0000
  H   H2038     1.0  0.09940  0.40816  0.84515  1.0000
  H   H2039     1.0  0.08566  0.39106  0.84747  1.0000
  C   C1193     1.0  0.13993  0.39241  0.90647  1.0000
  C   C1194     1.0  0.12719  0.39770  0.91424  1.0000
  C   C1195     1.0  0.11884  0.40976  0.90859  1.0000
  C   C1196     1.0  0.12299  0.41623  0.89503  1.0000
  C   C1197     1.0  0.13563  0.41081  0.88723  1.0000
  C   C1198     1.0  0.14420  0.39903  0.89303  1.0000
  H   H2040     1.0  0.12386  0.39261  0.92464  1.0000
  H   H2041     1.0  0.10908  0.41397  0.91465  1.0000
  H   H2042     1.0  0.13890  0.41574  0.87676  1.0000
  H   H2043     1.0  0.15404  0.39495  0.88700  1.0000
  C   C1199     1.0  0.09427  0.34892  0.90608  1.0000
  C   C1200     1.0  0.10636  0.34166  0.89905  1.0000
  C   C1201     1.0  0.10619  0.33691  0.88781  1.0000
  C   C1202     1.0  0.09400  0.33962  0.88333  1.0000
  C   C1203     1.0  0.08196  0.34714  0.89016  1.0000
  C   C1204     1.0  0.08207  0.35163  0.90159  1.0000
  H   H2044     1.0  0.11580  0.33953  0.90236  1.0000
  H   H2045     1.0  0.11556  0.33116  0.88254  1.0000
  H   H2046     1.0  0.07249  0.34918  0.88687  1.0000
  H   H2047     1.0  0.07267  0.35722  0.90698  1.0000
  H   H2048     1.0  0.00767  0.35389  0.81756  1.0000
  H   H2049     1.0  0.02734  0.35094  0.82795  1.0000
  H   H2050     1.0  0.17704  0.34488  0.96798  1.0000
  H   H2051     1.0  0.16377  0.39054  0.92892  1.0000
  H   H2052     1.0  0.18410  0.28709  0.75639  1.0000
  H   H2053     1.0  0.11878  0.36742  0.97236  1.0000
  H   H2054     1.0  0.10636  0.26508  0.92488  1.0000
  C   C1205     1.0  0.16959  0.36953  0.94051  1.0000
  C   C1206     1.0  0.15855  0.30762  0.87651  1.0000
  C   C1207     1.0  0.16678  0.29805  0.88480  1.0000
  C   C1208     1.0  0.16610  0.29985  0.89777  1.0000
  C   C1209     1.0  0.15710  0.31114  0.90253  1.0000
  C   C1210     1.0  0.14897  0.32074  0.89415  1.0000
  C   C1211     1.0  0.14972  0.31901  0.88116  1.0000
  H   H2055     1.0  0.17362  0.28922  0.88126  1.0000
  H   H2056     1.0  0.17237  0.29234  0.90422  1.0000
  H   H2057     1.0  0.14183  0.32931  0.89777  1.0000
  H   H2058     1.0  0.14328  0.32641  0.87480  1.0000
  C   C1212     1.0  0.16620  0.40056  0.79523  1.0000
  C   C1213     1.0  0.17119  0.39087  0.80589  1.0000
  C   C1214     1.0  0.16968  0.39448  0.81826  1.0000
  C   C1215     1.0  0.16300  0.40770  0.82007  1.0000
  C   C1216     1.0  0.15800  0.41733  0.80941  1.0000
  C   C1217     1.0  0.15968  0.41379  0.79700  1.0000
  H   H2059     1.0  0.17635  0.38068  0.80455  1.0000
  H   H2060     1.0  0.17366  0.38706  0.82646  1.0000
  H   H2061     1.0  0.15305  0.42758  0.81064  1.0000
  H   H2062     1.0  0.15585  0.42133  0.78877  1.0000
  C   C1218     1.0  0.21093  0.31839  0.80313  1.0000
  C   C1219     1.0  0.19905  0.31385  0.80466  1.0000
  C   C1220     1.0  0.19895  0.29999  0.80959  1.0000
  C   C1221     1.0  0.21091  0.29061  0.81243  1.0000
  C   C1222     1.0  0.22288  0.29513  0.81043  1.0000
  C   C1223     1.0  0.22281  0.30902  0.80609  1.0000
  H   H2063     1.0  0.18986  0.32104  0.80229  1.0000
  H   H2064     1.0  0.18970  0.29656  0.81100  1.0000
  H   H2065     1.0  0.23218  0.28796  0.81247  1.0000
  H   H2066     1.0  0.23200  0.31251  0.80490  1.0000
  H   H2067     1.0  0.24393  0.36223  0.74296  1.0000
  H   H2068     1.0  0.28227  0.32057  0.73612  1.0000
  H   H2069     1.0  0.18387  0.26909  0.76034  1.0000
  H   H2070     1.0  0.20664  0.40784  0.76856  1.0000
  C   C1224     1.0  0.00961  0.37821  0.86084  1.0000
  H   H2071     1.0  0.23737  0.26677  0.82776  1.0000
  C   C1225     1.0  0.16301  0.24622  0.82112  1.0000
  H   H2072     1.0  0.16969  0.28169  0.75544  1.0000
  H   H2073     1.0  0.13949  0.29660  0.90291  1.0000
  H   H2074     1.0  0.32193  0.25536  0.74959  1.0000
  C   C1226     1.0  0.17774  0.27944  0.76128  1.0000
  C   C1227     1.0  0.09356  0.29967  0.79454  1.0000
  C   C1228     1.0  0.10418  0.30657  0.78923  1.0000
  C   C1229     1.0  0.10368  0.31817  0.79369  1.0000
  C   C1230     1.0  0.09250  0.32307  0.80351  1.0000
  C   C1231     1.0  0.08184  0.31612  0.80902  1.0000
  C   C1232     1.0  0.08236  0.30446  0.80450  1.0000
  H   H2075     1.0  0.11263  0.30315  0.78138  1.0000
  H   H2076     1.0  0.11197  0.32343  0.78941  1.0000
  H   H2077     1.0  0.07313  0.31982  0.81660  1.0000
  H   H2078     1.0  0.07407  0.29916  0.80867  1.0000
  C   C1233     1.0  0.14936  0.31449  0.75733  1.0000
  C   C1234     1.0  0.14154  0.31252  0.77061  1.0000
  C   C1235     1.0  0.14215  0.31974  0.77974  1.0000
  C   C1236     1.0  0.15058  0.32904  0.77562  1.0000
  C   C1237     1.0  0.15836  0.33121  0.76228  1.0000
  C   C1238     1.0  0.15770  0.32395  0.75312  1.0000
  H   H2079     1.0  0.13482  0.30562  0.77382  1.0000
  H   H2080     1.0  0.13608  0.31811  0.79000  1.0000
  H   H2081     1.0  0.16489  0.33843  0.75902  1.0000
  C   C1239     1.0  0.01770  0.34881  0.83431  1.0000
  C   C1240     1.0  0.15476  0.24717  0.80128  1.0000
  C   C1241     1.0  0.14184  0.25424  0.80704  1.0000
  C   C1242     1.0  0.13952  0.25728  0.81978  1.0000
  C   C1243     1.0  0.15018  0.25369  0.82663  1.0000
  H   H2082     1.0  0.13832  0.47486  0.86143  1.0000
  C   C1244     1.0  0.24116  0.23930  0.83016  1.0000
  H   H2083     1.0  0.13357  0.25721  0.80176  1.0000
  H   H2084     1.0  0.12947  0.26256  0.82428  1.0000
  H   H2085     1.0  0.09892  0.34402  0.77763  1.0000
  H   H2086     1.0  0.17613  0.38294  0.95638  1.0000
  H   H2087     1.0  0.08108  0.41109  0.87057  1.0000
  C   C1245     1.0  0.01639  0.34435  0.84837  1.0000
  H   H2088     1.0  0.00211  0.29094  0.82024  1.0000
  H   H2089     1.0  0.09777  0.38482  0.91782  1.0000
  H   H2090     1.0  0.09513  0.34328  0.73188  1.0000
  H   H2091     1.0  0.15253  0.35919  0.97328  1.0000
  H   H2092     1.0  0.20490  0.26453  0.79571  1.0000
  H   H2093     1.0  0.99776  0.40295  0.86685  1.0000
  C   C1246     1.0  0.08805  0.39108  0.91499  1.0000
  H   H2094     1.0  0.12102  0.26470  0.93063  1.0000
  C   C1247     1.0  0.09970  0.33185  0.75738  1.0000
  H   H2095     1.0  0.19097  0.25733  0.80743  1.0000
  H   H2096     1.0  0.12171  0.28666  0.93957  1.0000
  H   H2097     1.0  0.10809  0.40984  0.87830  1.0000
  H   H2098     1.0  0.08223  0.35875  0.73399  1.0000
  H   H2099     1.0  0.10829  0.30942  0.93776  1.0000
  H   H2100     1.0  0.34137  0.25228  0.76398  1.0000
  H   H2101     1.0  0.19984  0.42450  0.73124  1.0000
  H   H2102     1.0  0.19983  0.38499  0.74490  1.0000
  H   H2103     1.0  0.08365  0.42195  0.88012  1.0000
  C   C1248     1.0  0.25894  0.25901  0.82048  1.0000
  H   H2104     1.0  0.02976  0.38026  0.87199  1.0000
  H   H2105     1.0  0.29449  0.32749  0.74776  1.0000
  H   H2106     1.0  0.07627  0.34822  0.78444  1.0000
  C   C1249     1.0  0.11763  0.34740  0.76428  1.0000
  C   C1250     1.0  0.12866  0.28964  0.92960  1.0000
  H   H2107     1.0  0.17306  0.34228  0.95322  1.0000
  S   S379      1.0  0.20076  0.36023  0.73436  1.0000
  N   N85       1.0  0.18023  0.27808  0.78544  1.0000
  C   C1251     1.0  0.18885  0.26377  0.78600  1.0000
  C   C1252     1.0  0.17072  0.28026  0.77614  1.0000
  C   C1253     1.0  0.17202  0.27911  0.79962  1.0000
  C   C1254     1.0  0.18986  0.28767  0.78035  1.0000
  C   C1255     1.0  0.19747  0.25827  0.79698  1.0000
  C   C1256     1.0  0.15898  0.29056  0.80110  1.0000
  C   C1257     1.0  0.18343  0.30301  0.77726  1.0000
  H   H2108     1.0  0.18230  0.25645  0.78762  1.0000
  H   H2109     1.0  0.19624  0.26283  0.77614  1.0000
  H   H2110     1.0  0.16335  0.29020  0.77577  1.0000
  H   H2111     1.0  0.16413  0.27266  0.78014  1.0000
  H   H2112     1.0  0.16835  0.26962  0.80481  1.0000
  H   H2113     1.0  0.17858  0.28010  0.80588  1.0000
  H   H2114     1.0  0.19610  0.28623  0.78789  1.0000
  H   H2115     1.0  0.19773  0.28524  0.77115  1.0000
  H   H2116     1.0  0.22420  0.40116  0.74992  1.0000
  H   H2117     1.0  0.34497  0.26847  0.74521  1.0000
  H   H2118     1.0  0.13168  0.29876  0.93037  1.0000
  H   H2119     1.0  0.15497  0.29063  0.81205  1.0000
  H   H2120     1.0  0.16087  0.30076  0.79596  1.0000
  H   H2121     1.0  0.18126  0.30741  0.78634  1.0000
  H   H2122     1.0  0.17404  0.30556  0.77336  1.0000
  H   H2123     1.0  0.19071  0.30828  0.76900  1.0000
  N   N86       1.0  0.18163  0.33769  0.83848  1.0000
  C   C1258     1.0  0.17308  0.33399  0.83114  1.0000
  C   C1259     1.0  0.19491  0.32707  0.83798  1.0000
  C   C1260     1.0  0.18439  0.35152  0.83094  1.0000
  C   C1261     1.0  0.17354  0.33808  0.85279  1.0000
  C   C1262     1.0  0.15910  0.34387  0.82996  1.0000
  C   C1263     1.0  0.19368  0.31234  0.84503  1.0000
  C   C1264     1.0  0.19713  0.35511  0.83259  1.0000
  C   C1265     1.0  0.18085  0.33990  0.86285  1.0000
  H   H2124     1.0  0.17894  0.33304  0.82066  1.0000
  H   H2125     1.0  0.17063  0.32391  0.83621  1.0000
  H   H2126     1.0  0.20221  0.32940  0.84245  1.0000
  H   H2127     1.0  0.20038  0.32702  0.82725  1.0000
  H   H2128     1.0  0.18587  0.35265  0.81977  1.0000
  H   H2129     1.0  0.17543  0.35976  0.83382  1.0000
  H   H2130     1.0  0.16429  0.34657  0.85279  1.0000
  H   H2131     1.0  0.16914  0.32897  0.85747  1.0000
  H   H2132     1.0  0.16002  0.35451  0.82537  1.0000
  H   H2133     1.0  0.15454  0.34073  0.82325  1.0000
  H   H2134     1.0  0.15176  0.34335  0.83997  1.0000
  H   H2135     1.0  0.20414  0.30581  0.84501  1.0000
  H   H2136     1.0  0.18802  0.31147  0.85578  1.0000
  H   H2137     1.0  0.18892  0.30798  0.83948  1.0000
  H   H2138     1.0  0.19691  0.36602  0.82785  1.0000
  H   H2139     1.0  0.20673  0.34920  0.82713  1.0000
  H   H2140     1.0  0.19752  0.35361  0.84332  1.0000
  H   H2141     1.0  0.17984  0.35085  0.86235  1.0000
  H   H2142     1.0  0.19176  0.33459  0.86156  1.0000
  H   H2143     1.0  0.17600  0.33520  0.87334  1.0000
  H   H2144     1.0  0.17511  0.23694  0.80428  1.0000
  H   H2145     1.0  0.03796  0.38094  0.84798  1.0000
  H   H2146     1.0  0.14117  0.26897  0.92730  1.0000
  C   C1266     1.0  0.09957  0.35560  0.74354  1.0000
  H   H2147     1.0  0.09593  0.40792  0.90119  1.0000
  H   H2148     1.0  0.11753  0.28936  0.89322  1.0000
  N   N87       1.0  0.34867  0.23965  0.74885  1.0000
  C   C1267     1.0  0.12310  0.38094  0.88040  1.0000
  H   H2149     1.0  0.08656  0.37770  0.89651  1.0000
  C   C1268     1.0  0.16871  0.34483  0.96338  1.0000
  C   C1269     1.0  0.22509  0.36086  0.73924  1.0000
  H   H2150     1.0  0.13146  0.37303  0.88447  1.0000
  H   H2151     1.0  0.08504  0.37643  0.87280  1.0000
  H   H2152     1.0  0.17939  0.36172  0.94006  1.0000
  C   C1270     1.0  0.00401  0.31562  0.82744  1.0000
  H   H2153     1.0  0.09451  0.30875  0.93072  1.0000
  C   C1271     1.0  0.16935  0.37218  0.97666  1.0000
  C   C1272     1.0  0.10188  0.35006  0.76724  1.0000
  H   H2154     1.0  0.00092  0.30539  0.80662  1.0000
  H   H2155     1.0  0.10342  0.28629  0.93151  1.0000
  H   H2156     1.0  0.09907  0.38419  0.86591  1.0000
  C   C1273     1.0  0.11542  0.26965  0.92239  1.0000
  H   H2157     1.0  0.18796  0.39700  0.75377  1.0000
  H   H2158     1.0  0.02110  0.39808  0.86915  1.0000
  C   C1274     1.0  0.28121  0.34749  0.74498  1.0000
  C   C1275     1.0  0.08866  0.41550  0.87252  1.0000
  H   H2159     1.0  0.36480  0.24424  0.75513  1.0000
  C   C1276     1.0  0.35227  0.26386  0.73689  1.0000
  H   H2160     1.0  0.10089  0.32378  0.92635  1.0000
  H   H2161     1.0  0.10867  0.31104  0.90784  1.0000
  H   H2162     1.0  0.22934  0.26815  0.85608  1.0000
  C   C1277     1.0  0.15095  0.38297  0.95560  1.0000
  H   H2163     1.0  0.12230  0.33645  0.76510  1.0000
  S   S380      1.0  0.12768  0.33811  0.97386  1.0000
  C   C1278     1.0  0.00652  0.35047  0.82844  1.0000
  H   H2164     1.0  0.23637  0.25214  0.86656  1.0000
  H   H2165     1.0  0.15075  0.28866  0.79752  1.0000
  H   H2166     1.0  0.18334  0.36530  0.95916  1.0000
  H   H2167     1.0  0.21933  0.38575  0.75166  1.0000
  S   S381      1.0  0.02991  0.34259  0.85649  1.0000
  N   N88       1.0  0.16295  0.37091  0.95496  1.0000
  H   H2168     1.0  0.18666  0.41715  0.76192  1.0000
  H   H2169     1.0  0.10901  0.37423  0.89891  1.0000
  C   C1279     1.0  0.14213  0.27859  0.92893  1.0000
  C   C1280     1.0  0.19539  0.39608  0.74399  1.0000
  C   C1281     1.0  0.08862  0.38570  0.88726  1.0000
  C   C1282     1.0  0.15780  0.35829  0.96271  1.0000
  H   H2170     1.0  0.16376  0.32558  0.74283  1.0000
  S   S382      1.0  0.12911  0.25830  0.73025  1.0000
  H   H2171     1.0  0.12035  0.37697  0.87305  1.0000
  H   H2172     1.0  0.17119  0.24315  0.82653  1.0000
  C   C1283     1.0  0.34904  0.25065  0.73608  1.0000
  H   H2173     1.0  0.23610  0.24666  0.82213  1.0000
  H   H2174     1.0  0.12213  0.35338  0.75439  1.0000
  H   H2175     1.0  0.07761  0.33282  0.77899  1.0000
  C   C1284     1.0  0.09392  0.37823  0.87540  1.0000
  C   C1285     1.0  0.20802  0.39751  0.76687  1.0000
  H   H2176     1.0  0.10089  0.36826  0.87825  1.0000
  H   H2177     1.0  0.24788  0.26550  0.83896  1.0000
  H   H2178     1.0  0.15458  0.39264  0.95168  1.0000
  H   H2179     1.0  0.08110  0.38441  0.91596  1.0000
  Fe  Fe192     1.0  0.19162  0.35776  0.75689  1.0000
  H   H2180     1.0  0.99788  0.40020  0.84145  1.0000
  C   C1286     1.0  0.22841  0.25749  0.86061  1.0000
  S   S383      1.0  0.13089  0.48095  0.83497  1.0000
  H   H2181     1.0  0.07675  0.36201  0.76125  1.0000
  H   H2182     1.0  0.10677  0.40032  0.86756  1.0000
  H   H2183     1.0  0.14133  0.37473  0.94379  1.0000
  H   H2184     1.0  0.22078  0.25623  0.84397  1.0000
  H   H2185     1.0  0.00728  0.41564  0.85654  1.0000
  H   H2186     1.0  0.14548  0.38317  0.96633  1.0000
  C   C1287     1.0  0.22872  0.24997  0.84977  1.0000
  H   H2187     1.0  0.03056  0.38186  0.81555  1.0000
  H   H2188     1.0  0.20352  0.24787  0.79606  1.0000
  H   H2189     1.0  0.01054  0.37970  0.83426  1.0000
  H   H2190     1.0  0.08001  0.40648  0.89936  1.0000
  H   H2191     1.0  0.26832  0.25289  0.82408  1.0000
  H   H2192     1.0  0.12224  0.30573  0.88885  1.0000
  H   H2193     1.0  0.12748  0.39001  0.87507  1.0000
  C   C1288     1.0  0.24607  0.25995  0.83223  1.0000
  H   H2194     1.0  0.12178  0.26718  0.91260  1.0000
  H   H2195     1.0  0.12962  0.38522  0.95472  1.0000
  N   N89       1.0  0.12462  0.39394  0.80968  1.0000
  C   C1289     1.0  0.12782  0.39941  0.82007  1.0000
  C   C1290     1.0  0.12654  0.40410  0.79633  1.0000
  C   C1291     1.0  0.13458  0.38048  0.80837  1.0000
  C   C1292     1.0  0.11000  0.39224  0.81462  1.0000
  C   C1293     1.0  0.12883  0.38961  0.83395  1.0000
  C   C1294     1.0  0.11851  0.41892  0.79645  1.0000
  C   C1295     1.0  0.13800  0.37620  0.79461  1.0000
  C   C1296     1.0  0.10458  0.38632  0.80583  1.0000
  H   H2196     1.0  0.13774  0.40267  0.81597  1.0000
  H   H2197     1.0  0.11995  0.40865  0.82239  1.0000
  H   H2198     1.0  0.12378  0.40103  0.78833  1.0000
  H   H2199     1.0  0.13759  0.40444  0.79252  1.0000
  H   H2200     1.0  0.14475  0.38054  0.80988  1.0000
  H   H2201     1.0  0.13090  0.37208  0.81648  1.0000
  H   H2202     1.0  0.10849  0.38545  0.82484  1.0000
  H   H2203     1.0  0.10291  0.40214  0.81577  1.0000
  H   H2204     1.0  0.13696  0.38025  0.83303  1.0000
  H   H2205     1.0  0.13166  0.39484  0.84030  1.0000
  H   H2206     1.0  0.11890  0.38692  0.83961  1.0000
  H   H2207     1.0  0.12219  0.42370  0.80256  1.0000
  H   H2208     1.0  0.12029  0.42507  0.78592  1.0000
  H   H2209     1.0  0.10728  0.41984  0.80002  1.0000
  H   H2210     1.0  0.14331  0.36530  0.79586  1.0000
  H   H2211     1.0  0.14513  0.38203  0.78685  1.0000
  H   H2212     1.0  0.12895  0.37739  0.79053  1.0000
  H   H2213     1.0  0.10522  0.39245  0.79533  1.0000
  H   H2214     1.0  0.09353  0.38642  0.81036  1.0000
  H   H2215     1.0  0.10985  0.37555  0.80582  1.0000
  N   N90       1.0  0.09570  0.34683  0.75742  1.0000
  H   H2216     1.0  0.27954  0.35713  0.73735  1.0000
  C   C1297     1.0  0.12578  0.29458  0.89213  1.0000
  H   H2217     1.0  0.25715  0.24506  0.85206  1.0000
  N   N91       1.0  0.20658  0.40357  0.74152  1.0000
  C   C1298     1.0  0.07410  0.34405  0.77682  1.0000
  H   H2218     1.0  0.30313  0.34075  0.74059  1.0000
  H   H2219     1.0  0.27197  0.34315  0.74792  1.0000
  H   H2220     1.0  0.15968  0.37955  0.97969  1.0000
  H   H2221     1.0  0.99520  0.29151  0.79693  1.0000
  H   H2222     1.0  0.01242  0.30909  0.82138  1.0000
  C   C1299     1.0  0.11039  0.28506  0.92152  1.0000
  H   H2223     1.0  0.07506  0.34822  0.75555  1.0000
  H   H2224     1.0  0.11081  0.35379  0.73956  1.0000
  H   H2225     1.0  0.17745  0.39652  0.73699  1.0000
  H   H2226     1.0  0.11898  0.31679  0.75483  1.0000
  C   C1300     1.0  0.08027  0.35080  0.76211  1.0000
  C   C1301     1.0  0.25376  0.23855  0.84744  1.0000
  N   N92       1.0  0.01611  0.38766  0.84860  1.0000
  C   C1302     1.0  0.32329  0.24935  0.75974  1.0000
  H   H2227     1.0  0.09235  0.42249  0.86293  1.0000
  H   H2228     1.0  0.03936  0.39311  0.86433  1.0000
  H   H2229     1.0  0.25761  0.25488  0.81238  1.0000
  H   H2230     1.0  0.31823  0.24062  0.76266  1.0000
  C   C1303     1.0  0.01982  0.38091  0.83665  1.0000
  N   N93       1.0  0.24241  0.24661  0.84018  1.0000
  H   H2231     1.0  0.14984  0.35694  0.95833  1.0000
  H   H2232     1.0  0.09926  0.32581  0.76788  1.0000
  C   C1304     1.0  0.11392  0.32636  0.74872  1.0000
  H   H2233     1.0  0.11274  0.32343  0.73978  1.0000
  H   H2234     1.0  0.06275  0.34634  0.77839  1.0000
  H   H2235     1.0  0.99669  0.37090  0.85201  1.0000
  C   C1305     1.0  0.11447  0.30795  0.91602  1.0000
  C   C1306     1.0  0.13997  0.38378  0.94788  1.0000
  C   C1307     1.0  0.00380  0.34146  0.85641  1.0000
  H   H2236     1.0  0.13427  0.29134  0.88373  1.0000
  C   C1308     1.0  0.16521  0.24274  0.80854  1.0000
  H   H2237     1.0  0.21831  0.25792  0.86796  1.0000
  H   H2238     1.0  0.02619  0.37045  0.83912  1.0000
  H   H2239     1.0  0.03222  0.39882  0.84348  1.0000
  C   C1309     1.0  0.00030  0.40932  0.85660  1.0000
  H   H2240     1.0  0.01681  0.36812  0.86253  1.0000
  H   H2241     1.0  0.12061  0.35042  0.77222  1.0000
  C   C1310     1.0  0.18708  0.40029  0.73285  1.0000
  C   C1311     1.0  0.00644  0.40118  0.84527  1.0000
  H   H2242     1.0  0.16368  0.33648  0.96988  1.0000
  H   H2243     1.0  0.32314  0.32981  0.73088  1.0000
  H   H2244     1.0  0.15054  0.28235  0.92085  1.0000
  C   C1312     1.0  0.36274  0.23582  0.75203  1.0000
  H   H2245     1.0  0.26068  0.26940  0.81570  1.0000
  C   C1313     1.0  0.02963  0.39033  0.86490  1.0000
  H   H2246     1.0  0.00265  0.33798  0.86730  1.0000
  S   S384      1.0  0.15811  0.24454  0.78473  1.0000
  H   H2247     1.0  0.17834  0.38007  0.92039  1.0000
  H   H2248     1.0  0.10369  0.28909  0.91404  1.0000
  C   C1314     1.0  0.13154  0.29073  0.90503  1.0000
  H   H2249     1.0  0.00767  0.38174  0.87036  1.0000
  H   H2250     1.0  0.00812  0.31677  0.83566  1.0000
  H   H2251     1.0  0.09781  0.36091  0.76804  1.0000
  C   C1315     1.0  0.17349  0.37287  0.96118  1.0000
  C   C1316     1.0  0.33840  0.24439  0.76087  1.0000
  C   C1317     1.0  0.20110  0.41853  0.74155  1.0000
  H   H2252     1.0  0.22108  0.35657  0.74974  1.0000
  H   H2253     1.0  0.14543  0.27626  0.93866  1.0000
  C   C1318     1.0  0.02781  0.38827  0.82317  1.0000
  H   H2254     1.0  0.13971  0.39281  0.93933  1.0000
  H   H2255     1.0  0.07819  0.39208  0.88664  1.0000
  H   H2256     1.0  0.16316  0.36567  0.93624  1.0000
  H   H2257     1.0  0.31782  0.25636  0.76675  1.0000
  H   H2258     1.0  0.19808  0.39441  0.77026  1.0000
  H   H2259     1.0  0.21472  0.39047  0.77362  1.0000
  H   H2260     1.0  0.28214  0.35007  0.75422  1.0000
  C   C1319     1.0  0.10401  0.31251  0.92854  1.0000
  N   N94       1.0  0.12135  0.29303  0.91805  1.0000
  H   H2261     1.0  0.12233  0.31425  0.91271  1.0000
  C   C1320     1.0  0.17309  0.38255  0.93049  1.0000
  H   H2262     1.0  0.18015  0.38663  0.93364  1.0000
  H   H2263     1.0  0.09645  0.36655  0.74409  1.0000
  H   H2264     1.0  0.18503  0.43361  0.75112  1.0000
  H   H2265     1.0  0.02150  0.39814  0.81894  1.0000
  C   C1321     1.0  0.21513  0.39670  0.75203  1.0000
  C   C1322     1.0  0.11649  0.23632  0.73928  1.0000
  C   C1323     1.0  0.11100  0.38413  0.89238  1.0000
  N   N95       1.0  0.12113  0.30449  0.83417  1.0000
  C   C1324     1.0  0.12518  0.31423  0.82094  1.0000
  C   C1325     1.0  0.12197  0.29116  0.83075  1.0000
  C   C1326     1.0  0.13152  0.30243  0.84247  1.0000
  C   C1327     1.0  0.10690  0.31067  0.84135  1.0000
  C   C1328     1.0  0.12607  0.32830  0.82206  1.0000
  C   C1329     1.0  0.11313  0.29195  0.82088  1.0000
  C   C1330     1.0  0.12987  0.29226  0.85620  1.0000
  C   C1331     1.0  0.09844  0.30079  0.85177  1.0000
  H   H2266     1.0  0.13529  0.30969  0.81495  1.0000
  H   H2267     1.0  0.11774  0.31635  0.81442  1.0000
  H   H2268     1.0  0.11913  0.28332  0.83986  1.0000
  H   H2269     1.0  0.13278  0.28662  0.82620  1.0000
  H   H2270     1.0  0.14210  0.29904  0.83653  1.0000
  H   H2271     1.0  0.13134  0.31212  0.84498  1.0000
  H   H2272     1.0  0.10736  0.31832  0.84667  1.0000
  H   H2273     1.0  0.10053  0.31641  0.83377  1.0000
  H   H2274     1.0  0.12721  0.33502  0.81176  1.0000
  H   H2275     1.0  0.11665  0.33335  0.82849  1.0000
  H   H2276     1.0  0.13523  0.32767  0.82581  1.0000
  H   H2277     1.0  0.11839  0.29557  0.81026  1.0000
  H   H2278     1.0  0.11168  0.28169  0.82152  1.0000
  H   H2279     1.0  0.10279  0.29855  0.82321  1.0000
  H   H2280     1.0  0.12979  0.28201  0.85535  1.0000
  H   H2281     1.0  0.12069  0.29628  0.86359  1.0000
  H   H2282     1.0  0.13889  0.29091  0.86047  1.0000
  H   H2283     1.0  0.09203  0.30586  0.86019  1.0000
  H   H2284     1.0  0.10447  0.29109  0.85654  1.0000
  H   H2285     1.0  0.09106  0.29876  0.84711  1.0000
  N   N96       1.0  0.09786  0.39355  0.88900  1.0000
  C   C1332     1.0  0.09038  0.40047  0.90073  1.0000
  C   C1333     1.0  0.10106  0.40452  0.87665  1.0000
  H   H2286     1.0  0.09204  0.32895  0.75377  1.0000
  H   H2287     1.0  0.00151  0.32594  0.82113  1.0000
  C   C1334     1.0  0.09337  0.35404  0.73246  1.0000
  H   H2288     1.0  0.11285  0.23922  0.74903  1.0000
  C   C1335     1.0  0.18710  0.42261  0.75124  1.0000
  H   H2289     1.0  0.33841  0.23603  0.77003  1.0000
  H   H2290     1.0  0.36298  0.26224  0.73784  1.0000
  H   H2291     1.0  0.99527  0.29947  0.84067  1.0000
  C   C1336     1.0  0.29433  0.33719  0.73997  1.0000
  S   S385      1.0  0.19186  0.24195  0.88364  1.0000
  H   H2292     1.0  0.01174  0.40807  0.83659  1.0000
  C   C1337     1.0  0.99579  0.37583  0.86039  1.0000
  H   H2293     1.0  0.17850  0.42111  0.74793  1.0000
  H   H2294     1.0  0.20863  0.42269  0.74400  1.0000
  C   C1338     1.0  0.23807  0.36395  0.73537  1.0000
  H   H2295     1.0  0.22479  0.24080  0.85537  1.0000
  H   H2296     1.0  0.33924  0.25374  0.73270  1.0000
  H   H2297     1.0  0.32556  0.23574  0.74104  1.0000
  H   H2298     1.0  0.30807  0.31422  0.73060  1.0000
  C   C1339     1.0  0.99468  0.29875  0.81468  1.0000
  H   H2299     1.0  0.17750  0.37476  0.97978  1.0000
  H   H2300     1.0  0.04542  0.70022  0.19269  1.0000
  Fe  Fe193     1.0  0.13177  0.66254  0.05942  1.0000
  S   S386      1.0  0.14760  0.64639  0.06887  1.0000
  S   S387      1.0  0.11543  0.67415  0.07391  1.0000
  Fe  Fe194     1.0  0.14578  0.65765  0.03065  1.0000
  S   S388      1.0  0.16298  0.64124  0.03805  1.0000
  S   S389      1.0  0.14225  0.66523  0.00893  1.0000
  Fe  Fe195     1.0  0.14630  0.63404  0.05518  1.0000
  S   S390      1.0  0.14308  0.61259  0.06235  1.0000
  Fe  Fe196     1.0  0.16283  0.65516  0.05126  1.0000
  S   S391      1.0  0.18155  0.65692  0.05718  1.0000
  S   S392      1.0  0.12908  0.64955  0.04709  1.0000
  S   S393      1.0  0.14703  0.67223  0.04249  1.0000
  Fe  Fe197     1.0  0.15783  0.56019  0.12599  1.0000
  S   S394      1.0  0.16851  0.54209  0.13940  1.0000
  S   S395      1.0  0.16891  0.57629  0.11208  1.0000
  Fe  Fe198     1.0  0.12980  0.55425  0.13962  1.0000
  S   S396      1.0  0.13785  0.53577  0.15449  1.0000
  S   S397      1.0  0.10777  0.56273  0.13788  1.0000
  Fe  Fe199     1.0  0.15130  0.54837  0.15634  1.0000
  S   S398      1.0  0.15398  0.54964  0.17658  1.0000
  Fe  Fe200     1.0  0.15451  0.53059  0.13648  1.0000
  S   S399      1.0  0.16433  0.50885  0.13358  1.0000
  S   S400      1.0  0.14156  0.56722  0.14326  1.0000
  S   S401      1.0  0.14549  0.54827  0.12132  1.0000
  Fe  Fe201     1.0  0.03699  0.64787  0.15512  1.0000
  S   S402      1.0  0.04975  0.64419  0.17060  1.0000
  S   S403      1.0  0.01352  0.65476  0.15951  1.0000
  Fe  Fe202     1.0  0.06230  0.64429  0.13211  1.0000
  S   S404      1.0  0.07699  0.64036  0.14542  1.0000
  S   S405      1.0  0.06897  0.64318  0.10997  1.0000
  Fe  Fe203     1.0  0.06331  0.62731  0.16030  1.0000
  S   S406      1.0  0.07420  0.60770  0.17193  1.0000
  Fe  Fe204     1.0  0.06271  0.65741  0.15469  1.0000
  S   S407      1.0  0.07282  0.67306  0.15692  1.0000
  S   S408      1.0  0.04956  0.62981  0.14625  1.0000
  S   S409      1.0  0.04897  0.66259  0.13993  1.0000
  H   H2301     1.0  0.06395  0.70561  0.21583  1.0000
  C   C1340     1.0  0.17016  0.49215  0.18785  1.0000
  H   H2302     1.0  0.10053  0.64689  0.20677  1.0000
  H   H2303     1.0  0.13521  0.60912  0.99729  1.0000
  H   H2304     1.0  0.12847  0.67077  0.98722  1.0000
  H   H2305     1.0  0.24907  0.69155  0.07654  1.0000
  Fe  Fe205     1.0  0.19264  0.61908  0.17748  1.0000
  S   S410      1.0  0.17991  0.60381  0.18856  1.0000
  S   S411      1.0  0.18438  0.63424  0.16036  1.0000
  C   C1341     1.0  0.21113  0.64417  0.20958  1.0000
  H   H2306     1.0  0.08770  0.62934  0.21121  1.0000
  Fe  Fe206     1.0  0.19996  0.58884  0.18888  1.0000
  S   S412      1.0  0.20447  0.56946  0.18137  1.0000
  H   H2307     1.0  0.15645  0.67620  0.11372  1.0000
  H   H2308     1.0  0.15476  0.59561  0.15106  1.0000
  S   S413      1.0  0.21271  0.60391  0.17634  1.0000
  C   C1342     1.0  0.36854  0.71194  0.21584  1.0000
  S   S414      1.0  0.21743  0.70007  0.09040  1.0000
  S   S415      1.0  0.18112  0.70765  0.07969  1.0000
  Fe  Fe207     1.0  0.21283  0.69037  0.11259  1.0000
  S   S416      1.0  0.22507  0.67020  0.12154  1.0000
  S   S417      1.0  0.18987  0.69649  0.11560  1.0000
  C   C1343     1.0  0.04786  0.70158  0.17150  1.0000
  H   H2309     1.0  0.14667  0.61796  0.01607  1.0000
  C   C1344     1.0  0.36247  0.72355  0.20736  1.0000
  H   H2310     1.0  0.16467  0.63382  0.19984  1.0000
  S   S418      1.0  0.12438  0.68472  0.19342  1.0000
  H   H2311     1.0  0.03719  0.67317  0.09130  1.0000
  C   C1345     1.0  0.19634  0.64316  0.14898  1.0000
  C   C1346     1.0  0.20921  0.64161  0.15159  1.0000
  C   C1347     1.0  0.21825  0.64962  0.14284  1.0000
  C   C1348     1.0  0.21437  0.65922  0.13157  1.0000
  C   C1349     1.0  0.20168  0.66043  0.12876  1.0000
  C   C1350     1.0  0.19266  0.65242  0.13747  1.0000
  H   H2312     1.0  0.21209  0.63448  0.16049  1.0000
  H   H2313     1.0  0.22809  0.64864  0.14501  1.0000
  H   H2314     1.0  0.19883  0.66751  0.11984  1.0000
  H   H2315     1.0  0.18276  0.65355  0.13536  1.0000
  H   H2316     1.0  0.04488  0.65543  0.09669  1.0000
  C   C1351     1.0  0.15705  0.72611  0.15711  1.0000
  H   H2317     1.0  0.12875  0.60666  0.03427  1.0000
  S   S419      1.0  0.35998  0.69858  0.22312  1.0000
  H   H2318     1.0  0.23765  0.57693  0.16997  1.0000
  H   H2319     1.0  0.15926  0.65891  0.19625  1.0000
  C   C1352     1.0  0.07896  0.67138  0.17151  1.0000
  C   C1353     1.0  0.07351  0.66394  0.18419  1.0000
  C   C1354     1.0  0.07710  0.66459  0.19594  1.0000
  C   C1355     1.0  0.08626  0.67256  0.19507  1.0000
  C   C1356     1.0  0.09220  0.67947  0.18231  1.0000
  C   C1357     1.0  0.08856  0.67887  0.17060  1.0000
  H   H2320     1.0  0.06607  0.65817  0.18502  1.0000
  H   H2321     1.0  0.07250  0.65916  0.20577  1.0000
  H   H2322     1.0  0.09936  0.68556  0.18147  1.0000
  H   H2323     1.0  0.09291  0.68456  0.16081  1.0000
  C   C1358     1.0  0.15546  0.49624  0.13478  1.0000
  H   H2324     1.0  0.37314  0.72806  0.15628  1.0000
  N   N97       1.0  0.34634  0.72621  0.17015  1.0000
  C   C1359     1.0  0.15316  0.63547  0.98710  1.0000
  H   H2325     1.0  0.32145  0.72480  0.16366  1.0000
  C   C1360     1.0  0.14118  0.49908  0.13673  1.0000
  Fe  Fe208     1.0  0.10895  0.71199  0.21570  1.0000
  H   H2326     1.0  0.12352  0.49125  0.13857  1.0000
  H   H2327     1.0  0.01822  0.63477  0.10823  1.0000
  H   H2328     1.0  0.13523  0.50919  0.13769  1.0000
  C   C1361     1.0  0.08326  0.59504  0.16260  1.0000
  C   C1362     1.0  0.09561  0.58660  0.16561  1.0000
  C   C1363     1.0  0.10319  0.57665  0.15808  1.0000
  C   C1364     1.0  0.09828  0.57486  0.14773  1.0000
  C   C1365     1.0  0.08575  0.58305  0.14496  1.0000
  C   C1366     1.0  0.07834  0.59324  0.15226  1.0000
  H   H2329     1.0  0.09939  0.58787  0.17368  1.0000
  H   H2330     1.0  0.11272  0.57025  0.16044  1.0000
  H   H2331     1.0  0.08183  0.58159  0.13709  1.0000
  H   H2332     1.0  0.06875  0.59960  0.14999  1.0000
  C   C1367     1.0  0.16791  0.55584  0.17708  1.0000
  C   C1368     1.0  0.16610  0.56373  0.18655  1.0000
  C   C1369     1.0  0.17715  0.56829  0.18764  1.0000
  C   C1370     1.0  0.19023  0.56459  0.17958  1.0000
  C   C1371     1.0  0.19207  0.55665  0.17013  1.0000
  C   C1372     1.0  0.18090  0.55249  0.16870  1.0000
  H   H2333     1.0  0.15611  0.56628  0.19312  1.0000
  H   H2334     1.0  0.17562  0.57428  0.19506  1.0000
  H   H2335     1.0  0.20216  0.55371  0.16388  1.0000
  H   H2336     1.0  0.18243  0.54635  0.16142  1.0000
  C   C1373     1.0  0.14345  0.65550  0.99703  1.0000
  H   H2337     1.0  0.16088  0.65651  0.08744  1.0000
  H   H2338     1.0  0.39732  0.72179  0.21493  1.0000
  S   S420      1.0  0.18061  0.72541  0.13758  1.0000
  C   C1374     1.0  0.23609  0.61044  0.21517  1.0000
  C   C1375     1.0  0.15250  0.64282  0.99679  1.0000
  H   H2339     1.0  0.09305  0.60521  0.03907  1.0000
  C   C1376     1.0  0.05784  0.70664  0.20831  1.0000
  C   C1377     1.0  0.15668  0.66375  0.09437  1.0000
  H   H2340     1.0  0.15904  0.63869  0.00401  1.0000
  C   C1378     1.0  0.10229  0.66579  0.08378  1.0000
  C   C1379     1.0  0.09668  0.66709  0.09730  1.0000
  C   C1380     1.0  0.08647  0.66014  0.10545  1.0000
  C   C1381     1.0  0.08166  0.65208  0.10002  1.0000
  C   C1382     1.0  0.08708  0.65098  0.08645  1.0000
  C   C1383     1.0  0.09739  0.65781  0.07834  1.0000
  H   H2341     1.0  0.10032  0.67336  0.10152  1.0000
  H   H2342     1.0  0.08225  0.66111  0.11590  1.0000
  H   H2343     1.0  0.08335  0.64480  0.08220  1.0000
  H   H2344     1.0  0.10154  0.65693  0.06788  1.0000
  C   C1384     1.0  0.15089  0.60229  0.07569  1.0000
  C   C1385     1.0  0.14705  0.58999  0.08260  1.0000
  C   C1386     1.0  0.15252  0.58195  0.09378  1.0000
  C   C1387     1.0  0.16212  0.58602  0.09791  1.0000
  C   C1388     1.0  0.16617  0.59820  0.09083  1.0000
  C   C1389     1.0  0.16048  0.60639  0.07982  1.0000
  H   H2345     1.0  0.13968  0.58674  0.07942  1.0000
  H   H2346     1.0  0.14939  0.57255  0.09913  1.0000
  H   H2347     1.0  0.17368  0.60135  0.09389  1.0000
  H   H2348     1.0  0.16359  0.61582  0.07447  1.0000
  C   C1390     1.0  0.18151  0.67113  0.06322  1.0000
  C   C1391     1.0  0.19034  0.66971  0.07174  1.0000
  C   C1392     1.0  0.19042  0.68080  0.07682  1.0000
  C   C1393     1.0  0.18187  0.69350  0.07317  1.0000
  C   C1394     1.0  0.17324  0.69497  0.06445  1.0000
  C   C1395     1.0  0.17297  0.68383  0.05958  1.0000
  H   H2349     1.0  0.19706  0.65995  0.07450  1.0000
  H   H2350     1.0  0.19713  0.67954  0.08350  1.0000
  H   H2351     1.0  0.16668  0.70478  0.06148  1.0000
  H   H2352     1.0  0.16627  0.68511  0.05288  1.0000
  H   H2353     1.0  0.02694  0.67688  0.12562  1.0000
  C   C1396     1.0  0.00540  0.63515  0.15213  1.0000
  H   H2354     1.0  0.15315  0.65774  0.10460  1.0000
  H   H2355     1.0  0.13973  0.49806  0.09855  1.0000
  H   H2356     1.0  0.09459  0.64843  0.01917  1.0000
  H   H2357     1.0  0.24758  0.70615  0.10321  1.0000
  H   H2358     1.0  0.01592  0.62945  0.15133  1.0000
  H   H2359     1.0  0.16312  0.48610  0.19556  1.0000
  H   H2360     1.0  0.33600  0.71422  0.15436  1.0000
  Fe  Fe209     1.0  0.19446  0.70731  0.09367  1.0000
  N   N98       1.0  0.01854  0.65385  0.11235  1.0000
  H   H2361     1.0  0.25592  0.54741  0.21539  1.0000
  C   C1397     1.0  0.02498  0.65864  0.12088  1.0000
  C   C1398     1.0  0.02255  0.63854  0.11468  1.0000
  C   C1399     1.0  0.02216  0.66027  0.09741  1.0000
  H   H2362     1.0  0.27299  0.67222  0.09930  1.0000
  C   C1400     1.0  0.01997  0.67387  0.12127  1.0000
  C   C1401     1.0  0.03797  0.63196  0.11191  1.0000
  H   H2363     1.0  0.21124  0.64195  0.19980  1.0000
  S   S421      1.0  0.19399  0.62450  0.19612  1.0000
  Fe  Fe210     1.0  0.18271  0.60800  0.20723  1.0000
  H   H2364     1.0  0.03631  0.65660  0.11767  1.0000
  H   H2365     1.0  0.02303  0.65279  0.13155  1.0000
  N   N99       1.0  0.24565  0.56925  0.19601  1.0000
  H   H2366     1.0  0.23313  0.54751  0.21411  1.0000
  H   H2367     1.0  0.17928  0.48782  0.20533  1.0000
  C   C1402     1.0  0.14394  0.72358  0.16317  1.0000
  H   H2368     1.0  0.19791  0.66616  0.22721  1.0000
  H   H2369     1.0  0.11790  0.68239  0.13074  1.0000
  C   C1403     1.0  0.17957  0.49505  0.19533  1.0000
  C   C1404     1.0  0.16379  0.72325  0.14433  1.0000
  C   C1405     1.0  0.16940  0.68455  0.98812  1.0000
  H   H2370     1.0  0.03929  0.62073  0.11491  1.0000
  C   C1406     1.0  0.33085  0.72478  0.15544  1.0000
  H   H2371     1.0  0.12071  0.50013  0.08619  1.0000
  H   H2372     1.0  0.05513  0.69667  0.21029  1.0000
  S   S422      1.0  0.19468  0.72696  0.09848  1.0000
  C   C1407     1.0  0.03693  0.66259  0.09155  1.0000
  H   H2373     1.0  0.18663  0.70087  0.15733  1.0000
  H   H2374     1.0  0.17275  0.51966  0.17913  1.0000
  C   C1408     1.0  0.35524  0.71226  0.16917  1.0000
  H   H2375     1.0  0.17780  0.62530  0.11930  1.0000
  C   C1409     1.0  0.16264  0.67714  0.15422  1.0000
  C   C1410     1.0  0.36426  0.70584  0.17976  1.0000
  H   H2376     1.0  0.16348  0.52393  0.16649  1.0000
  H   H2377     1.0  0.15994  0.68218  0.18127  1.0000
  C   C1411     1.0  0.14425  0.62010  0.19225  1.0000
  H   H2378     1.0  0.34884  0.70493  0.17037  1.0000
  H   H2379     1.0  0.15318  0.68208  0.16069  1.0000
  C   C1412     1.0  0.15727  0.71826  0.13738  1.0000
  H   H2380     1.0  0.16188  0.62867  0.14906  1.0000
  H   H2381     1.0  0.13955  0.52106  0.20483  1.0000
  H   H2382     1.0  0.17317  0.69365  0.14680  1.0000
  H   H2383     1.0  0.35808  0.70460  0.19034  1.0000
  H   H2384     1.0  0.14802  0.49533  0.07653  1.0000
  H   H2385     1.0  0.24213  0.68915  0.12380  1.0000
  H   H2386     1.0  0.15717  0.61847  0.14116  1.0000
  N   N100      1.0  0.26495  0.69367  0.09201  1.0000
  C   C1413     1.0  0.27624  0.69672  0.09631  1.0000
  C   C1414     1.0  0.26923  0.67913  0.09031  1.0000
  C   C1415     1.0  0.25170  0.69534  0.10251  1.0000
  C   C1416     1.0  0.26273  0.70352  0.07892  1.0000
  C   C1417     1.0  0.27286  0.71037  0.10078  1.0000
  C   C1418     1.0  0.28063  0.67633  0.07772  1.0000
  C   C1419     1.0  0.25221  0.70136  0.07226  1.0000
  H   H2387     1.0  0.27966  0.68856  0.10480  1.0000
  H   H2388     1.0  0.28555  0.69683  0.08791  1.0000
  H   H2389     1.0  0.13721  0.67098  0.11674  1.0000
  H   H2390     1.0  0.15202  0.69282  0.11762  1.0000
  C   C1420     1.0  0.16285  0.61791  0.14880  1.0000
  H   H2391     1.0  0.20273  0.57970  0.15171  1.0000
  H   H2392     1.0  0.25907  0.71412  0.08049  1.0000
  H   H2393     1.0  0.27258  0.70374  0.07124  1.0000
  H   H2394     1.0  0.28212  0.71162  0.10316  1.0000
  H   H2395     1.0  0.26998  0.71927  0.09273  1.0000
  H   H2396     1.0  0.26470  0.71066  0.11017  1.0000
  H   H2397     1.0  0.19211  0.63753  0.21847  1.0000
  H   H2398     1.0  0.16004  0.62558  0.98714  1.0000
  H   H2399     1.0  0.35756  0.73264  0.18101  1.0000
  H   H2400     1.0  0.15776  0.61279  0.15895  1.0000
  H   H2401     1.0  0.23517  0.55862  0.18842  1.0000
  H   H2402     1.0  0.12323  0.67309  0.10960  1.0000
  H   H2403     1.0  0.25658  0.70183  0.06123  1.0000
  N   N101      1.0  0.17892  0.68253  0.16576  1.0000
  C   C1421     1.0  0.17518  0.68300  0.15273  1.0000
  C   C1422     1.0  0.19033  0.69004  0.16210  1.0000
  C   C1423     1.0  0.18344  0.66783  0.17238  1.0000
  C   C1424     1.0  0.13748  0.71840  0.15635  1.0000
  C   C1425     1.0  0.20364  0.68446  0.15237  1.0000
  C   C1426     1.0  0.18842  0.66516  0.18552  1.0000
  H   H2404     1.0  0.18381  0.67727  0.14608  1.0000
  H   H2405     1.0  0.19350  0.69030  0.17124  1.0000
  H   H2406     1.0  0.17497  0.66243  0.17498  1.0000
  H   H2407     1.0  0.19175  0.66241  0.16519  1.0000
  H   H2408     1.0  0.16473  0.66597  0.15810  1.0000
  H   H2409     1.0  0.14777  0.62851  0.18415  1.0000
  H   H2410     1.0  0.21128  0.69055  0.15101  1.0000
  H   H2411     1.0  0.20837  0.67376  0.15642  1.0000
  H   H2412     1.0  0.20203  0.68554  0.14210  1.0000
  H   H2413     1.0  0.19756  0.66932  0.18388  1.0000
  H   H2414     1.0  0.19148  0.65402  0.18921  1.0000
  H   H2415     1.0  0.18012  0.66903  0.19369  1.0000
  H   H2416     1.0  0.17593  0.69111  0.19063  1.0000
  H   H2417     1.0  0.36999  0.69549  0.17828  1.0000
  H   H2418     1.0  0.03862  0.70988  0.17057  1.0000
  C   C1427     1.0  0.33503  0.72470  0.18276  1.0000
  H   H2419     1.0  0.16241  0.71619  0.12743  1.0000
  S   S423      1.0  0.09971  0.72711  0.22958  1.0000
  Fe  Fe211     1.0  0.21296  0.60784  0.19637  1.0000
  C   C1428     1.0  0.22604  0.55661  0.20975  1.0000
  H   H2420     1.0  0.13879  0.72576  0.17307  1.0000
  H   H2421     1.0  0.25790  0.61983  0.22824  1.0000
  H   H2422     1.0  0.12700  0.69546  0.12150  1.0000
  C   C1429     1.0  0.38756  0.72231  0.21284  1.0000
  H   H2423     1.0  0.11530  0.65815  0.17843  1.0000
  C   C1430     1.0  0.14882  0.51046  0.18830  1.0000
  H   H2424     1.0  0.26787  0.56211  0.19075  1.0000
  H   H2425     1.0  0.12327  0.71026  0.07176  1.0000
  H   H2426     1.0  0.24438  0.72850  0.13237  1.0000
  H   H2427     1.0  0.22100  0.56309  0.21733  1.0000
  H   H2428     1.0  0.24359  0.69259  0.09948  1.0000
  H   H2429     1.0  0.12024  0.65613  0.19913  1.0000
  H   H2430     1.0  0.00963  0.67588  0.12805  1.0000
  C   C1431     1.0  0.15843  0.49956  0.16892  1.0000
  C   C1432     1.0  0.24658  0.61622  0.21559  1.0000
  C   C1433     1.0  0.13456  0.48887  0.13725  1.0000
  H   H2431     1.0  0.25468  0.67572  0.11718  1.0000
  C   C1434     1.0  0.38149  0.73392  0.20433  1.0000
  H   H2432     1.0  0.23409  0.72177  0.11753  1.0000
  H   H2433     1.0  0.07567  0.70137  0.19294  1.0000
  N   N102      1.0  0.13756  0.68553  0.09732  1.0000
  H   H2434     1.0  0.13699  0.64649  0.19542  1.0000
  H   H2435     1.0  0.13234  0.60183  0.01476  1.0000
  H   H2436     1.0  0.12118  0.62161  0.22286  1.0000
  C   C1435     1.0  0.15343  0.65902  0.21756  1.0000
  C   C1436     1.0  0.38107  0.71134  0.21864  1.0000
  H   H2437     1.0  0.11181  0.69449  0.11693  1.0000
  H   H2438     1.0  0.15440  0.69570  0.08841  1.0000
  H   H2439     1.0  0.13359  0.65713  0.17372  1.0000
  H   H2440     1.0  0.24164  0.56610  0.21811  1.0000
  H   H2441     1.0  0.20117  0.58831  0.12727  1.0000
  Fe  Fe212     1.0  0.10397  0.68775  0.20789  1.0000
  C   C1437     1.0  0.34064  0.73226  0.15756  1.0000
  C   C1438     1.0  0.12547  0.65150  0.17960  1.0000
  H   H2442     1.0  0.16538  0.66804  0.09406  1.0000
  H   H2443     1.0  0.18943  0.51876  0.15881  1.0000
  C   C1439     1.0  0.99571  0.63021  0.14884  1.0000
  H   H2444     1.0  0.14130  0.70366  0.10035  1.0000
  H   H2445     1.0  0.16783  0.49465  0.16226  1.0000
  H   H2446     1.0  0.01816  0.63397  0.12538  1.0000
  C   C1440     1.0  0.11628  0.64230  0.22545  1.0000
  H   H2447     1.0  0.08008  0.72980  0.17222  1.0000
  C   C1441     1.0  0.13439  0.48966  0.10056  1.0000
  H   H2448     1.0  0.14271  0.51899  0.18191  1.0000
  H   H2449     1.0  0.18990  0.50109  0.16608  1.0000
  H   H2450     1.0  0.04015  0.66160  0.08078  1.0000
  S   S424      1.0  0.12143  0.71454  0.16418  1.0000
  S   S425      1.0  0.20179  0.59147  0.20893  1.0000
  H   H2451     1.0  0.33931  0.72116  0.19202  1.0000
  H   H2452     1.0  0.24819  0.58898  0.16268  1.0000
  H   H2453     1.0  0.07477  0.70520  0.16557  1.0000
  H   H2454     1.0  0.99891  0.62072  0.14546  1.0000
  H   H2455     1.0  0.10977  0.60006  0.02908  1.0000
  H   H2456     1.0  0.23865  0.59023  0.18630  1.0000
  H   H2457     1.0  0.12463  0.62291  0.18743  1.0000
  H   H2458     1.0  0.25203  0.62171  0.20629  1.0000
  C   C1442     1.0  0.14998  0.51594  0.20001  1.0000
  C   C1443     1.0  0.14910  0.48924  0.17415  1.0000
  C   C1444     1.0  0.15784  0.65279  0.20643  1.0000
  H   H2459     1.0  0.13486  0.62997  0.21637  1.0000
  H   H2460     1.0  0.16652  0.68832  0.10473  1.0000
  H   H2461     1.0  0.16116  0.58499  0.13865  1.0000
  H   H2462     1.0  0.34911  0.73265  0.14829  1.0000
  H   H2463     1.0  0.27106  0.54080  0.20452  1.0000
  H   H2464     1.0  0.25676  0.58463  0.18309  1.0000
  H   H2465     1.0  0.25981  0.68902  0.12126  1.0000
  H   H2466     1.0  0.18135  0.60743  0.15525  1.0000
  H   H2467     1.0  0.16048  0.67901  0.14401  1.0000
  H   H2468     1.0  0.13902  0.71197  0.13807  1.0000
  S   S426      1.0  0.21435  0.70817  0.11936  1.0000
  H   H2469     1.0  0.17852  0.58579  0.15763  1.0000
  Fe  Fe213     1.0  0.19193  0.71544  0.12004  1.0000
  S   S427      1.0  0.12945  0.71112  0.20110  1.0000
  H   H2470     1.0  0.15985  0.57767  0.15623  1.0000
  S   S428      1.0  0.09826  0.71031  0.20047  1.0000
  Fe  Fe214     1.0  0.21724  0.71859  0.09753  1.0000
  H   H2471     1.0  0.13447  0.69475  0.06839  1.0000
  H   H2472     1.0  0.21643  0.58752  0.14165  1.0000
  C   C1445     1.0  0.25617  0.57871  0.21008  1.0000
  H   H2473     1.0  0.18080  0.59491  0.11961  1.0000
  H   H2474     1.0  0.18403  0.61911  0.13987  1.0000
  Fe  Fe215     1.0  0.11916  0.70737  0.18672  1.0000
  H   H2475     1.0  0.16685  0.48885  0.08775  1.0000
  H   H2476     1.0  0.18372  0.57773  0.14358  1.0000
  N   N103      1.0  0.11488  0.60995  0.10876  1.0000
  C   C1446     1.0  0.11449  0.61635  0.09406  1.0000
  C   C1447     1.0  0.11323  0.59556  0.11133  1.0000
  C   C1448     1.0  0.12864  0.61002  0.11088  1.0000
  C   C1449     1.0  0.10336  0.61839  0.11737  1.0000
  C   C1450     1.0  0.11969  0.62963  0.08815  1.0000
  C   C1451     1.0  0.09967  0.59411  0.10925  1.0000
  C   C1452     1.0  0.13388  0.59953  0.12283  1.0000
  C   C1453     1.0  0.10106  0.61317  0.13286  1.0000
  H   H2477     1.0  0.12073  0.60917  0.08737  1.0000
  H   H2478     1.0  0.10386  0.61874  0.09244  1.0000
  H   H2479     1.0  0.11400  0.58981  0.12175  1.0000
  H   H2480     1.0  0.12180  0.58972  0.10464  1.0000
  H   H2481     1.0  0.13683  0.60793  0.10183  1.0000
  H   H2482     1.0  0.12876  0.62025  0.11196  1.0000
  H   H2483     1.0  0.10492  0.62888  0.11538  1.0000
  H   H2484     1.0  0.09341  0.62013  0.11446  1.0000
  H   H2485     1.0  0.11442  0.63743  0.09428  1.0000
  H   H2486     1.0  0.13092  0.62777  0.08707  1.0000
  H   H2487     1.0  0.11784  0.63384  0.07774  1.0000
  H   H2488     1.0  0.09870  0.59799  0.09855  1.0000
  H   H2489     1.0  0.09952  0.58313  0.11185  1.0000
  H   H2490     1.0  0.09062  0.59913  0.11609  1.0000
  H   H2491     1.0  0.12683  0.60022  0.13279  1.0000
  H   H2492     1.0  0.14375  0.60126  0.12330  1.0000
  H   H2493     1.0  0.13619  0.58909  0.12108  1.0000
  H   H2494     1.0  0.10635  0.61809  0.13737  1.0000
  H   H2495     1.0  0.10418  0.60208  0.13617  1.0000
  H   H2496     1.0  0.08991  0.61556  0.13737  1.0000
  C   C1454     1.0  0.12846  0.62248  0.19647  1.0000
  C   C1455     1.0  0.12633  0.64719  0.19470  1.0000
  H   H2497     1.0  0.04287  0.63428  0.10096  1.0000
  C   C1456     1.0  0.24731  0.57930  0.17022  1.0000
  H   H2498     1.0  0.10293  0.61646  0.20835  1.0000
  H   H2499     1.0  0.01529  0.67052  0.09526  1.0000
  H   H2500     1.0  0.17253  0.68069  0.99803  1.0000
  C   C1457     1.0  0.25834  0.55815  0.19358  1.0000
  H   H2501     1.0  0.25625  0.57142  0.16670  1.0000
  N   N104      1.0  0.12117  0.63463  0.20277  1.0000
  C   C1458     1.0  0.12671  0.69525  0.09016  1.0000
  H   H2502     1.0  0.13749  0.48625  0.07351  1.0000
  H   H2503     1.0  0.25785  0.58817  0.20254  1.0000
  C   C1459     1.0  0.12129  0.68849  0.12044  1.0000
  S   S429      1.0  0.08980  0.67401  0.21008  1.0000
  Fe  Fe216     1.0  0.13248  0.68861  0.20925  1.0000
  H   H2504     1.0  0.17216  0.70670  0.17827  1.0000
  C   C1460     1.0  0.12376  0.63146  0.21686  1.0000
  H   H2505     1.0  0.14999  0.67957  0.07863  1.0000
  C   C1461     1.0  0.13014  0.67882  0.11097  1.0000
  H   H2506     1.0  0.01984  0.68043  0.11102  1.0000
  C   C1462     1.0  0.06676  0.71014  0.19392  1.0000
  C   C1463     1.0  0.16094  0.63859  0.20849  1.0000
  H   H2507     1.0  0.28998  0.67962  0.07734  1.0000
  C   C1464     1.0  0.10608  0.63742  0.20315  1.0000
  N   N105      1.0  0.11734  0.62560  0.02372  1.0000
  C   C1465     1.0  0.11540  0.64048  0.02350  1.0000
  C   C1466     1.0  0.12770  0.61779  0.03227  1.0000
  C   C1467     1.0  0.10362  0.62183  0.03024  1.0000
  C   C1468     1.0  0.12206  0.62376  0.00925  1.0000
  C   C1469     1.0  0.10501  0.65052  0.01540  1.0000
  C   C1470     1.0  0.14242  0.62009  0.02639  1.0000
  C   C1471     1.0  0.10375  0.60664  0.03628  1.0000
  C   C1472     1.0  0.12723  0.60912  0.00691  1.0000
  H   H2508     1.0  0.11206  0.64228  0.03403  1.0000
  H   H2509     1.0  0.12519  0.64388  0.01907  1.0000
  H   H2510     1.0  0.17607  0.61858  0.10614  1.0000
  H   H2511     1.0  0.12421  0.62025  0.04256  1.0000
  H   H2512     1.0  0.09809  0.62710  0.03879  1.0000
  H   H2513     1.0  0.09682  0.62535  0.02286  1.0000
  H   H2514     1.0  0.11367  0.62857  0.00366  1.0000
  H   H2515     1.0  0.13012  0.62946  0.00347  1.0000
  H   H2516     1.0  0.10418  0.66095  0.01658  1.0000
  H   H2517     1.0  0.26574  0.57068  0.20931  1.0000
  H   H2518     1.0  0.10857  0.65073  0.00435  1.0000
  H   H2519     1.0  0.14307  0.63044  0.02639  1.0000
  H   H2520     1.0  0.14927  0.61295  0.03294  1.0000
  H   H2521     1.0  0.10761  0.60313  0.04579  1.0000
  C   C1473     1.0  0.23299  0.56478  0.19621  1.0000
  H   H2522     1.0  0.11874  0.60529  0.00588  1.0000
  H   H2523     1.0  0.20301  0.59656  0.15281  1.0000
  C   C1474     1.0  0.16632  0.68951  0.17481  1.0000
  H   H2524     1.0  0.16837  0.66513  0.98661  1.0000
  N   N106      1.0  0.05981  0.71330  0.18223  1.0000
  H   H2525     1.0  0.16578  0.60546  0.12691  1.0000
  H   H2526     1.0  0.20725  0.62496  0.22075  1.0000
  C   C1475     1.0  0.14715  0.69348  0.09833  1.0000
  H   H2527     1.0  0.19238  0.61444  0.11031  1.0000
  H   H2528     1.0  0.37204  0.71168  0.17861  1.0000
  H   H2529     1.0  0.00022  0.65477  0.12860  1.0000
  S   S430      1.0  0.23202  0.61226  0.19934  1.0000
  H   H2530     1.0  0.28362  0.66520  0.07816  1.0000
  H   H2531     1.0  0.15874  0.70055  0.19117  1.0000
  C   C1476     1.0  0.16864  0.69729  0.18421  1.0000
  H   H2532     1.0  0.20196  0.60480  0.12808  1.0000
  N   N107      1.0  0.18221  0.59955  0.13795  1.0000
  C   C1477     1.0  0.19771  0.59577  0.13402  1.0000
  C   C1478     1.0  0.17710  0.60352  0.12498  1.0000
  C   C1479     1.0  0.17731  0.58714  0.14709  1.0000
  C   C1480     1.0  0.17821  0.61102  0.14534  1.0000
  C   C1481     1.0  0.20518  0.58957  0.14586  1.0000
  C   C1482     1.0  0.18119  0.61620  0.11476  1.0000
  C   C1483     1.0  0.16239  0.58658  0.14822  1.0000
  H   H2533     1.0  0.12617  0.61296  0.20363  1.0000
  H   H2534     1.0  0.24278  0.70958  0.07327  1.0000
  H   H2535     1.0  0.36207  0.71223  0.15890  1.0000
  C   C1484     1.0  0.14406  0.71591  0.14338  1.0000
  H   H2536     1.0  0.12727  0.64285  0.17476  1.0000
  H   H2537     1.0  0.22481  0.57377  0.19337  1.0000
  H   H2538     1.0  0.25392  0.58117  0.22024  1.0000
  H   H2539     1.0  0.13831  0.49416  0.17813  1.0000
  H   H2540     1.0  0.15946  0.69730  0.16863  1.0000
  H   H2541     1.0  0.08840  0.72291  0.15744  1.0000
  C   C1485     1.0  0.07018  0.71507  0.16879  1.0000
  C   C1486     1.0  0.18338  0.51079  0.16186  1.0000
  H   H2542     1.0  0.12128  0.70377  0.09545  1.0000
  H   H2543     1.0  0.06179  0.69171  0.18485  1.0000
  H   H2544     1.0  0.15326  0.50837  0.16203  1.0000
  C   C1487     1.0  0.05387  0.70131  0.18349  1.0000
  C   C1488     1.0  0.23931  0.73000  0.11342  1.0000
  H   H2545     1.0  0.35258  0.72416  0.20557  1.0000
  H   H2546     1.0  0.26035  0.67534  0.09007  1.0000
  C   C1489     1.0  0.15579  0.68713  0.10931  1.0000
  S   S431      1.0  0.11255  0.68950  0.22464  1.0000
  H   H2547     1.0  0.02028  0.65422  0.09117  1.0000
  H   H2548     1.0  0.14053  0.70669  0.07369  1.0000
  H   H2549     1.0  0.11861  0.69009  0.09041  1.0000
  H   H2550     1.0  0.09870  0.62436  0.22285  1.0000
  H   H2551     1.0  0.13768  0.66969  0.08769  1.0000
  C   C1490     1.0  0.13176  0.70203  0.07517  1.0000
  C   C1491     1.0  0.24388  0.57401  0.20885  1.0000
  H   H2552     1.0  0.27701  0.68121  0.06817  1.0000
  H   H2553     1.0  0.10433  0.63934  0.19273  1.0000
  H   H2554     1.0  0.13259  0.48562  0.11172  1.0000
  H   H2555     1.0  0.25882  0.55437  0.18451  1.0000
  H   H2556     1.0  0.99934  0.66903  0.11494  1.0000
  C   C1492     1.0  0.24998  0.61513  0.22801  1.0000
  C   C1493     1.0  0.14505  0.67488  0.08902  1.0000
  H   H2557     1.0  0.17392  0.69344  0.98272  1.0000
  S   S432      1.0  0.23277  0.73210  0.08900  1.0000
  H   H2558     1.0  0.15623  0.52372  0.19657  1.0000
  H   H2559     1.0  0.16204  0.73010  0.16243  1.0000
  C   C1494     1.0  0.09864  0.62611  0.21196  1.0000
  H   H2560     1.0  0.38583  0.70239  0.22517  1.0000
  H   H2561     1.0  0.05546  0.70223  0.16167  1.0000
  H   H2562     1.0  0.17679  0.50534  0.19744  1.0000
  H   H2563     1.0  0.03978  0.72373  0.19178  1.0000
  H   H2564     1.0  0.19045  0.49294  0.18971  1.0000
  C   C1495     1.0  0.12403  0.73427  0.22737  1.0000
  H   H2565     1.0  0.18115  0.50995  0.15242  1.0000
  C   C1496     1.0  0.17002  0.51516  0.17216  1.0000
  C   C1497     1.0  0.25236  0.68676  0.11693  1.0000
  H   H2566     1.0  0.04343  0.63464  0.11809  1.0000
  C   C1498     1.0  0.08275  0.72049  0.16818  1.0000
  C   C1499     1.0  0.12016  0.49652  0.09725  1.0000
  H   H2567     1.0  0.15944  0.48905  0.10551  1.0000
  H   H2568     1.0  0.32980  0.71666  0.18312  1.0000
  H   H2569     1.0  0.21775  0.55306  0.20791  1.0000
  C   C1500     1.0  0.13539  0.66090  0.98723  1.0000
  C   C1501     1.0  0.24715  0.58132  0.18431  1.0000
  H   H2570     1.0  0.14887  0.61844  0.20104  1.0000
  H   H2571     1.0  0.04462  0.69187  0.17340  1.0000
  H   H2572     1.0  0.14837  0.61073  0.18809  1.0000
  H   H2573     1.0  0.11287  0.48970  0.10180  1.0000
  H   H2574     1.0  0.15803  0.68779  0.99057  1.0000
  H   H2575     1.0  0.09009  0.71258  0.17369  1.0000
  H   H2576     1.0  0.07111  0.71868  0.19380  1.0000
  H   H2577     1.0  0.15387  0.50758  0.20805  1.0000
  N   N108      1.0  0.16208  0.50426  0.17957  1.0000
  C   C1502     1.0  0.24523  0.73382  0.12186  1.0000
  S   S433      1.0  0.15227  0.67646  0.21501  1.0000
  C   C1503     1.0  0.00150  0.64753  0.15630  1.0000
  H   H2578     1.0  0.99514  0.64089  0.11619  1.0000
  C   C1504     1.0  0.04817  0.72567  0.18270  1.0000
  H   H2579     1.0  0.11976  0.65197  0.22102  1.0000
  H   H2580     1.0  0.18513  0.66828  0.98077  1.0000
  H   H2581     1.0  0.14228  0.50294  0.19326  1.0000
  H   H2582     1.0  0.25509  0.53768  0.20396  1.0000
  H   H2583     1.0  0.23470  0.58256  0.20992  1.0000
  C   C1505     1.0  0.99443  0.65190  0.11168  1.0000
  C   C1506     1.0  0.25995  0.54536  0.20506  1.0000
  H   H2584     1.0  0.22200  0.64118  0.21050  1.0000
  H   H2585     1.0  0.20731  0.65524  0.20876  1.0000
  H   H2586     1.0  0.04343  0.72802  0.17382  1.0000
  H   H2587     1.0  0.11574  0.50556  0.10193  1.0000
  C   C1507     1.0  0.15934  0.63062  0.22169  1.0000
  H   H2588     1.0  0.06512  0.72172  0.16048  1.0000
  H   H2589     1.0  0.10496  0.64429  0.22710  1.0000
  H   H2590     1.0  0.20552  0.73160  0.13998  1.0000
  H   H2591     1.0  0.12883  0.72732  0.22059  1.0000
  H   H2592     1.0  0.18485  0.66458  0.21972  1.0000
  S   S434      1.0  0.16489  0.61290  0.22432  1.0000
  C   C1508     1.0  0.00313  0.65780  0.11734  1.0000
  H   H2593     1.0  0.20727  0.73362  0.15563  1.0000
  C   C1509     1.0  0.20215  0.63573  0.22126  1.0000
  H   H2594     1.0  0.32742  0.73022  0.14586  1.0000
  H   H2595     1.0  0.04850  0.71471  0.21033  1.0000
  H   H2596     1.0  0.22121  0.59866  0.22709  1.0000
  C   C1510     1.0  0.22922  0.60326  0.22725  1.0000
  H   H2597     1.0  0.99724  0.65365  0.10044  1.0000
  C   C1511     1.0  0.17421  0.67297  0.98028  1.0000
  C   C1512     1.0  0.36890  0.73456  0.20165  1.0000
  H   H2598     1.0  0.31615  0.73512  0.19436  1.0000
  H   H2599     1.0  0.14894  0.48519  0.16547  1.0000
  H   H2600     1.0  0.17701  0.48516  0.18117  1.0000
  C   C1513     1.0  0.18789  0.66344  0.22938  1.0000
  H   H2601     1.0  0.39477  0.59619  0.40025  1.0000
  Fe  Fe217     1.0  0.45745  0.62855  0.33621  1.0000
  S   S435      1.0  0.44152  0.64449  0.34625  1.0000
  S   S436      1.0  0.47970  0.63107  0.32799  1.0000
  Fe  Fe218     1.0  0.43592  0.61186  0.33950  1.0000
  S   S437      1.0  0.41907  0.62651  0.34993  1.0000
  S   S438      1.0  0.43044  0.59299  0.33771  1.0000
  Fe  Fe219     1.0  0.42790  0.64264  0.33383  1.0000
  S   S439      1.0  0.41144  0.65955  0.32556  1.0000
  Fe  Fe220     1.0  0.43430  0.62667  0.36113  1.0000
  S   S440      1.0  0.42856  0.62370  0.38383  1.0000
  S   S441      1.0  0.44418  0.62799  0.32255  1.0000
  S   S442      1.0  0.45087  0.61079  0.35192  1.0000
  Fe  Fe221     1.0  0.33129  0.57001  0.34658  1.0000
  S   S443      1.0  0.35191  0.56408  0.33319  1.0000
  S   S444      1.0  0.31078  0.57885  0.34104  1.0000
  Fe  Fe222     1.0  0.34266  0.56284  0.37203  1.0000
  S   S445      1.0  0.36433  0.55581  0.36081  1.0000
  S   S446      1.0  0.33556  0.56493  0.39397  1.0000
  Fe  Fe223     1.0  0.35963  0.57461  0.34470  1.0000
  S   S447      1.0  0.37005  0.59250  0.33558  1.0000
  Fe  Fe224     1.0  0.35470  0.54571  0.35038  1.0000
  S   S448      1.0  0.36403  0.52465  0.34536  1.0000
  S   S449      1.0  0.33851  0.58198  0.35663  1.0000
  S   S450      1.0  0.33349  0.55124  0.36308  1.0000
  C   C1514     1.0  0.22842  0.70432  0.36100  1.0000
  S   S451      1.0  0.34477  0.64950  0.44161  1.0000
  Fe  Fe225     1.0  0.35322  0.61937  0.42318  1.0000
  S   S452      1.0  0.34417  0.64081  0.41379  1.0000
  S   S453      1.0  0.36165  0.60607  0.40762  1.0000
  Fe  Fe226     1.0  0.35915  0.64638  0.42174  1.0000
  S   S454      1.0  0.37257  0.66039  0.40809  1.0000
  Fe  Fe227     1.0  0.33065  0.64167  0.43439  1.0000
  S   S455      1.0  0.30797  0.65086  0.43874  1.0000
  S   S456      1.0  0.36900  0.62498  0.43016  1.0000
  S   S457      1.0  0.33839  0.61961  0.44347  1.0000
  Fe  Fe228     1.0  0.28671  0.60126  0.27629  1.0000
  S   S458      1.0  0.26396  0.60353  0.28435  1.0000
  S   S459      1.0  0.30399  0.58381  0.28194  1.0000
  Fe  Fe229     1.0  0.28390  0.62965  0.25906  1.0000
  S   S460      1.0  0.26082  0.63438  0.26509  1.0000
  S   S461      1.0  0.29571  0.64573  0.24668  1.0000
  Fe  Fe230     1.0  0.26398  0.62437  0.28614  1.0000
  S   S462      1.0  0.25274  0.63570  0.30290  1.0000
  Fe  Fe231     1.0  0.26234  0.61331  0.26257  1.0000
  S   S463      1.0  0.24586  0.60727  0.25623  1.0000
  S   S464      1.0  0.28676  0.62106  0.28030  1.0000
  S   S465      1.0  0.28531  0.60950  0.25444  1.0000
  H   H2602     1.0  0.42421  0.60796  0.30247  1.0000
  Fe  Fe232     1.0  0.28071  0.66388  0.37421  1.0000
  S   S466      1.0  0.26724  0.66329  0.36110  1.0000
  S   S467      1.0  0.27119  0.66393  0.39618  1.0000
  Fe  Fe233     1.0  0.30547  0.66523  0.35109  1.0000
  S   S468      1.0  0.29422  0.66526  0.33579  1.0000
  S   S469      1.0  0.32807  0.66420  0.34505  1.0000
  Fe  Fe234     1.0  0.27691  0.67978  0.34635  1.0000
  S   S470      1.0  0.26530  0.69880  0.33448  1.0000
  Fe  Fe235     1.0  0.28564  0.64892  0.35177  1.0000
  S   S471      1.0  0.28676  0.62929  0.34647  1.0000
  S   S472      1.0  0.28917  0.68137  0.36017  1.0000
  S   S473      1.0  0.29812  0.64780  0.36644  1.0000
  Fe  Fe236     1.0  0.35342  0.68707  0.27308  1.0000
  S   S474      1.0  0.36293  0.66521  0.28047  1.0000
  S   S475      1.0  0.33981  0.70114  0.28649  1.0000
  Fe  Fe237     1.0  0.36375  0.68583  0.24345  1.0000
  S   S476      1.0  0.37451  0.66379  0.24809  1.0000
  Fe  Fe238     1.0  0.35548  0.66123  0.26420  1.0000
  S   S477      1.0  0.34673  0.64263  0.26990  1.0000
  Fe  Fe239     1.0  0.38116  0.66952  0.26401  1.0000
  S   S478      1.0  0.40246  0.66066  0.26793  1.0000
  S   S479      1.0  0.34415  0.68271  0.25842  1.0000
  S   S480      1.0  0.37224  0.69186  0.25782  1.0000
  C   C1515     1.0  0.33160  0.67527  0.32928  1.0000
  C   C1516     1.0  0.34486  0.67341  0.32108  1.0000
  C   C1517     1.0  0.34747  0.68158  0.30802  1.0000
  C   C1518     1.0  0.33689  0.69176  0.30323  1.0000
  C   C1519     1.0  0.32375  0.69392  0.31162  1.0000
  C   C1520     1.0  0.32106  0.68557  0.32458  1.0000
  H   H2603     1.0  0.35304  0.66547  0.32466  1.0000
  H   H2604     1.0  0.35772  0.68010  0.30168  1.0000
  H   H2605     1.0  0.41108  0.59898  0.36295  1.0000
  H   H2606     1.0  0.31083  0.68713  0.33093  1.0000
  C   C1521     1.0  0.24906  0.70625  0.34336  1.0000
  C   C1522     1.0  0.24120  0.69826  0.35380  1.0000
  H   H2607     1.0  0.24491  0.68737  0.35626  1.0000
  H   H2608     1.0  0.23387  0.68075  0.40104  1.0000
  C   C1523     1.0  0.35559  0.51194  0.34565  1.0000
  H   H2609     1.0  0.19441  0.62653  0.25611  1.0000
  H   H2610     1.0  0.20377  0.64976  0.25538  1.0000
  C   C1524     1.0  0.31065  0.64446  0.25215  1.0000
  C   C1525     1.0  0.31622  0.63257  0.26062  1.0000
  C   C1526     1.0  0.32744  0.63205  0.26581  1.0000
  C   C1527     1.0  0.33335  0.64333  0.26236  1.0000
  C   C1528     1.0  0.32823  0.65502  0.25336  1.0000
  C   C1529     1.0  0.31685  0.65561  0.24833  1.0000
  H   H2611     1.0  0.31203  0.62367  0.26304  1.0000
  H   H2612     1.0  0.33157  0.62282  0.27243  1.0000
  H   H2613     1.0  0.33293  0.66366  0.25037  1.0000
  H   H2614     1.0  0.47243  0.68044  0.36456  1.0000
  C   C1530     1.0  0.26245  0.63394  0.31478  1.0000
  C   C1531     1.0  0.26040  0.64466  0.32120  1.0000
  C   C1532     1.0  0.26802  0.64340  0.33078  1.0000
  C   C1533     1.0  0.27736  0.63123  0.33429  1.0000
  C   C1534     1.0  0.27919  0.62042  0.32809  1.0000
  C   C1535     1.0  0.27197  0.62186  0.31814  1.0000
  H   H2615     1.0  0.25296  0.65397  0.31870  1.0000
  H   H2616     1.0  0.26646  0.65174  0.33562  1.0000
  H   H2617     1.0  0.28631  0.61096  0.33087  1.0000
  H   H2618     1.0  0.27353  0.61353  0.31327  1.0000
  H   H2619     1.0  0.39302  0.61326  0.44375  1.0000
  H   H2620     1.0  0.34229  0.49838  0.38775  1.0000
  H   H2621     1.0  0.32287  0.61193  0.34491  1.0000
  H   H2622     1.0  0.33628  0.64358  0.32460  1.0000
  H   H2623     1.0  0.33951  0.60310  0.29886  1.0000
  H   H2624     1.0  0.15228  0.63077  0.24300  1.0000
  H   H2625     1.0  0.22734  0.59651  0.24893  1.0000
  H   H2626     1.0  0.36468  0.72890  0.28174  1.0000
  N   N109      1.0  0.32942  0.62263  0.31627  1.0000
  H   H2627     1.0  0.21238  0.72268  0.31516  1.0000
  C   C1536     1.0  0.29837  0.65627  0.42610  1.0000
  C   C1537     1.0  0.30448  0.65733  0.41222  1.0000
  C   C1538     1.0  0.29624  0.66008  0.40273  1.0000
  C   C1539     1.0  0.28195  0.66181  0.40719  1.0000
  C   C1540     1.0  0.27592  0.66132  0.42095  1.0000
  C   C1541     1.0  0.28407  0.65862  0.43034  1.0000
  H   H2628     1.0  0.31550  0.65580  0.40886  1.0000
  H   H2629     1.0  0.30095  0.66064  0.39206  1.0000
  H   H2630     1.0  0.26490  0.66271  0.42444  1.0000
  H   H2631     1.0  0.27930  0.65788  0.44103  1.0000
  C   C1542     1.0  0.34261  0.57646  0.39785  1.0000
  C   C1543     1.0  0.33929  0.57855  0.41116  1.0000
  C   C1544     1.0  0.34470  0.58791  0.41432  1.0000
  C   C1545     1.0  0.35361  0.59507  0.40418  1.0000
  C   C1546     1.0  0.35691  0.59294  0.39091  1.0000
  C   C1547     1.0  0.35142  0.58372  0.38773  1.0000
  H   H2632     1.0  0.33262  0.57281  0.41907  1.0000
  H   H2633     1.0  0.34231  0.58929  0.42464  1.0000
  H   H2634     1.0  0.36369  0.59849  0.38298  1.0000
  H   H2635     1.0  0.35412  0.58217  0.37745  1.0000
  C   C1548     1.0  0.30932  0.58081  0.32435  1.0000
  C   C1549     1.0  0.32089  0.57875  0.31381  1.0000
  C   C1550     1.0  0.31925  0.57985  0.30069  1.0000
  C   C1551     1.0  0.30608  0.58329  0.29807  1.0000
  C   C1552     1.0  0.29457  0.58584  0.30850  1.0000
  C   C1553     1.0  0.29620  0.58446  0.32163  1.0000
  H   H2636     1.0  0.33105  0.57629  0.31577  1.0000
  H   H2637     1.0  0.32816  0.57820  0.29251  1.0000
  H   H2638     1.0  0.28439  0.58858  0.30648  1.0000
  H   H2639     1.0  0.28722  0.58620  0.32969  1.0000
  C   C1554     1.0  0.41285  0.63439  0.38940  1.0000
  C   C1555     1.0  0.40093  0.62931  0.39405  1.0000
  C   C1556     1.0  0.38845  0.63751  0.39928  1.0000
  C   C1557     1.0  0.38792  0.65067  0.40029  1.0000
  C   C1558     1.0  0.39980  0.65586  0.39543  1.0000
  C   C1559     1.0  0.41228  0.64772  0.38996  1.0000
  H   H2640     1.0  0.40136  0.61898  0.39382  1.0000
  H   H2641     1.0  0.37923  0.63361  0.40250  1.0000
  H   H2642     1.0  0.39940  0.66607  0.39612  1.0000
  H   H2643     1.0  0.42152  0.65164  0.38641  1.0000
  C   C1560     1.0  0.41343  0.59301  0.33762  1.0000
  C   C1561     1.0  0.41007  0.58066  0.33858  1.0000
  C   C1562     1.0  0.39667  0.58027  0.33853  1.0000
  C   C1563     1.0  0.38653  0.59228  0.33734  1.0000
  C   C1564     1.0  0.38986  0.60463  0.33645  1.0000
  C   C1565     1.0  0.40322  0.60500  0.33663  1.0000
  H   H2644     1.0  0.41790  0.57134  0.33931  1.0000
  H   H2645     1.0  0.39428  0.57072  0.33907  1.0000
  H   H2646     1.0  0.38211  0.61397  0.33543  1.0000
  H   H2647     1.0  0.40568  0.61460  0.33573  1.0000
  C   C1566     1.0  0.40893  0.65960  0.30962  1.0000
  C   C1567     1.0  0.39627  0.66633  0.30617  1.0000
  C   C1568     1.0  0.39414  0.66669  0.29341  1.0000
  C   C1569     1.0  0.40476  0.66053  0.28397  1.0000
  C   C1570     1.0  0.41743  0.65390  0.28739  1.0000
  C   C1571     1.0  0.41947  0.65331  0.30023  1.0000
  H   H2648     1.0  0.38812  0.67137  0.31331  1.0000
  H   H2649     1.0  0.38439  0.67195  0.29081  1.0000
  H   H2650     1.0  0.42573  0.64927  0.28007  1.0000
  H   H2651     1.0  0.42933  0.64833  0.30269  1.0000
  C   C1572     1.0  0.34173  0.51240  0.35189  1.0000
  H   H2652     1.0  0.42059  0.61400  0.27850  1.0000
  H   H2653     1.0  0.13474  0.69430  0.25708  1.0000
  H   H2654     1.0  0.39859  0.61347  0.45817  1.0000
  C   C1573     1.0  0.28959  0.67200  0.30143  1.0000
  H   H2655     1.0  0.11245  0.71583  0.28986  1.0000
  C   C1574     1.0  0.30456  0.61626  0.43692  1.0000
  H   H2656     1.0  0.31926  0.68583  0.28451  1.0000
  C   C1575     1.0  0.32141  0.63673  0.31783  1.0000
  C   C1576     1.0  0.18599  0.61908  0.24399  1.0000
  H   H2657     1.0  0.49072  0.70129  0.35404  1.0000
  H   H2658     1.0  0.33579  0.52074  0.35675  1.0000
  H   H2659     1.0  0.47920  0.62316  0.35718  1.0000
  C   C1577     1.0  0.23134  0.72651  0.34760  1.0000
  H   H2660     1.0  0.35224  0.61173  0.28766  1.0000
  N   N110      1.0  0.32976  0.53667  0.31355  1.0000
  C   C1578     1.0  0.34031  0.54058  0.31822  1.0000
  C   C1579     1.0  0.31583  0.54247  0.32156  1.0000
  C   C1580     1.0  0.33096  0.54296  0.29857  1.0000
  C   C1581     1.0  0.33289  0.52138  0.31597  1.0000
  C   C1582     1.0  0.35536  0.53670  0.31049  1.0000
  C   C1583     1.0  0.31327  0.53723  0.33709  1.0000
  C   C1584     1.0  0.31819  0.54543  0.29277  1.0000
  C   C1585     1.0  0.32241  0.51479  0.31377  1.0000
  H   H2661     1.0  0.33782  0.55174  0.31759  1.0000
  H   H2662     1.0  0.34031  0.53579  0.32907  1.0000
  H   H2663     1.0  0.30736  0.54070  0.31831  1.0000
  H   H2664     1.0  0.31405  0.55374  0.31955  1.0000
  H   H2665     1.0  0.33350  0.55312  0.29612  1.0000
  H   H2666     1.0  0.33960  0.53672  0.29232  1.0000
  H   H2667     1.0  0.34279  0.51757  0.30921  1.0000
  H   H2668     1.0  0.33486  0.51658  0.32626  1.0000
  H   H2669     1.0  0.35927  0.52552  0.31212  1.0000
  H   H2670     1.0  0.35687  0.54133  0.29949  1.0000
  H   H2671     1.0  0.36190  0.54058  0.31462  1.0000
  S   S481      1.0  0.20794  0.72558  0.36813  1.0000
  H   H2672     1.0  0.30237  0.54135  0.34163  1.0000
  C   C1586     1.0  0.34309  0.49111  0.34556  1.0000
  H   H2673     1.0  0.30991  0.55373  0.29656  1.0000
  H   H2674     1.0  0.31417  0.53621  0.29490  1.0000
  H   H2675     1.0  0.32095  0.54893  0.28155  1.0000
  H   H2676     1.0  0.32461  0.51390  0.30303  1.0000
  H   H2677     1.0  0.31160  0.52002  0.31689  1.0000
  H   H2678     1.0  0.32316  0.50440  0.32033  1.0000
  H   H2679     1.0  0.32772  0.62772  0.34289  1.0000
  H   H2680     1.0  0.36929  0.63739  0.30493  1.0000
  H   H2681     1.0  0.37971  0.65749  0.45816  1.0000
  H   H2682     1.0  0.31556  0.70180  0.30796  1.0000
  C   C1587     1.0  0.31085  0.61728  0.30779  1.0000
  H   H2683     1.0  0.39216  0.58538  0.30931  1.0000
  C   C1588     1.0  0.40157  0.60269  0.29950  1.0000
  H   H2684     1.0  0.18052  0.67113  0.23492  1.0000
  N   N111      1.0  0.30502  0.61697  0.41200  1.0000
  C   C1589     1.0  0.31866  0.62113  0.40768  1.0000
  C   C1590     1.0  0.29732  0.62173  0.42494  1.0000
  C   C1591     1.0  0.29721  0.62397  0.40090  1.0000
  C   C1592     1.0  0.30800  0.60172  0.41397  1.0000
  C   C1593     1.0  0.32691  0.62004  0.39312  1.0000
  C   C1594     1.0  0.28147  0.62574  0.40481  1.0000
  C   C1595     1.0  0.29577  0.59473  0.41988  1.0000
  H   H2685     1.0  0.31724  0.63183  0.40840  1.0000
  H   H2686     1.0  0.32560  0.61497  0.41460  1.0000
  H   H2687     1.0  0.28703  0.61937  0.42871  1.0000
  H   H2688     1.0  0.29515  0.63298  0.42295  1.0000
  H   H2689     1.0  0.29884  0.63452  0.39664  1.0000
  H   H2690     1.0  0.30118  0.61869  0.39226  1.0000
  H   H2691     1.0  0.31319  0.59855  0.40417  1.0000
  H   H2692     1.0  0.31562  0.59668  0.42042  1.0000
  H   H2693     1.0  0.32877  0.60975  0.39120  1.0000
  H   H2694     1.0  0.32192  0.62769  0.38529  1.0000
  H   H2695     1.0  0.33713  0.62219  0.39173  1.0000
  H   H2696     1.0  0.27659  0.63327  0.41138  1.0000
  H   H2697     1.0  0.27812  0.61614  0.40980  1.0000
  H   H2698     1.0  0.27738  0.62999  0.39543  1.0000
  H   H2699     1.0  0.28780  0.59924  0.42784  1.0000
  C   C1596     1.0  0.42171  0.61865  0.29686  1.0000
  N   N112      1.0  0.19096  0.71634  0.33884  1.0000
  N   N113      1.0  0.49259  0.67260  0.35294  1.0000
  C   C1597     1.0  0.17694  0.72137  0.34723  1.0000
  C   C1598     1.0  0.18967  0.71296  0.32617  1.0000
  C   C1599     1.0  0.19921  0.70430  0.34700  1.0000
  C   C1600     1.0  0.35674  0.72975  0.26432  1.0000
  H   H2700     1.0  0.47489  0.65379  0.35752  1.0000
  C   C1601     1.0  0.17672  0.70806  0.32699  1.0000
  C   C1602     1.0  0.19272  0.69190  0.35350  1.0000
  C   C1603     1.0  0.12351  0.71348  0.26379  1.0000
  H   H2701     1.0  0.20039  0.73022  0.34323  1.0000
  H   H2702     1.0  0.17077  0.71349  0.35083  1.0000
  C   C1604     1.0  0.48102  0.68428  0.35678  1.0000
  H   H2703     1.0  0.35620  0.48643  0.36751  1.0000
  H   H2704     1.0  0.19880  0.70521  0.32252  1.0000
  H   H2705     1.0  0.20936  0.70047  0.34063  1.0000
  H   H2706     1.0  0.20157  0.70732  0.35529  1.0000
  C   C1605     1.0  0.21280  0.72503  0.32468  1.0000
  H   H2707     1.0  0.36268  0.71901  0.26550  1.0000
  H   H2708     1.0  0.41219  0.64906  0.46629  1.0000
  H   H2709     1.0  0.21694  0.73435  0.32176  1.0000
  H   H2710     1.0  0.13910  0.72975  0.25757  1.0000
  H   H2711     1.0  0.14590  0.72508  0.28529  1.0000
  H   H2712     1.0  0.17802  0.70445  0.31760  1.0000
  H   H2713     1.0  0.16751  0.71660  0.32738  1.0000
  H   H2714     1.0  0.17472  0.69960  0.33572  1.0000
  H   H2715     1.0  0.18289  0.69430  0.36087  1.0000
  H   H2716     1.0  0.19980  0.68394  0.35929  1.0000
  H   H2717     1.0  0.19141  0.68738  0.34571  1.0000
  C   C1606     1.0  0.39120  0.60928  0.37254  1.0000
  C   C1607     1.0  0.33552  0.50206  0.35181  1.0000
  H   H2718     1.0  0.26092  0.69501  0.40555  1.0000
  H   H2719     1.0  0.29740  0.70537  0.26271  1.0000
  H   H2720     1.0  0.29599  0.69502  0.28686  1.0000
  H   H2721     1.0  0.28199  0.69375  0.28126  1.0000
  H   H2722     1.0  0.31276  0.66475  0.24157  1.0000
  H   H2723     1.0  0.38317  0.71730  0.24367  1.0000
  H   H2724     1.0  0.27041  0.67351  0.31659  1.0000
  C   C1608     1.0  0.48889  0.62588  0.35182  1.0000
  H   H2725     1.0  0.29107  0.59444  0.41175  1.0000
  N   N114      1.0  0.40660  0.58676  0.38339  1.0000
  C   C1609     1.0  0.41987  0.58363  0.38798  1.0000
  C   C1610     1.0  0.39499  0.58766  0.39573  1.0000
  C   C1611     1.0  0.40707  0.57555  0.37670  1.0000
  C   C1612     1.0  0.43302  0.58318  0.37655  1.0000
  C   C1613     1.0  0.39507  0.57482  0.40723  1.0000
  C   C1614     1.0  0.39353  0.57514  0.37376  1.0000
  H   H2726     1.0  0.42142  0.57358  0.39511  1.0000
  H   H2727     1.0  0.38495  0.59010  0.39294  1.0000
  H   H2728     1.0  0.41467  0.57609  0.36680  1.0000
  H   H2729     1.0  0.41073  0.56543  0.38300  1.0000
  H   H2730     1.0  0.44197  0.58176  0.38099  1.0000
  H   H2731     1.0  0.43269  0.59276  0.36875  1.0000
  H   H2732     1.0  0.38521  0.57634  0.41486  1.0000
  H   H2733     1.0  0.39581  0.56563  0.40358  1.0000
  H   H2734     1.0  0.40334  0.57309  0.41265  1.0000
  H   H2735     1.0  0.38539  0.57359  0.38310  1.0000
  H   H2736     1.0  0.39540  0.56637  0.36898  1.0000
  H   H2737     1.0  0.38980  0.58427  0.36641  1.0000
  H   H2738     1.0  0.40230  0.63441  0.26327  1.0000
  H   H2739     1.0  0.12811  0.69465  0.28556  1.0000
  C   C1615     1.0  0.30031  0.69411  0.26570  1.0000
  H   H2740     1.0  0.41097  0.60694  0.37577  1.0000
  N   N115      1.0  0.39729  0.64284  0.45003  1.0000
  H   H2741     1.0  0.32476  0.50259  0.35652  1.0000
  H   H2742     1.0  0.17571  0.62576  0.24639  1.0000
  H   H2743     1.0  0.18785  0.61687  0.23381  1.0000
  C   C1616     1.0  0.29021  0.65261  0.28480  1.0000
  H   H2744     1.0  0.37113  0.62477  0.29615  1.0000
  H   H2745     1.0  0.22239  0.69804  0.36904  1.0000
  H   H2746     1.0  0.38606  0.61310  0.38199  1.0000
  H   H2747     1.0  0.38451  0.60412  0.37028  1.0000
  C   C1617     1.0  0.38126  0.66277  0.43688  1.0000
  C   C1618     1.0  0.31934  0.67514  0.28993  1.0000
  H   H2748     1.0  0.33691  0.64902  0.30662  1.0000
  C   C1619     1.0  0.14411  0.69883  0.29204  1.0000
  H   H2749     1.0  0.22950  0.69413  0.40993  1.0000
  H   H2750     1.0  0.37304  0.65749  0.43792  1.0000
  Fe  Fe240     1.0  0.35342  0.62749  0.44953  1.0000
  C   C1620     1.0  0.41342  0.64684  0.42595  1.0000
  C   C1621     1.0  0.27145  0.71107  0.39626  1.0000
  C   C1622     1.0  0.24339  0.69762  0.38962  1.0000
  H   H2751     1.0  0.41195  0.65801  0.42210  1.0000
  H   H2752     1.0  0.38849  0.66234  0.42697  1.0000
  C   C1623     1.0  0.28998  0.66785  0.27907  1.0000
  C   C1624     1.0  0.25247  0.71762  0.37658  1.0000
  H   H2753     1.0  0.14762  0.65593  0.23936  1.0000
  C   C1625     1.0  0.13652  0.70028  0.28090  1.0000
  H   H2754     1.0  0.40213  0.61003  0.27254  1.0000
  H   H2755     1.0  0.11935  0.72373  0.25807  1.0000
  H   H2756     1.0  0.15384  0.70235  0.28769  1.0000
  C   C1626     1.0  0.15118  0.65110  0.23074  1.0000
  H   H2757     1.0  0.20685  0.61687  0.24493  1.0000
  H   H2758     1.0  0.36181  0.71830  0.24283  1.0000
  N   N116      1.0  0.13089  0.71455  0.27385  1.0000
  C   C1627     1.0  0.39847  0.61872  0.44746  1.0000
  H   H2759     1.0  0.32304  0.65672  0.31854  1.0000
  C   C1628     1.0  0.36209  0.62900  0.47997  1.0000
  C   C1629     1.0  0.38829  0.65703  0.44902  1.0000
  H   H2760     1.0  0.26466  0.71878  0.35590  1.0000
  H   H2761     1.0  0.41138  0.59609  0.29516  1.0000
  H   H2762     1.0  0.37993  0.60063  0.30495  1.0000
  H   H2763     1.0  0.12594  0.70672  0.24528  1.0000
  H   H2764     1.0  0.29319  0.67789  0.30654  1.0000
  H   H2765     1.0  0.32471  0.60289  0.31971  1.0000
  C   C1630     1.0  0.39064  0.62718  0.29904  1.0000
  H   H2766     1.0  0.37389  0.50045  0.33466  1.0000
  H   H2767     1.0  0.41303  0.63106  0.28005  1.0000
  H   H2768     1.0  0.39155  0.63776  0.29368  1.0000
  N   N117      1.0  0.37138  0.65811  0.36007  1.0000
  C   C1631     1.0  0.37788  0.66836  0.36215  1.0000
  C   C1632     1.0  0.35751  0.66561  0.35714  1.0000
  C   C1633     1.0  0.38036  0.65275  0.34778  1.0000
  C   C1634     1.0  0.37049  0.64687  0.37268  1.0000
  C   C1635     1.0  0.39304  0.66333  0.36323  1.0000
  C   C1636     1.0  0.34768  0.67318  0.36809  1.0000
  C   C1637     1.0  0.37539  0.64270  0.34304  1.0000
  C   C1638     1.0  0.35944  0.63861  0.37536  1.0000
  H   H2769     1.0  0.37732  0.67756  0.35372  1.0000
  H   H2770     1.0  0.37223  0.67203  0.37165  1.0000
  H   H2771     1.0  0.35195  0.65879  0.35563  1.0000
  H   H2772     1.0  0.35867  0.67323  0.34734  1.0000
  H   H2773     1.0  0.38197  0.66137  0.33894  1.0000
  H   H2774     1.0  0.39076  0.64732  0.34955  1.0000
  H   H2775     1.0  0.38058  0.63957  0.37269  1.0000
  H   H2776     1.0  0.36814  0.65119  0.38188  1.0000
  H   H2777     1.0  0.39582  0.67053  0.36749  1.0000
  H   H2778     1.0  0.39508  0.65316  0.36994  1.0000
  H   H2779     1.0  0.39999  0.66312  0.35309  1.0000
  H   H2780     1.0  0.35069  0.68266  0.36763  1.0000
  H   H2781     1.0  0.33717  0.67623  0.36610  1.0000
  H   H2782     1.0  0.34712  0.66679  0.37848  1.0000
  H   H2783     1.0  0.38255  0.64054  0.33340  1.0000
  H   H2784     1.0  0.36506  0.64684  0.34077  1.0000
  H   H2785     1.0  0.37582  0.63283  0.35041  1.0000
  H   H2786     1.0  0.36314  0.62811  0.38088  1.0000
  H   H2787     1.0  0.35681  0.63768  0.36623  1.0000
  H   H2788     1.0  0.34997  0.64279  0.38238  1.0000
  C   C1639     1.0  0.39041  0.59486  0.30144  1.0000
  H   H2789     1.0  0.31562  0.67478  0.30095  1.0000
  C   C1640     1.0  0.15388  0.63690  0.23280  1.0000
  H   H2790     1.0  0.31165  0.69132  0.26402  1.0000
  H   H2791     1.0  0.31322  0.65748  0.28936  1.0000
  H   H2792     1.0  0.13768  0.70401  0.30032  1.0000
  C   C1641     1.0  0.39835  0.63719  0.46469  1.0000
  C   C1642     1.0  0.37525  0.62704  0.30367  1.0000
  H   H2793     1.0  0.41580  0.65052  0.44403  1.0000
  H   H2794     1.0  0.31601  0.66878  0.27353  1.0000
  N   N118      1.0  0.39982  0.61693  0.29083  1.0000
  H   H2795     1.0  0.28429  0.65043  0.29542  1.0000
  H   H2796     1.0  0.38900  0.63739  0.43582  1.0000
  H   H2797     1.0  0.26984  0.68712  0.30213  1.0000
  H   H2798     1.0  0.33904  0.61191  0.34769  1.0000
  H   H2799     1.0  0.30707  0.60501  0.43971  1.0000
  H   H2800     1.0  0.39410  0.62581  0.30852  1.0000
  H   H2801     1.0  0.35519  0.64841  0.46744  1.0000
  H   H2802     1.0  0.18572  0.60925  0.25141  1.0000
  H   H2803     1.0  0.31186  0.61434  0.32855  1.0000
  H   H2804     1.0  0.29703  0.69003  0.25873  1.0000
  H   H2805     1.0  0.31390  0.62024  0.43480  1.0000
  C   C1643     1.0  0.36316  0.50094  0.33950  1.0000
  H   H2806     1.0  0.18466  0.64988  0.24919  1.0000
  H   H2807     1.0  0.39227  0.61830  0.36415  1.0000
  H   H2808     1.0  0.34305  0.60558  0.32630  1.0000
  H   H2809     1.0  0.28526  0.64926  0.27859  1.0000
  H   H2810     1.0  0.29954  0.58409  0.42507  1.0000
  H   H2811     1.0  0.34618  0.62936  0.30060  1.0000
  N   N119      1.0  0.28284  0.59218  0.37595  1.0000
  C   C1644     1.0  0.27937  0.59677  0.36214  1.0000
  C   C1645     1.0  0.28917  0.60270  0.37772  1.0000
  C   C1646     1.0  0.27017  0.59094  0.38708  1.0000
  C   C1647     1.0  0.29260  0.57845  0.37681  1.0000
  C   C1648     1.0  0.27204  0.58778  0.35857  1.0000
  C   C1649     1.0  0.30421  0.60236  0.37003  1.0000
  C   C1650     1.0  0.25831  0.60367  0.38675  1.0000
  C   C1651     1.0  0.29747  0.57230  0.39027  1.0000
  H   H2812     1.0  0.27291  0.60728  0.36080  1.0000
  H   H2813     1.0  0.28877  0.59751  0.35398  1.0000
  H   H2814     1.0  0.28871  0.60198  0.38858  1.0000
  H   H2815     1.0  0.28321  0.61315  0.37430  1.0000
  H   H2816     1.0  0.26610  0.58219  0.38710  1.0000
  H   H2817     1.0  0.27270  0.58854  0.39723  1.0000
  H   H2818     1.0  0.28783  0.57081  0.37547  1.0000
  H   H2819     1.0  0.30179  0.57848  0.36831  1.0000
  H   H2820     1.0  0.27898  0.57788  0.35702  1.0000
  H   H2821     1.0  0.26249  0.58617  0.36615  1.0000
  H   H2822     1.0  0.26901  0.59300  0.34876  1.0000
  H   H2823     1.0  0.30584  0.60162  0.35935  1.0000
  H   H2824     1.0  0.30698  0.61190  0.36984  1.0000
  H   H2825     1.0  0.31136  0.59377  0.37510  1.0000
  H   H2826     1.0  0.25380  0.60577  0.37779  1.0000
  H   H2827     1.0  0.26155  0.61281  0.38695  1.0000
  H   H2828     1.0  0.24996  0.60191  0.39589  1.0000
  H   H2829     1.0  0.29040  0.56615  0.39768  1.0000
  H   H2830     1.0  0.29853  0.58001  0.39503  1.0000
  H   H2831     1.0  0.30792  0.56567  0.38821  1.0000
  H   H2832     1.0  0.40672  0.64296  0.42214  1.0000
  C   C1652     1.0  0.31118  0.66845  0.28445  1.0000
  H   H2833     1.0  0.31376  0.63637  0.32769  1.0000
  H   H2834     1.0  0.11879  0.63853  0.23563  1.0000
  H   H2835     1.0  0.29559  0.66863  0.26826  1.0000
  C   C1653     1.0  0.41380  0.62035  0.28580  1.0000
  C   C1654     1.0  0.40563  0.60033  0.37339  1.0000
  C   C1655     1.0  0.34635  0.60972  0.29835  1.0000
  H   H2836     1.0  0.33025  0.66956  0.28830  1.0000
  H   H2837     1.0  0.38495  0.61413  0.28129  1.0000
  H   H2838     1.0  0.30418  0.60994  0.31048  1.0000
  H   H2839     1.0  0.29761  0.61999  0.44596  1.0000
  H   H2840     1.0  0.37616  0.67363  0.43672  1.0000
  C   C1656     1.0  0.35929  0.64321  0.47636  1.0000
  H   H2841     1.0  0.48477  0.65885  0.37125  1.0000
  H   H2842     1.0  0.36040  0.49812  0.38116  1.0000
  H   H2843     1.0  0.43164  0.62171  0.29189  1.0000
  C   C1657     1.0  0.24399  0.72037  0.34011  1.0000
  H   H2844     1.0  0.41894  0.63327  0.44416  1.0000
  H   H2845     1.0  0.43504  0.57455  0.37156  1.0000
  H   H2846     1.0  0.37314  0.61981  0.31355  1.0000
  C   C1658     1.0  0.39248  0.63135  0.26869  1.0000
  H   H2847     1.0  0.29285  0.66115  0.30642  1.0000
  H   H2848     1.0  0.41616  0.62531  0.30416  1.0000
  C   C1659     1.0  0.33006  0.64692  0.31679  1.0000
  H   H2849     1.0  0.38763  0.63070  0.26078  1.0000
  H   H2850     1.0  0.30081  0.64632  0.28394  1.0000
  C   C1660     1.0  0.29316  0.68956  0.28069  1.0000
  C   C1661     1.0  0.48853  0.66687  0.34329  1.0000
  H   H2851     1.0  0.31525  0.64139  0.30997  1.0000
  C   C1662     1.0  0.33834  0.62345  0.30216  1.0000
  H   H2852     1.0  0.14700  0.68788  0.29680  1.0000
  H   H2853     1.0  0.39417  0.66446  0.44888  1.0000
  H   H2854     1.0  0.33219  0.62918  0.29444  1.0000
  H   H2855     1.0  0.14156  0.70911  0.24713  1.0000
  H   H2856     1.0  0.40247  0.60273  0.30979  1.0000
  H   H2857     1.0  0.26881  0.67038  0.30132  1.0000
  H   H2858     1.0  0.38543  0.63939  0.27388  1.0000
  N   N120      1.0  0.29597  0.67446  0.28642  1.0000
  H   H2859     1.0  0.35388  0.60417  0.30475  1.0000
  C   C1663     1.0  0.19734  0.62503  0.24549  1.0000
  H   H2860     1.0  0.41964  0.59128  0.39368  1.0000
  C   C1664     1.0  0.39478  0.61741  0.27852  1.0000
  H   H2861     1.0  0.42398  0.64196  0.42119  1.0000
  H   H2862     1.0  0.34743  0.62136  0.32354  1.0000
  S   S482      1.0  0.35982  0.61905  0.46988  1.0000
  C   C1665     1.0  0.33145  0.61717  0.34126  1.0000
  C   C1666     1.0  0.13215  0.70537  0.25281  1.0000
  H   H2863     1.0  0.31722  0.61628  0.29756  1.0000
  H   H2864     1.0  0.39105  0.59170  0.29199  1.0000
  H   H2865     1.0  0.30398  0.62753  0.30728  1.0000
  C   C1667     1.0  0.23273  0.60204  0.23962  1.0000
  H   H2866     1.0  0.24322  0.72063  0.37216  1.0000
  C   C1668     1.0  0.27377  0.67603  0.30533  1.0000
  H   H2867     1.0  0.27918  0.67321  0.27866  1.0000
  C   C1669     1.0  0.31939  0.61381  0.31869  1.0000
  C   C1670     1.0  0.33850  0.61653  0.32636  1.0000
  H   H2868     1.0  0.31951  0.54092  0.34172  1.0000
  H   H2869     1.0  0.49332  0.66833  0.38369  1.0000
  H   H2870     1.0  0.11443  0.70893  0.26912  1.0000
  C   C1671     1.0  0.22619  0.72398  0.39751  1.0000
  C   C1672     1.0  0.35698  0.49059  0.33946  1.0000
  C   C1673     1.0  0.41159  0.64309  0.44154  1.0000
  C   C1674     1.0  0.34012  0.72590  0.24659  1.0000
  C   C1675     1.0  0.22360  0.71847  0.35814  1.0000
  H   H2871     1.0  0.38017  0.63385  0.45278  1.0000
  H   H2872     1.0  0.16575  0.72889  0.36552  1.0000
  H   H2873     1.0  0.47307  0.65829  0.34042  1.0000
  C   C1676     1.0  0.47477  0.66226  0.34846  1.0000
  H   H2874     1.0  0.39417  0.72873  0.24004  1.0000
  C   C1677     1.0  0.39068  0.63372  0.44629  1.0000
  H   H2875     1.0  0.31504  0.52600  0.33999  1.0000
  H   H2876     1.0  0.27454  0.71019  0.36840  1.0000
  C   C1678     1.0  0.24298  0.60811  0.24012  1.0000
  H   H2877     1.0  0.35654  0.73303  0.23098  1.0000
  H   H2878     1.0  0.17830  0.64675  0.23694  1.0000
  C   C1679     1.0  0.49169  0.62999  0.33765  1.0000
  H   H2879     1.0  0.40905  0.61768  0.44112  1.0000
  C   C1680     1.0  0.35259  0.49466  0.39018  1.0000
  H   H2880     1.0  0.15149  0.71473  0.26159  1.0000
  C   C1681     1.0  0.17659  0.72619  0.35995  1.0000
  C   C1682     1.0  0.12030  0.72190  0.28411  1.0000
  C   C1683     1.0  0.40218  0.64639  0.47161  1.0000
  H   H2881     1.0  0.23459  0.70223  0.38461  1.0000
  H   H2882     1.0  0.12478  0.72312  0.29198  1.0000
  H   H2883     1.0  0.18951  0.72204  0.31760  1.0000
  H   H2884     1.0  0.22018  0.71667  0.39779  1.0000
  H   H2885     1.0  0.35256  0.49962  0.39828  1.0000
  H   H2886     1.0  0.24624  0.68258  0.40870  1.0000
  H   H2887     1.0  0.14407  0.69448  0.27352  1.0000
  C   C1684     1.0  0.26302  0.70155  0.39523  1.0000
  H   H2888     1.0  0.25003  0.72662  0.33202  1.0000
  H   H2889     1.0  0.46587  0.67074  0.35059  1.0000
  H   H2890     1.0  0.21542  0.64999  0.23028  1.0000
  H   H2891     1.0  0.23921  0.71070  0.41098  1.0000
  H   H2892     1.0  0.25421  0.72744  0.37709  1.0000
  H   H2893     1.0  0.38487  0.72405  0.25707  1.0000
  C   C1685     1.0  0.48450  0.69483  0.36226  1.0000
  C   C1686     1.0  0.38421  0.72643  0.24627  1.0000
  H   H2894     1.0  0.47481  0.70178  0.36618  1.0000
  C   C1687     1.0  0.21253  0.64185  0.25165  1.0000
  N   N121      1.0  0.24988  0.70843  0.39047  1.0000
  C   C1688     1.0  0.19855  0.72771  0.33440  1.0000
  C   C1689     1.0  0.23802  0.68839  0.40321  1.0000
  H   H2895     1.0  0.26846  0.71326  0.40660  1.0000
  H   H2896     1.0  0.18214  0.71818  0.36711  1.0000
  H   H2897     1.0  0.22026  0.72984  0.40545  1.0000
  H   H2898     1.0  0.25077  0.69075  0.38311  1.0000
  H   H2899     1.0  0.22032  0.71683  0.32967  1.0000
  H   H2900     1.0  0.39408  0.65576  0.47272  1.0000
  H   H2901     1.0  0.22678  0.73137  0.38761  1.0000
  H   H2902     1.0  0.21264  0.63195  0.25901  1.0000
  C   C1690     1.0  0.35477  0.72847  0.24203  1.0000
  C   C1691     1.0  0.14233  0.72183  0.26624  1.0000
  H   H2903     1.0  0.26333  0.70187  0.36471  1.0000
  H   H2904     1.0  0.48981  0.69020  0.37072  1.0000
  H   H2905     1.0  0.47657  0.69023  0.34783  1.0000
  C   C1692     1.0  0.24056  0.71687  0.40041  1.0000
  H   H2906     1.0  0.27041  0.72084  0.38878  1.0000
  H   H2907     1.0  0.26982  0.69419  0.38894  1.0000
  H   H2908     1.0  0.17095  0.72998  0.34090  1.0000
  N   N122      1.0  0.19995  0.63794  0.23543  1.0000
  H   H2909     1.0  0.22209  0.64481  0.25133  1.0000
  C   C1693     1.0  0.18750  0.64915  0.23834  1.0000
  H   H2910     1.0  0.34598  0.72871  0.26901  1.0000
  H   H2911     1.0  0.40610  0.62740  0.46579  1.0000
  H   H2912     1.0  0.28255  0.70609  0.39413  1.0000
  H   H2913     1.0  0.48794  0.67439  0.33350  1.0000
  C   C1694     1.0  0.14720  0.72927  0.27426  1.0000
  H   H2914     1.0  0.15832  0.72895  0.27012  1.0000
  C   C1695     1.0  0.26448  0.71161  0.36593  1.0000
  H   H2915     1.0  0.33890  0.72022  0.23965  1.0000
  H   H2916     1.0  0.22174  0.63231  0.23459  1.0000
  H   H2917     1.0  0.24529  0.72508  0.40062  1.0000
  H   H2918     1.0  0.33833  0.71936  0.25693  1.0000
  H   H2919     1.0  0.38849  0.63474  0.47107  1.0000
  C   C1696     1.0  0.21275  0.64062  0.23728  1.0000
  H   H2920     1.0  0.31855  0.70668  0.68141  1.0000
  Fe  Fe241     1.0  0.39013  0.56268  0.64196  1.0000
  S   S483      1.0  0.36988  0.57727  0.64548  1.0000
  S   S484      1.0  0.41019  0.56880  0.63872  1.0000
  Fe  Fe242     1.0  0.37687  0.53928  0.64331  1.0000
  S   S485      1.0  0.35550  0.55222  0.64721  1.0000
  S   S486      1.0  0.38312  0.51711  0.64143  1.0000
  Fe  Fe243     1.0  0.36462  0.56835  0.63106  1.0000
  S   S487      1.0  0.35326  0.58257  0.61551  1.0000
  Fe  Fe244     1.0  0.36273  0.56000  0.66132  1.0000
  S   S488      1.0  0.35096  0.56354  0.68216  1.0000
  S   S489      1.0  0.38555  0.55501  0.62617  1.0000
  S   S490      1.0  0.38349  0.54573  0.65881  1.0000
  Fe  Fe245     1.0  0.35754  0.65026  0.55533  1.0000
  S   S491      1.0  0.36824  0.66436  0.53822  1.0000
  S   S492      1.0  0.33743  0.65845  0.56874  1.0000
  Fe  Fe246     1.0  0.38146  0.62635  0.55106  1.0000
  S   S493      1.0  0.39416  0.63883  0.53384  1.0000
  S   S494      1.0  0.39014  0.60436  0.55902  1.0000
  Fe  Fe247     1.0  0.38673  0.65414  0.54723  1.0000
  S   S495      1.0  0.39740  0.66708  0.55303  1.0000
  Fe  Fe248     1.0  0.37430  0.64761  0.52666  1.0000
  S   S496      1.0  0.37132  0.65409  0.50480  1.0000
  S   S497      1.0  0.37560  0.64093  0.56484  1.0000
  S   S498      1.0  0.36207  0.63416  0.54326  1.0000
  Fe  Fe249     1.0  0.45521  0.64144  0.63226  1.0000
  S   S499      1.0  0.43553  0.64678  0.64751  1.0000
  Fe  Fe250     1.0  0.44004  0.64794  0.60938  1.0000
  S   S500      1.0  0.41953  0.65462  0.62254  1.0000
  S   S501      1.0  0.44311  0.64604  0.58770  1.0000
  Fe  Fe251     1.0  0.43034  0.66489  0.63111  1.0000
  S   S502      1.0  0.42012  0.68594  0.63506  1.0000
  Fe  Fe252     1.0  0.42615  0.63608  0.63791  1.0000
  S   S503      1.0  0.40865  0.62570  0.64921  1.0000
  S   S504      1.0  0.45047  0.66022  0.61627  1.0000
  S   S505      1.0  0.44624  0.62865  0.62432  1.0000
  C   C1697     1.0  0.36738  0.62243  0.49165  1.0000
  Fe  Fe253     1.0  0.39295  0.71185  0.70107  1.0000
  S   S506      1.0  0.40964  0.69420  0.69497  1.0000
  S   S507      1.0  0.33413  0.62568  0.71832  1.0000
  C   C1698     1.0  0.36351  0.55872  0.57976  1.0000
  C   C1699     1.0  0.36442  0.67237  0.71969  1.0000
  C   C1700     1.0  0.31452  0.71313  0.70744  1.0000
  S   S508      1.0  0.33680  0.72617  0.61697  1.0000
  S   S509      1.0  0.37190  0.71310  0.69890  1.0000
  Fe  Fe254     1.0  0.33637  0.71059  0.63640  1.0000
  Fe  Fe255     1.0  0.32318  0.63363  0.70110  1.0000
  S   S510      1.0  0.30201  0.63785  0.71450  1.0000
  S   S511      1.0  0.32841  0.62614  0.68168  1.0000
  Fe  Fe256     1.0  0.30595  0.65840  0.71195  1.0000
  S   S512      1.0  0.29075  0.67809  0.70804  1.0000
  S   S513      1.0  0.32615  0.65484  0.69722  1.0000
  Fe  Fe257     1.0  0.33139  0.71102  0.60917  1.0000
  S   S514      1.0  0.30868  0.71859  0.61539  1.0000
  S   S515      1.0  0.34360  0.70773  0.58862  1.0000
  Fe  Fe258     1.0  0.31062  0.70378  0.63508  1.0000
  S   S516      1.0  0.29740  0.68865  0.64482  1.0000
  S   S517      1.0  0.33290  0.69483  0.62791  1.0000
  C   C1701     1.0  0.29398  0.68615  0.66255  1.0000
  C   C1702     1.0  0.29393  0.67306  0.67049  1.0000
  C   C1703     1.0  0.29283  0.67062  0.68451  1.0000
  C   C1704     1.0  0.29099  0.68140  0.69072  1.0000
  C   C1705     1.0  0.29016  0.69465  0.68292  1.0000
  C   C1706     1.0  0.29189  0.69699  0.66878  1.0000
  H   H2921     1.0  0.29517  0.66473  0.66576  1.0000
  H   H2922     1.0  0.29341  0.66036  0.69050  1.0000
  H   H2923     1.0  0.28858  0.70301  0.68773  1.0000
  H   H2924     1.0  0.29142  0.70720  0.66273  1.0000
  H   H2925     1.0  0.29693  0.72391  0.69049  1.0000
  C   C1707     1.0  0.37158  0.58919  0.69941  1.0000
  N   N123      1.0  0.41269  0.60772  0.59259  1.0000
  H   H2926     1.0  0.48292  0.67423  0.66153  1.0000
  H   H2927     1.0  0.43847  0.69610  0.66953  1.0000
  H   H2928     1.0  0.44773  0.67898  0.64617  1.0000
  H   H2929     1.0  0.35539  0.51863  0.58384  1.0000
  H   H2930     1.0  0.43227  0.61319  0.58856  1.0000
  C   C1708     1.0  0.41638  0.68804  0.65193  1.0000
  C   C1709     1.0  0.42086  0.67738  0.66219  1.0000
  C   C1710     1.0  0.41848  0.67934  0.67539  1.0000
  C   C1711     1.0  0.41157  0.69199  0.67850  1.0000
  C   C1712     1.0  0.40679  0.70265  0.66837  1.0000
  C   C1713     1.0  0.40921  0.70067  0.65509  1.0000
  H   H2931     1.0  0.42650  0.66771  0.65996  1.0000
  H   H2932     1.0  0.42217  0.67108  0.68321  1.0000
  H   H2933     1.0  0.40153  0.71249  0.67070  1.0000
  H   H2934     1.0  0.40567  0.70900  0.64725  1.0000
  C   C1714     1.0  0.36745  0.64414  0.49576  1.0000
  S   S518      1.0  0.39240  0.73396  0.69206  1.0000
  C   C1715     1.0  0.36695  0.66347  0.67521  1.0000
  C   C1716     1.0  0.48872  0.65480  0.62550  1.0000
  H   H2935     1.0  0.36781  0.56883  0.70243  1.0000
  C   C1717     1.0  0.37005  0.62995  0.49951  1.0000
  H   H2936     1.0  0.40717  0.63863  0.67324  1.0000
  C   C1718     1.0  0.36201  0.65071  0.48419  1.0000
  H   H2937     1.0  0.37429  0.62474  0.50836  1.0000
  C   C1719     1.0  0.40925  0.65925  0.56359  1.0000
  C   C1720     1.0  0.40608  0.66124  0.57693  1.0000
  C   C1721     1.0  0.41625  0.65688  0.58464  1.0000
  C   C1722     1.0  0.42970  0.65081  0.57892  1.0000
  C   C1723     1.0  0.43273  0.64856  0.56573  1.0000
  C   C1724     1.0  0.42257  0.65276  0.55810  1.0000
  H   H2938     1.0  0.39585  0.66645  0.58114  1.0000
  H   H2939     1.0  0.41384  0.65847  0.59485  1.0000
  H   H2940     1.0  0.44309  0.64389  0.56123  1.0000
  H   H2941     1.0  0.42519  0.65149  0.54773  1.0000
  C   C1725     1.0  0.33915  0.67176  0.57490  1.0000
  C   C1726     1.0  0.32834  0.67790  0.58430  1.0000
  C   C1727     1.0  0.32974  0.68869  0.58898  1.0000
  C   C1728     1.0  0.34181  0.69357  0.58396  1.0000
  C   C1729     1.0  0.35259  0.68737  0.57469  1.0000
  C   C1730     1.0  0.35136  0.67635  0.57040  1.0000
  H   H2942     1.0  0.31890  0.67432  0.58794  1.0000
  H   H2943     1.0  0.32137  0.69344  0.59618  1.0000
  H   H2944     1.0  0.36197  0.69104  0.57077  1.0000
  H   H2945     1.0  0.35991  0.67153  0.56348  1.0000
  C   C1731     1.0  0.40991  0.58525  0.64008  1.0000
  C   C1732     1.0  0.42201  0.58817  0.64073  1.0000
  C   C1733     1.0  0.42188  0.60090  0.64278  1.0000
  C   C1734     1.0  0.40960  0.61070  0.64429  1.0000
  C   C1735     1.0  0.39763  0.60803  0.64298  1.0000
  C   C1736     1.0  0.39784  0.59541  0.64067  1.0000
  H   H2946     1.0  0.43145  0.58044  0.64004  1.0000
  H   H2947     1.0  0.43117  0.60290  0.64375  1.0000
  H   H2948     1.0  0.38813  0.61564  0.64397  1.0000
  H   H2949     1.0  0.38859  0.59347  0.63969  1.0000
  C   C1737     1.0  0.36369  0.58859  0.59991  1.0000
  C   C1738     1.0  0.37679  0.58097  0.59533  1.0000
  C   C1739     1.0  0.38480  0.58576  0.58264  1.0000
  C   C1740     1.0  0.37986  0.59831  0.57465  1.0000
  C   C1741     1.0  0.36683  0.60600  0.57926  1.0000
  C   C1742     1.0  0.35869  0.60106  0.59181  1.0000
  H   H2950     1.0  0.38066  0.57130  0.60138  1.0000
  H   H2951     1.0  0.39484  0.57977  0.57904  1.0000
  H   H2952     1.0  0.36292  0.61567  0.57308  1.0000
  H   H2953     1.0  0.34853  0.60695  0.59527  1.0000
  C   C1743     1.0  0.34310  0.58070  0.68239  1.0000
  C   C1744     1.0  0.34140  0.59010  0.67033  1.0000
  C   C1745     1.0  0.33644  0.60396  0.67036  1.0000
  C   C1746     1.0  0.33311  0.60854  0.68246  1.0000
  C   C1747     1.0  0.33424  0.59912  0.69467  1.0000
  C   C1748     1.0  0.33917  0.58518  0.69464  1.0000
  H   H2954     1.0  0.34377  0.58668  0.66096  1.0000
  H   H2955     1.0  0.33523  0.61113  0.66097  1.0000
  H   H2956     1.0  0.33150  0.60258  0.70409  1.0000
  H   H2957     1.0  0.34025  0.57791  0.70405  1.0000
  C   C1749     1.0  0.37380  0.50783  0.63698  1.0000
  C   C1750     1.0  0.36014  0.51305  0.63587  1.0000
  C   C1751     1.0  0.35350  0.50574  0.63130  1.0000
  H   H2958     1.0  0.38245  0.55162  0.58586  1.0000
  H   H2959     1.0  0.37180  0.68829  0.72279  1.0000
  H   H2960     1.0  0.43881  0.69997  0.65145  1.0000
  H   H2961     1.0  0.35473  0.52277  0.63842  1.0000
  H   H2962     1.0  0.34302  0.50997  0.63020  1.0000
  C   C1752     1.0  0.39181  0.62840  0.59459  1.0000
  H   H2963     1.0  0.45318  0.68956  0.62393  1.0000
  C   C1753     1.0  0.39099  0.66078  0.66064  1.0000
  C   C1754     1.0  0.38300  0.68027  0.68108  1.0000
  C   C1755     1.0  0.38592  0.67394  0.65069  1.0000
  H   H2964     1.0  0.39715  0.66130  0.68385  1.0000
  H   H2965     1.0  0.40163  0.66064  0.66096  1.0000
  H   H2966     1.0  0.39195  0.65238  0.65561  1.0000
  H   H2967     1.0  0.38561  0.68345  0.68913  1.0000
  H   H2968     1.0  0.37209  0.68514  0.68123  1.0000
  H   H2969     1.0  0.38959  0.68426  0.67136  1.0000
  H   H2970     1.0  0.39491  0.67696  0.64302  1.0000
  H   H2971     1.0  0.38045  0.68274  0.65535  1.0000
  H   H2972     1.0  0.37952  0.67208  0.64486  1.0000
  H   H2973     1.0  0.36428  0.67450  0.67082  1.0000
  H   H2974     1.0  0.40036  0.62489  0.68478  1.0000
  H   H2975     1.0  0.45943  0.65334  0.66053  1.0000
  C   C1756     1.0  0.42125  0.61692  0.59320  1.0000
  H   H2976     1.0  0.39123  0.63284  0.60325  1.0000
  C   C1757     1.0  0.36091  0.65639  0.66792  1.0000
  H   H2977     1.0  0.34764  0.55504  0.62105  1.0000
  C   C1758     1.0  0.48762  0.68730  0.64220  1.0000
  H   H2978     1.0  0.48336  0.66738  0.64774  1.0000
  H   H2979     1.0  0.33555  0.65451  0.54337  1.0000
  H   H2980     1.0  0.34954  0.68628  0.69315  1.0000
  N   N124      1.0  0.37062  0.53653  0.59716  1.0000
  H   H2981     1.0  0.36241  0.57574  0.71721  1.0000
  C   C1759     1.0  0.46158  0.68842  0.62905  1.0000
  C   C1760     1.0  0.36714  0.71367  0.65956  1.0000
  H   H2982     1.0  0.41349  0.57954  0.59164  1.0000
  H   H2983     1.0  0.28762  0.66368  0.53465  1.0000
  H   H2984     1.0  0.30135  0.72439  0.67274  1.0000
  H   H2985     1.0  0.41848  0.62728  0.58708  1.0000
  H   H2986     1.0  0.33938  0.67541  0.53405  1.0000
  H   H2987     1.0  0.35724  0.52240  0.60545  1.0000
  H   H2988     1.0  0.34636  0.71174  0.68607  1.0000
  H   H2989     1.0  0.37463  0.66661  0.71622  1.0000
  H   H2990     1.0  0.38069  0.54182  0.57575  1.0000
  H   H2991     1.0  0.38063  0.66129  0.69479  1.0000
  H   H2992     1.0  0.31491  0.69137  0.71564  1.0000
  H   H2993     1.0  0.30778  0.69803  0.70080  1.0000
  H   H2994     1.0  0.34364  0.54165  0.61663  1.0000
  C   C1761     1.0  0.33995  0.69309  0.69050  1.0000
  C   C1762     1.0  0.38597  0.66467  0.68408  1.0000
  C   C1763     1.0  0.45917  0.69537  0.65635  1.0000
  C   C1764     1.0  0.39925  0.63608  0.68252  1.0000
  C   C1765     1.0  0.37489  0.54674  0.58445  1.0000
  H   H2995     1.0  0.35997  0.66169  0.48121  1.0000
  H   H2996     1.0  0.39141  0.60807  0.59391  1.0000
  N   N125      1.0  0.38272  0.59013  0.68663  1.0000
  C   C1766     1.0  0.38117  0.60497  0.67965  1.0000
  C   C1767     1.0  0.39652  0.58560  0.69040  1.0000
  C   C1768     1.0  0.38133  0.58229  0.67718  1.0000
  C   C1769     1.0  0.36746  0.61214  0.67528  1.0000
  C   C1770     1.0  0.40908  0.58633  0.67836  1.0000
  C   C1771     1.0  0.38775  0.56682  0.67967  1.0000
  H   H2997     1.0  0.38257  0.61098  0.68622  1.0000
  H   H2998     1.0  0.38928  0.60634  0.67025  1.0000
  C   C1772     1.0  0.41328  0.61864  0.56708  1.0000
  H   H2999     1.0  0.39707  0.59185  0.69719  1.0000
  H   H3000     1.0  0.37032  0.58360  0.67726  1.0000
  H   H3001     1.0  0.38608  0.58654  0.66654  1.0000
  H   H3002     1.0  0.35896  0.61424  0.68410  1.0000
  H   H3003     1.0  0.36464  0.60638  0.66946  1.0000
  H   H3004     1.0  0.40865  0.58176  0.67020  1.0000
  H   H3005     1.0  0.41028  0.59695  0.67401  1.0000
  H   H3006     1.0  0.41856  0.58062  0.68201  1.0000
  C   C1773     1.0  0.34750  0.72934  0.65184  1.0000
  H   H3007     1.0  0.39689  0.56446  0.67144  1.0000
  H   H3008     1.0  0.46357  0.66839  0.64122  1.0000
  C   C1774     1.0  0.39459  0.52947  0.60310  1.0000
  H   H3009     1.0  0.39046  0.56214  0.68960  1.0000
  Fe  Fe259     1.0  0.31407  0.73272  0.62473  1.0000
  C   C1775     1.0  0.33979  0.67504  0.72527  1.0000
  C   C1776     1.0  0.35290  0.66764  0.72037  1.0000
  H   H3010     1.0  0.40307  0.64082  0.48211  1.0000
  C   C1777     1.0  0.36037  0.49306  0.62801  1.0000
  H   H3011     1.0  0.34614  0.55711  0.60412  1.0000
  H   H3012     1.0  0.37708  0.72115  0.67047  1.0000
  C   C1778     1.0  0.36007  0.52987  0.59587  1.0000
  C   C1779     1.0  0.39749  0.61282  0.59776  1.0000
  N   N126      1.0  0.38327  0.69623  0.60571  1.0000
  C   C1780     1.0  0.37230  0.68892  0.60667  1.0000
  C   C1781     1.0  0.38355  0.70708  0.59282  1.0000
  C   C1782     1.0  0.37889  0.70287  0.61776  1.0000
  C   C1783     1.0  0.39676  0.68599  0.60594  1.0000
  C   C1784     1.0  0.36963  0.67770  0.61952  1.0000
  C   C1785     1.0  0.38681  0.70193  0.57958  1.0000
  C   C1786     1.0  0.38835  0.71124  0.61888  1.0000
  C   C1787     1.0  0.41007  0.69138  0.59954  1.0000
  H   H3013     1.0  0.36231  0.69630  0.60609  1.0000
  H   H3014     1.0  0.37484  0.68388  0.59795  1.0000
  H   H3015     1.0  0.39099  0.71333  0.59146  1.0000
  H   H3016     1.0  0.37343  0.71449  0.59332  1.0000
  H   H3017     1.0  0.36846  0.70966  0.61803  1.0000
  H   H3018     1.0  0.37807  0.69514  0.62741  1.0000
  H   H3019     1.0  0.39727  0.68050  0.61656  1.0000
  H   H3020     1.0  0.39746  0.67809  0.60039  1.0000
  C   C1788     1.0  0.31907  0.71691  0.68196  1.0000
  H   H3021     1.0  0.35030  0.53724  0.59460  1.0000
  H   H3022     1.0  0.25431  0.66133  0.71546  1.0000
  H   H3023     1.0  0.38947  0.71016  0.57073  1.0000
  H   H3024     1.0  0.39557  0.69302  0.57905  1.0000
  H   H3025     1.0  0.37769  0.69934  0.57828  1.0000
  H   H3026     1.0  0.38349  0.71589  0.62790  1.0000
  H   H3027     1.0  0.38987  0.71973  0.61002  1.0000
  H   H3028     1.0  0.39833  0.70468  0.62075  1.0000
  H   H3029     1.0  0.41787  0.68563  0.60562  1.0000
  H   H3030     1.0  0.40906  0.70222  0.59916  1.0000
  H   H3031     1.0  0.39906  0.53729  0.59495  1.0000
  H   H3032     1.0  0.37429  0.70396  0.66014  1.0000
  H   H3033     1.0  0.39733  0.63405  0.58511  1.0000
  Fe  Fe260     1.0  0.33533  0.64733  0.71548  1.0000
  N   N127      1.0  0.32435  0.71663  0.69406  1.0000
  H   H3034     1.0  0.36132  0.56691  0.58540  1.0000
  H   H3035     1.0  0.36095  0.66238  0.68592  1.0000
  N   N128      1.0  0.33236  0.64539  0.63619  1.0000
  C   C1789     1.0  0.34546  0.63566  0.63917  1.0000
  C   C1790     1.0  0.33118  0.65844  0.64030  1.0000
  C   C1791     1.0  0.33230  0.64854  0.62131  1.0000
  C   C1792     1.0  0.32050  0.63884  0.64409  1.0000
  C   C1793     1.0  0.35011  0.62288  0.63298  1.0000
  C   C1794     1.0  0.32867  0.65752  0.65567  1.0000
  C   C1795     1.0  0.34414  0.65485  0.61158  1.0000
  C   C1796     1.0  0.30600  0.64751  0.64290  1.0000
  H   H3036     1.0  0.35419  0.64085  0.63574  1.0000
  H   H3037     1.0  0.34452  0.63195  0.65034  1.0000
  H   H3038     1.0  0.32300  0.66675  0.63636  1.0000
  H   H3039     1.0  0.34071  0.66233  0.63556  1.0000
  H   H3040     1.0  0.33230  0.63929  0.61806  1.0000
  H   H3041     1.0  0.32262  0.65585  0.61929  1.0000
  H   H3042     1.0  0.32136  0.62941  0.64072  1.0000
  H   H3043     1.0  0.32070  0.63506  0.65505  1.0000
  H   H3044     1.0  0.35332  0.62542  0.62174  1.0000
  H   H3045     1.0  0.35921  0.61611  0.63677  1.0000
  H   H3046     1.0  0.34216  0.61684  0.63597  1.0000
  H   H3047     1.0  0.31887  0.65458  0.66131  1.0000
  H   H3048     1.0  0.33715  0.65028  0.66006  1.0000
  H   H3049     1.0  0.32795  0.66769  0.65744  1.0000
  H   H3050     1.0  0.35439  0.64890  0.61319  1.0000
  H   H3051     1.0  0.34280  0.66552  0.61232  1.0000
  H   H3052     1.0  0.34399  0.65512  0.60097  1.0000
  H   H3053     1.0  0.30294  0.64600  0.63419  1.0000
  H   H3054     1.0  0.30497  0.65851  0.64180  1.0000
  H   H3055     1.0  0.29849  0.64449  0.65242  1.0000
  H   H3056     1.0  0.46141  0.69888  0.62938  1.0000
  C   C1797     1.0  0.38454  0.64318  0.68061  1.0000
  H   H3057     1.0  0.33159  0.68789  0.69637  1.0000
  C   C1798     1.0  0.44352  0.70096  0.65926  1.0000
  C   C1799     1.0  0.30539  0.73472  0.57734  1.0000
  C   C1800     1.0  0.37383  0.48759  0.62965  1.0000
  H   H3058     1.0  0.36754  0.65492  0.65791  1.0000
  H   H3059     1.0  0.33006  0.63081  0.52814  1.0000
  H   H3060     1.0  0.36744  0.53579  0.61871  1.0000
  H   H3061     1.0  0.34096  0.69411  0.67946  1.0000
  C   C1801     1.0  0.32432  0.67401  0.52358  1.0000
  H   H3062     1.0  0.38239  0.63780  0.67392  1.0000
  H   H3063     1.0  0.33772  0.68805  0.51897  1.0000
  H   H3064     1.0  0.31853  0.66224  0.54915  1.0000
  H   H3065     1.0  0.41525  0.59467  0.61214  1.0000
  H   H3066     1.0  0.42706  0.60962  0.61299  1.0000
  C   C1802     1.0  0.36432  0.52227  0.58416  1.0000
  H   H3067     1.0  0.32257  0.67802  0.51306  1.0000
  H   H3068     1.0  0.39909  0.58556  0.60470  1.0000
  C   C1803     1.0  0.34978  0.54957  0.61275  1.0000
  C   C1804     1.0  0.41731  0.59398  0.60135  1.0000
  H   H3069     1.0  0.29565  0.67723  0.53251  1.0000
  C   C1805     1.0  0.30478  0.72618  0.68108  1.0000
  H   H3070     1.0  0.39822  0.57510  0.69652  1.0000
  C   C1806     1.0  0.30870  0.70043  0.71004  1.0000
  H   H3071     1.0  0.31625  0.68044  0.53005  1.0000
  H   H3072     1.0  0.40996  0.62030  0.61375  1.0000
  H   H3073     1.0  0.32323  0.73438  0.59104  1.0000
  H   H3074     1.0  0.34280  0.63194  0.51278  1.0000
  H   H3075     1.0  0.42659  0.60035  0.57519  1.0000
  H   H3076     1.0  0.40225  0.62356  0.56826  1.0000
  H   H3077     1.0  0.31949  0.71152  0.71603  1.0000
  H   H3078     1.0  0.40930  0.59929  0.57742  1.0000
  H   H3079     1.0  0.30853  0.64781  0.52926  1.0000
  H   H3080     1.0  0.36731  0.52894  0.57413  1.0000
  H   H3081     1.0  0.40135  0.63852  0.69127  1.0000
  H   H3082     1.0  0.38814  0.52099  0.59031  1.0000
  H   H3083     1.0  0.33516  0.48726  0.64917  1.0000
  H   H3084     1.0  0.29713  0.66277  0.54672  1.0000
  C   C1807     1.0  0.33495  0.65117  0.51935  1.0000
  H   H3085     1.0  0.42863  0.59019  0.59828  1.0000
  H   H3086     1.0  0.42477  0.62750  0.60667  1.0000
  C   C1808     1.0  0.41571  0.60577  0.57823  1.0000
  C   C1809     1.0  0.33825  0.70701  0.69378  1.0000
  H   H3087     1.0  0.30880  0.66239  0.51609  1.0000
  H   H3088     1.0  0.38028  0.56139  0.67910  1.0000
  H   H3089     1.0  0.34476  0.64892  0.52266  1.0000
  N   N129      1.0  0.38211  0.65832  0.67483  1.0000
  H   H3090     1.0  0.34697  0.67127  0.51746  1.0000
  S   S519      1.0  0.31414  0.71847  0.64515  1.0000
  H   H3091     1.0  0.34124  0.70494  0.70364  1.0000
  H   H3092     1.0  0.36131  0.59361  0.69703  1.0000
  N   N130      1.0  0.32341  0.65926  0.52839  1.0000
  H   H3093     1.0  0.48074  0.65862  0.61980  1.0000
  H   H3094     1.0  0.31052  0.71928  0.56537  1.0000
  H   H3095     1.0  0.37916  0.67014  0.62132  1.0000
  H   H3096     1.0  0.48625  0.69611  0.64674  1.0000
  H   H3097     1.0  0.33698  0.65718  0.50871  1.0000
  H   H3098     1.0  0.34330  0.72619  0.70299  1.0000
  C   C1810     1.0  0.33795  0.67713  0.52358  1.0000
  H   H3099     1.0  0.31401  0.63781  0.54840  1.0000
  H   H3100     1.0  0.31945  0.64037  0.56172  1.0000
  H   H3101     1.0  0.36847  0.62216  0.66849  1.0000
  H   H3102     1.0  0.36694  0.56296  0.56875  1.0000
  H   H3103     1.0  0.32536  0.63918  0.51200  1.0000
  C   C1811     1.0  0.36530  0.54319  0.60929  1.0000
  C   C1812     1.0  0.47949  0.67681  0.65180  1.0000
  C   C1813     1.0  0.48844  0.64300  0.63571  1.0000
  H   H3104     1.0  0.38014  0.51681  0.60781  1.0000
  N   N131      1.0  0.46401  0.68095  0.65429  1.0000
  S   S520      1.0  0.47515  0.63405  0.63986  1.0000
  H   H3105     1.0  0.36427  0.68206  0.62862  1.0000
  C   C1814     1.0  0.37073  0.57483  0.70796  1.0000
  S   S521      1.0  0.35345  0.70342  0.64753  1.0000
  H   H3106     1.0  0.41646  0.61565  0.55709  1.0000
  H   H3107     1.0  0.35908  0.64644  0.67434  1.0000
  H   H3108     1.0  0.35078  0.66280  0.66626  1.0000
  Fe  Fe261     1.0  0.36488  0.71743  0.71970  1.0000
  H   H3109     1.0  0.47436  0.65274  0.66654  1.0000
  S   S522      1.0  0.35506  0.65243  0.71519  1.0000
  H   H3110     1.0  0.31792  0.73364  0.55656  1.0000
  H   H3111     1.0  0.38104  0.63041  0.59359  1.0000
  H   H3112     1.0  0.36961  0.61144  0.49452  1.0000
  H   H3113     1.0  0.41390  0.57345  0.60908  1.0000
  C   C1815     1.0  0.34973  0.69197  0.72846  1.0000
  C   C1816     1.0  0.45834  0.67188  0.66738  1.0000
  H   H3114     1.0  0.39480  0.60961  0.60906  1.0000
  H   H3115     1.0  0.46350  0.70267  0.64747  1.0000
  H   H3116     1.0  0.40305  0.52036  0.60458  1.0000
  H   H3117     1.0  0.33205  0.63255  0.54883  1.0000
  H   H3118     1.0  0.37261  0.51305  0.58580  1.0000
  H   H3119     1.0  0.37738  0.64091  0.69067  1.0000
  H   H3120     1.0  0.41945  0.62592  0.56639  1.0000
  H   H3121     1.0  0.41464  0.68920  0.58923  1.0000
  H   H3122     1.0  0.38027  0.56922  0.71147  1.0000
  H   H3123     1.0  0.46097  0.67381  0.67617  1.0000
  H   H3124     1.0  0.39106  0.53290  0.61282  1.0000
  H   H3125     1.0  0.37249  0.59529  0.70617  1.0000
  H   H3126     1.0  0.47143  0.68416  0.62256  1.0000
  H   H3127     1.0  0.45848  0.65094  0.67818  1.0000
  C   C1817     1.0  0.38313  0.52539  0.59948  1.0000
  H   H3128     1.0  0.37076  0.55128  0.60811  1.0000
  C   C1818     1.0  0.35629  0.71645  0.65314  1.0000
  C   C1819     1.0  0.30968  0.65844  0.52689  1.0000
  C   C1820     1.0  0.42057  0.61859  0.60754  1.0000
  C   C1821     1.0  0.32496  0.65472  0.54290  1.0000
  H   H3129     1.0  0.46294  0.69632  0.66491  1.0000
  C   C1822     1.0  0.29694  0.66604  0.53578  1.0000
  C   C1823     1.0  0.33299  0.63752  0.51819  1.0000
  C   C1824     1.0  0.32253  0.64052  0.55065  1.0000
  C   C1825     1.0  0.41043  0.58265  0.60153  1.0000
  C   C1826     1.0  0.45890  0.67881  0.64309  1.0000
  C   C1827     1.0  0.46307  0.65641  0.66797  1.0000
  H   H3130     1.0  0.44697  0.67412  0.66955  1.0000
  H   H3131     1.0  0.35389  0.55574  0.58060  1.0000
  H   H3132     1.0  0.44130  0.71198  0.65917  1.0000
  C   C1828     1.0  0.33281  0.73256  0.70333  1.0000
  H   H3133     1.0  0.36266  0.67214  0.61814  1.0000
  H   H3134     1.0  0.33922  0.73164  0.64667  1.0000
  H   H3135     1.0  0.30565  0.72183  0.70915  1.0000
  C   C1829     1.0  0.38052  0.49498  0.63407  1.0000
  H   H3136     1.0  0.32641  0.72017  0.67236  1.0000
  H   H3137     1.0  0.26528  0.64508  0.71501  1.0000
  H   H3138     1.0  0.39106  0.49081  0.63501  1.0000
  H   H3139     1.0  0.33086  0.67155  0.72577  1.0000
  H   H3140     1.0  0.48518  0.69082  0.63206  1.0000
  H   H3141     1.0  0.25941  0.67906  0.72380  1.0000
  H   H3142     1.0  0.32494  0.72102  0.57002  1.0000
  C   C1830     1.0  0.36870  0.72340  0.66549  1.0000
  C   C1831     1.0  0.32622  0.73076  0.69266  1.0000
  H   H3143     1.0  0.29806  0.70216  0.71629  1.0000
  H   H3144     1.0  0.33265  0.73423  0.68254  1.0000
  C   C1832     1.0  0.36284  0.68462  0.72351  1.0000
  C   C1833     1.0  0.31538  0.72689  0.56664  1.0000
  H   H3145     1.0  0.30434  0.72732  0.58728  1.0000
  S   S523      1.0  0.38617  0.71429  0.72278  1.0000
  H   H3146     1.0  0.27252  0.65968  0.71183  1.0000
  C   C1834     1.0  0.26397  0.65478  0.71807  1.0000
  H   H3147     1.0  0.32649  0.73051  0.71379  1.0000
  H   H3148     1.0  0.34348  0.49514  0.66238  1.0000
  H   H3149     1.0  0.31934  0.48865  0.66134  1.0000
  H   H3150     1.0  0.35192  0.48775  0.67612  1.0000
  C   C1835     1.0  0.33822  0.68703  0.72956  1.0000
  H   H3151     1.0  0.31873  0.48644  0.63821  1.0000
  C   C1836     1.0  0.34832  0.48530  0.66825  1.0000
  S   S524      1.0  0.31533  0.65285  0.72991  1.0000
  Fe  Fe262     1.0  0.20166  0.64951  0.78892  1.0000
  S   S525      1.0  0.20118  0.65042  0.81008  1.0000
  S   S526      1.0  0.18383  0.66073  0.77934  1.0000
  Fe  Fe263     1.0  0.22921  0.62947  0.78601  1.0000
  S   S527      1.0  0.23113  0.62843  0.80712  1.0000
  S   S528      1.0  0.24360  0.61863  0.76985  1.0000
  Fe  Fe264     1.0  0.20866  0.62770  0.81324  1.0000
  S   S529      1.0  0.19792  0.61532  0.83261  1.0000
  Fe  Fe265     1.0  0.22340  0.65115  0.80214  1.0000
  S   S530      1.0  0.23215  0.66755  0.80445  1.0000
  S   S531      1.0  0.20745  0.62687  0.79253  1.0000
  S   S532      1.0  0.22315  0.65220  0.78056  1.0000
  C   C1837     1.0  0.15908  0.68659  0.96452  1.0000
  S   S533      1.0  0.14463  0.70321  0.82127  1.0000
  S   S534      1.0  0.16737  0.72063  0.78813  1.0000
  Fe  Fe266     1.0  0.12295  0.70962  0.81875  1.0000
  S   S535      1.0  0.11231  0.69362  0.81884  1.0000
  C   C1838     1.0  0.08859  0.73203  0.81401  1.0000
  Fe  Fe267     1.0  0.23080  0.68748  0.86934  1.0000
  S   S536      1.0  0.20834  0.69330  0.87814  1.0000
  S   S537      1.0  0.23702  0.66714  0.86324  1.0000
  Fe  Fe268     1.0  0.23654  0.71209  0.87573  1.0000
  H   H3152     1.0  0.29866  0.64038  0.78095  1.0000
  H   H3153     1.0  0.14285  0.63380  0.84195  1.0000
  Fe  Fe269     1.0  0.21466  0.69740  0.89502  1.0000
  S   S538      1.0  0.20389  0.68801  0.91594  1.0000
  Fe  Fe270     1.0  0.20986  0.71465  0.86781  1.0000
  H   H3154     1.0  0.33358  0.62779  0.74756  1.0000
  S   S539      1.0  0.23727  0.69024  0.88693  1.0000
  S   S540      1.0  0.23191  0.70857  0.85734  1.0000
  C   C1839     1.0  0.18661  0.69541  0.95668  1.0000
  H   H3155     1.0  0.12497  0.64391  0.82723  1.0000
  Fe  Fe271     1.0  0.14817  0.72126  0.80449  1.0000
  H   H3156     1.0  0.21172  0.53723  0.80925  1.0000
  S   S541      1.0  0.30611  0.62182  0.75332  1.0000
  H   H3157     1.0  0.14388  0.73294  0.77094  1.0000
  Fe  Fe272     1.0  0.14102  0.66128  0.92161  1.0000
  S   S542      1.0  0.12493  0.65928  0.94086  1.0000
  S   S543      1.0  0.14721  0.68109  0.91120  1.0000
  Fe  Fe273     1.0  0.14312  0.63274  0.91786  1.0000
  S   S544      1.0  0.15325  0.62207  0.90022  1.0000
  Fe  Fe274     1.0  0.11549  0.64939  0.93031  1.0000
  S   S545      1.0  0.09346  0.65800  0.92815  1.0000
  S   S546      1.0  0.13057  0.65326  0.91063  1.0000
  S   S547      1.0  0.15499  0.64118  0.92731  1.0000
  Fe  Fe275     1.0  0.12009  0.56508  0.85641  1.0000
  S   S548      1.0  0.12464  0.55085  0.87555  1.0000
  S   S549      1.0  0.09792  0.56983  0.85555  1.0000
  Fe  Fe276     1.0  0.14975  0.56697  0.84531  1.0000
  S   S550      1.0  0.15646  0.55259  0.86372  1.0000
  S   S551      1.0  0.16465  0.57565  0.82698  1.0000
  Fe  Fe277     1.0  0.14274  0.54013  0.86193  1.0000
  S   S552      1.0  0.14764  0.51695  0.86549  1.0000
  Fe  Fe278     1.0  0.13761  0.56483  0.87527  1.0000
  S   S553      1.0  0.13426  0.57141  0.89505  1.0000
  S   S554      1.0  0.13738  0.55368  0.84274  1.0000
  S   S555      1.0  0.13173  0.57991  0.85694  1.0000
  Fe  Fe279     1.0  0.05300  0.66808  0.86806  1.0000
  S   S556      1.0  0.03677  0.66040  0.88536  1.0000
  S   S557      1.0  0.05918  0.68769  0.86537  1.0000
  Fe  Fe280     1.0  0.06170  0.64211  0.85740  1.0000
  S   S558      1.0  0.04634  0.63202  0.87376  1.0000
  S   S559      1.0  0.07800  0.63352  0.84092  1.0000
  Fe  Fe281     1.0  0.03156  0.65236  0.86993  1.0000
  S   S560      1.0  0.01055  0.65778  0.86457  1.0000
  Fe  Fe282     1.0  0.05286  0.64091  0.88767  1.0000
  S   S561      1.0  0.06086  0.62858  0.90633  1.0000
  S   S562      1.0  0.04676  0.66174  0.85246  1.0000
  S   S563      1.0  0.06925  0.64924  0.87146  1.0000
  H   H3158     1.0  0.27137  0.67366  0.73423  1.0000
  C   C1840     1.0  0.14337  0.50696  0.85666  1.0000
  H   H3159     1.0  0.19058  0.54367  0.85672  1.0000
  H   H3160     1.0  0.11027  0.71928  0.87130  1.0000
  H   H3161     1.0  0.09022  0.72270  0.82196  1.0000
  C   C1841     1.0  0.13740  0.50390  0.83700  1.0000
  C   C1842     1.0  0.14071  0.51217  0.84364  1.0000
  S   S564      1.0  0.14310  0.71025  0.85536  1.0000
  N   N132      1.0  0.11277  0.65098  0.87682  1.0000
  H   H3162     1.0  0.13536  0.50804  0.82694  1.0000
  H   H3163     1.0  0.14117  0.52256  0.83865  1.0000
  C   C1843     1.0  0.09209  0.58742  0.85080  1.0000
  C   C1844     1.0  0.10105  0.59542  0.84208  1.0000
  C   C1845     1.0  0.09654  0.60959  0.83886  1.0000
  C   C1846     1.0  0.08321  0.61578  0.84472  1.0000
  C   C1847     1.0  0.07425  0.60777  0.85349  1.0000
  C   C1848     1.0  0.07862  0.59357  0.85637  1.0000
  H   H3164     1.0  0.11145  0.59069  0.83772  1.0000
  H   H3165     1.0  0.10346  0.61576  0.83202  1.0000
  H   H3166     1.0  0.06394  0.61248  0.85797  1.0000
  H   H3167     1.0  0.07171  0.58738  0.86319  1.0000
  C   C1849     1.0  0.08442  0.64949  0.92246  1.0000
  C   C1850     1.0  0.08745  0.63531  0.92444  1.0000
  C   C1851     1.0  0.07992  0.62896  0.91979  1.0000
  C   C1852     1.0  0.06980  0.63674  0.91257  1.0000
  C   C1853     1.0  0.06688  0.65090  0.91051  1.0000
  C   C1854     1.0  0.07386  0.65720  0.91582  1.0000
  H   H3168     1.0  0.09537  0.62925  0.92981  1.0000
  H   H3169     1.0  0.08196  0.61801  0.92175  1.0000
  H   H3170     1.0  0.05897  0.65700  0.90513  1.0000
  H   H3171     1.0  0.07125  0.66815  0.91450  1.0000
  C   C1855     1.0  0.14784  0.60804  0.89884  1.0000
  C   C1856     1.0  0.15176  0.60396  0.88635  1.0000
  C   C1857     1.0  0.14752  0.59289  0.88494  1.0000
  C   C1858     1.0  0.13953  0.58566  0.89610  1.0000
  C   C1859     1.0  0.13554  0.58982  0.90854  1.0000
  C   C1860     1.0  0.13955  0.60103  0.90988  1.0000
  H   H3172     1.0  0.15819  0.60932  0.87776  1.0000
  H   H3173     1.0  0.15071  0.58975  0.87532  1.0000
  H   H3174     1.0  0.12945  0.58424  0.91724  1.0000
  H   H3175     1.0  0.13648  0.60407  0.91954  1.0000
  C   C1861     1.0  0.09869  0.49896  0.86961  1.0000
  H   H3176     1.0  0.18174  0.64266  0.96186  1.0000
  C   C1862     1.0  0.31747  0.71720  0.87548  1.0000
  H   H3177     1.0  0.07161  0.71621  0.83235  1.0000
  C   C1863     1.0  0.15585  0.69090  0.95026  1.0000
  H   H3178     1.0  0.10089  0.51680  0.88834  1.0000
  H   H3179     1.0  0.13839  0.64219  0.80292  1.0000
  C   C1864     1.0  0.15339  0.62761  0.84005  1.0000
  H   H3180     1.0  0.20786  0.71168  0.79166  1.0000
  H   H3181     1.0  0.11661  0.63604  0.86458  1.0000
  H   H3182     1.0  0.17613  0.51023  0.84369  1.0000
  C   C1865     1.0  0.18795  0.68620  0.91502  1.0000
  C   C1866     1.0  0.18278  0.67485  0.92295  1.0000
  C   C1867     1.0  0.17014  0.67326  0.92204  1.0000
  C   C1868     1.0  0.16271  0.68301  0.91312  1.0000
  C   C1869     1.0  0.16782  0.69439  0.90528  1.0000
  C   C1870     1.0  0.18045  0.69595  0.90617  1.0000
  H   H3183     1.0  0.18875  0.66713  0.92953  1.0000
  H   H3184     1.0  0.16623  0.66445  0.92809  1.0000
  H   H3185     1.0  0.16210  0.70197  0.89838  1.0000
  H   H3186     1.0  0.18436  0.70477  0.90006  1.0000
  H   H3187     1.0  0.31632  0.71830  0.86500  1.0000
  C   C1871     1.0  0.25543  0.73478  0.87958  1.0000
  H   H3188     1.0  0.20938  0.53538  0.83744  1.0000
  H   H3189     1.0  0.10210  0.68410  0.92128  1.0000
  C   C1872     1.0  0.33095  0.72151  0.87387  1.0000
  H   H3190     1.0  0.15290  0.61712  0.84596  1.0000
  C   C1873     1.0  0.09113  0.67000  0.88117  1.0000
  C   C1874     1.0  0.09790  0.69149  0.83213  1.0000
  C   C1875     1.0  0.09479  0.69771  0.84314  1.0000
  C   C1876     1.0  0.08273  0.69675  0.85315  1.0000
  C   C1877     1.0  0.07406  0.68898  0.85258  1.0000
  C   C1878     1.0  0.07742  0.68227  0.84187  1.0000
  C   C1879     1.0  0.08926  0.68364  0.83158  1.0000
  H   H3191     1.0  0.10164  0.70326  0.84397  1.0000
  H   H3192     1.0  0.08018  0.70191  0.86145  1.0000
  H   H3193     1.0  0.07080  0.67619  0.84140  1.0000
  H   H3194     1.0  0.09168  0.67867  0.82316  1.0000
  H   H3195     1.0  0.11429  0.52488  0.88588  1.0000
  H   H3196     1.0  0.03797  0.65072  0.81827  1.0000
  C   C1880     1.0  0.09553  0.57375  0.90193  1.0000
  H   H3197     1.0  0.07045  0.58178  0.91734  1.0000
  C   C1881     1.0  0.18953  0.60340  0.83128  1.0000
  C   C1882     1.0  0.18029  0.59789  0.84267  1.0000
  C   C1883     1.0  0.17267  0.58924  0.84155  1.0000
  C   C1884     1.0  0.17434  0.58599  0.82904  1.0000
  C   C1885     1.0  0.18382  0.59119  0.81778  1.0000
  C   C1886     1.0  0.19138  0.59986  0.81889  1.0000
  H   H3198     1.0  0.17885  0.60053  0.85233  1.0000
  H   H3199     1.0  0.16545  0.58520  0.85033  1.0000
  H   H3200     1.0  0.18527  0.58862  0.80809  1.0000
  H   H3201     1.0  0.19865  0.60376  0.81013  1.0000
  C   C1887     1.0  0.23467  0.66668  0.82056  1.0000
  C   C1888     1.0  0.23858  0.67751  0.82275  1.0000
  C   C1889     1.0  0.23922  0.67781  0.83585  1.0000
  C   C1890     1.0  0.23664  0.66693  0.84666  1.0000
  C   C1891     1.0  0.23356  0.65572  0.84429  1.0000
  C   C1892     1.0  0.23227  0.65571  0.83133  1.0000
  H   H3202     1.0  0.24064  0.68593  0.81440  1.0000
  H   H3203     1.0  0.24181  0.68640  0.83757  1.0000
  H   H3204     1.0  0.23188  0.64713  0.85256  1.0000
  H   H3205     1.0  0.22945  0.64723  0.82966  1.0000
  C   C1893     1.0  0.17932  0.67767  0.78088  1.0000
  C   C1894     1.0  0.16548  0.68388  0.78480  1.0000
  C   C1895     1.0  0.16179  0.69718  0.78686  1.0000
  C   C1896     1.0  0.17192  0.70444  0.78450  1.0000
  C   C1897     1.0  0.18572  0.69844  0.78000  1.0000
  C   C1898     1.0  0.18946  0.68491  0.77855  1.0000
  H   H3206     1.0  0.15763  0.67829  0.78658  1.0000
  H   H3207     1.0  0.15110  0.70182  0.79026  1.0000
  H   H3208     1.0  0.19355  0.70407  0.77809  1.0000
  H   H3209     1.0  0.20017  0.68010  0.77550  1.0000
  C   C1899     1.0  0.26107  0.61906  0.76572  1.0000
  C   C1900     1.0  0.26902  0.61686  0.75299  1.0000
  H   H3210     1.0  0.05369  0.71974  0.83377  1.0000
  C   C1901     1.0  0.28883  0.62060  0.75804  1.0000
  C   C1902     1.0  0.28103  0.62232  0.77098  1.0000
  C   C1903     1.0  0.26708  0.62185  0.77471  1.0000
  H   H3211     1.0  0.19520  0.51522  0.82409  1.0000
  C   C1904     1.0  0.11465  0.62864  0.89504  1.0000
  H   H3212     1.0  0.28570  0.62424  0.77804  1.0000
  H   H3213     1.0  0.26102  0.62345  0.78460  1.0000
  N   N133      1.0  0.19306  0.65258  0.88477  1.0000
  C   C1905     1.0  0.20081  0.65842  0.87091  1.0000
  C   C1906     1.0  0.19502  0.65924  0.89492  1.0000
  C   C1907     1.0  0.17792  0.65532  0.88533  1.0000
  C   C1908     1.0  0.19850  0.63743  0.88794  1.0000
  C   C1909     1.0  0.19896  0.65389  0.85885  1.0000
  C   C1910     1.0  0.20943  0.65505  0.89805  1.0000
  C   C1911     1.0  0.17101  0.67026  0.88029  1.0000
  C   C1912     1.0  0.19182  0.62971  0.90195  1.0000
  H   H3214     1.0  0.19814  0.66973  0.86880  1.0000
  H   H3215     1.0  0.21202  0.65567  0.87047  1.0000
  H   H3216     1.0  0.18755  0.65739  0.90474  1.0000
  H   H3217     1.0  0.19282  0.67050  0.89144  1.0000
  H   H3218     1.0  0.17579  0.64900  0.87954  1.0000
  H   H3219     1.0  0.17218  0.65215  0.89595  1.0000
  H   H3220     1.0  0.19686  0.63271  0.88041  1.0000
  H   H3221     1.0  0.20987  0.63471  0.88667  1.0000
  H   H3222     1.0  0.20410  0.65985  0.84924  1.0000
  H   H3223     1.0  0.20400  0.64304  0.85892  1.0000
  H   H3224     1.0  0.18809  0.65572  0.85840  1.0000
  H   H3225     1.0  0.21759  0.65695  0.88882  1.0000
  H   H3226     1.0  0.20979  0.66130  0.90490  1.0000
  H   H3227     1.0  0.21181  0.64427  0.90344  1.0000
  H   H3228     1.0  0.15983  0.67108  0.88195  1.0000
  H   H3229     1.0  0.17485  0.67398  0.86928  1.0000
  H   H3230     1.0  0.17226  0.67709  0.88602  1.0000
  H   H3231     1.0  0.18260  0.62673  0.90134  1.0000
  H   H3232     1.0  0.18877  0.63556  0.91002  1.0000
  H   H3233     1.0  0.19935  0.62041  0.90542  1.0000
  N   N134      1.0  0.17250  0.67655  0.96579  1.0000
  H   H3234     1.0  0.24176  0.69099  0.74077  1.0000
  H   H3235     1.0  0.08726  0.58918  0.92505  1.0000
  H   H3236     1.0  0.20267  0.70341  0.84620  1.0000
  H   H3237     1.0  0.11789  0.52644  0.86002  1.0000
  H   H3238     1.0  0.17788  0.52893  0.85472  1.0000
  C   C1913     1.0  0.14185  0.63474  0.81183  1.0000
  H   H3239     1.0  0.14643  0.69917  0.95035  1.0000
  H   H3240     1.0  0.33273  0.61943  0.78250  1.0000
  H   H3241     1.0  0.10551  0.54299  0.82780  1.0000
  H   H3242     1.0  0.13313  0.63758  0.87446  1.0000
  H   H3243     1.0  0.08742  0.68110  0.87787  1.0000
  H   H3244     1.0  0.12786  0.71198  0.88123  1.0000
  C   C1914     1.0  0.34294  0.62777  0.75063  1.0000
  C   C1915     1.0  0.13635  0.49043  0.84338  1.0000
  H   H3245     1.0  0.06742  0.59957  0.91753  1.0000
  C   C1916     1.0  0.24023  0.66532  0.74026  1.0000
  C   C1917     1.0  0.19515  0.71632  0.82078  1.0000
  H   H3246     1.0  0.08685  0.53481  0.84492  1.0000
  C   C1918     1.0  0.09552  0.53565  0.84869  1.0000
  H   H3247     1.0  0.14527  0.65968  0.80950  1.0000
  S   S565      1.0  0.12714  0.72632  0.80044  1.0000
  N   N135      1.0  0.09710  0.52517  0.86164  1.0000
  C   C1919     1.0  0.17578  0.71358  0.86665  1.0000
  H   H3248     1.0  0.20950  0.51709  0.82860  1.0000
  H   H3249     1.0  0.07503  0.54886  0.86735  1.0000
  C   C1920     1.0  0.04837  0.62673  0.83311  1.0000
  C   C1921     1.0  0.34140  0.66728  0.76093  1.0000
  C   C1922     1.0  0.26988  0.65675  0.75882  1.0000
  C   C1923     1.0  0.02996  0.62657  0.82276  1.0000
  C   C1924     1.0  0.05886  0.63025  0.81971  1.0000
  H   H3250     1.0  0.32023  0.63052  0.76839  1.0000
  H   H3251     1.0  0.29986  0.70379  0.87221  1.0000
  H   H3252     1.0  0.15175  0.72311  0.75835  1.0000
  H   H3253     1.0  0.26927  0.65243  0.76985  1.0000
  C   C1925     1.0  0.10873  0.70372  0.91338  1.0000
  H   H3254     1.0  0.30341  0.65572  0.77977  1.0000
  H   H3255     1.0  0.08841  0.61175  0.87320  1.0000
  H   H3256     1.0  0.03437  0.65172  0.83561  1.0000
  H   H3257     1.0  0.00698  0.63063  0.88042  1.0000
  H   H3258     1.0  0.03330  0.63218  0.81217  1.0000
  H   H3259     1.0  0.03581  0.61584  0.82316  1.0000
  H   H3260     1.0  0.05630  0.62858  0.81083  1.0000
  H   H3261     1.0  0.06007  0.64084  0.81782  1.0000
  H   H3262     1.0  0.06911  0.62358  0.82061  1.0000
  H   H3263     1.0  0.09456  0.56584  0.88483  1.0000
  C   C1926     1.0  0.18468  0.68157  0.95609  1.0000
  C   C1927     1.0  0.09899  0.60655  0.87443  1.0000
  H   H3264     1.0  0.02760  0.63385  0.85383  1.0000
  S   S566      1.0  0.11578  0.72330  0.83361  1.0000
  H   H3265     1.0  0.11155  0.52521  0.83360  1.0000
  H   H3266     1.0  0.33780  0.67853  0.75899  1.0000
  H   H3267     1.0  0.35274  0.64190  0.75356  1.0000
  H   H3268     1.0  0.20583  0.71766  0.81621  1.0000
  H   H3269     1.0  0.25356  0.64755  0.75980  1.0000
  H   H3270     1.0  0.16858  0.66022  0.80948  1.0000
  Fe  Fe283     1.0  0.13822  0.63851  0.94628  1.0000
  H   H3271     1.0  0.15717  0.66654  0.82362  1.0000
  S   S567      1.0  0.12738  0.62817  0.93727  1.0000
  H   H3272     1.0  0.17112  0.62729  0.82368  1.0000
  H   H3273     1.0  0.16770  0.64969  0.82641  1.0000
  N   N136      1.0  0.15402  0.63807  0.81430  1.0000
  H   H3274     1.0  0.28878  0.61642  0.73910  1.0000
  H   H3275     1.0  0.13113  0.65082  0.88279  1.0000
  H   H3276     1.0  0.17966  0.50506  0.86017  1.0000
  H   H3277     1.0  0.14177  0.65256  0.82696  1.0000
  H   H3278     1.0  0.15995  0.63107  0.84454  1.0000
  H   H3279     1.0  0.17837  0.62750  0.78618  1.0000
  H   H3280     1.0  0.28192  0.71107  0.87476  1.0000
  H   H3281     1.0  0.05733  0.59350  0.91006  1.0000
  C   C1928     1.0  0.19917  0.54125  0.83538  1.0000
  H   H3282     1.0  0.18195  0.70786  0.87393  1.0000
  N   N137      1.0  0.19096  0.53185  0.83444  1.0000
  H   H3283     1.0  0.11146  0.67008  0.88166  1.0000
  H   H3284     1.0  0.11801  0.50960  0.87967  1.0000
  H   H3285     1.0  0.18460  0.64801  0.97532  1.0000
  H   H3286     1.0  0.31425  0.64656  0.75875  1.0000
  H   H3287     1.0  0.18291  0.55714  0.84424  1.0000
  H   H3288     1.0  0.19962  0.55623  0.84595  1.0000
  H   H3289     1.0  0.33424  0.71890  0.88361  1.0000
  H   H3290     1.0  0.24802  0.66439  0.76211  1.0000
  H   H3291     1.0  0.34913  0.66489  0.75172  1.0000
  N   N138      1.0  0.25508  0.66263  0.74095  1.0000
  C   C1929     1.0  0.02520  0.62878  0.84702  1.0000
  C   C1930     1.0  0.31872  0.64151  0.76783  1.0000
  C   C1931     1.0  0.09995  0.59149  0.88182  1.0000
  H   H3292     1.0  0.18091  0.54870  0.82044  1.0000
  H   H3293     1.0  0.05066  0.61543  0.83603  1.0000
  C   C1932     1.0  0.09772  0.59002  0.91919  1.0000
  H   H3294     1.0  0.00898  0.65368  0.83653  1.0000
  H   H3295     1.0  0.29722  0.72482  0.91861  1.0000
  H   H3296     1.0  0.08756  0.49904  0.87258  1.0000
  H   H3297     1.0  0.11192  0.73281  0.88915  1.0000
  H   H3298     1.0  0.06751  0.53973  0.88341  1.0000
  C   C1933     1.0  0.07737  0.54024  0.87587  1.0000
  H   H3299     1.0  0.19441  0.67422  0.95776  1.0000
  N   N139      1.0  0.19425  0.70184  0.82240  1.0000
  C   C1934     1.0  0.17992  0.70031  0.82979  1.0000
  H   H3300     1.0  0.28274  0.72674  0.88706  1.0000
  C   C1935     1.0  0.20470  0.69256  0.83022  1.0000
  C   C1936     1.0  0.19728  0.69813  0.80881  1.0000
  C   C1937     1.0  0.17750  0.68577  0.83344  1.0000
  C   C1938     1.0  0.09832  0.69493  0.92195  1.0000
  C   C1939     1.0  0.20206  0.69336  0.84522  1.0000
  C   C1940     1.0  0.21039  0.70172  0.79865  1.0000
  H   H3301     1.0  0.17681  0.70422  0.83925  1.0000
  H   H3302     1.0  0.17234  0.70665  0.82364  1.0000
  H   H3303     1.0  0.28526  0.72448  0.90949  1.0000
  H   H3304     1.0  0.09292  0.54613  0.85045  1.0000
  H   H3305     1.0  0.20603  0.68175  0.82984  1.0000
  H   H3306     1.0  0.21492  0.69493  0.82546  1.0000
  H   H3307     1.0  0.19827  0.68702  0.81006  1.0000
  H   H3308     1.0  0.18853  0.70331  0.80380  1.0000
  H   H3309     1.0  0.17861  0.68200  0.82420  1.0000
  H   H3310     1.0  0.18435  0.67852  0.83986  1.0000
  H   H3311     1.0  0.16680  0.68594  0.83937  1.0000
  C   C1941     1.0  0.30705  0.72234  0.89791  1.0000
  H   H3312     1.0  0.10271  0.61229  0.87951  1.0000
  H   H3313     1.0  0.10566  0.53886  0.86752  1.0000
  C   C1942     1.0  0.99828  0.64814  0.86663  1.0000
  H   H3314     1.0  0.19217  0.69093  0.85136  1.0000
  H   H3315     1.0  0.23348  0.67137  0.74784  1.0000
  H   H3316     1.0  0.21465  0.69417  0.79205  1.0000
  C   C1943     1.0  0.03133  0.64767  0.82840  1.0000
  H   H3317     1.0  0.07367  0.59210  0.88993  1.0000
  N   N140      1.0  0.11279  0.70397  0.89833  1.0000
  H   H3318     1.0  0.03726  0.60973  0.85701  1.0000
  C   C1944     1.0  0.12414  0.71164  0.89224  1.0000
  C   C1945     1.0  0.11787  0.68940  0.89656  1.0000
  H   H3319     1.0  0.08477  0.72635  0.84245  1.0000
  H   H3320     1.0  0.05096  0.63018  0.84103  1.0000
  H   H3321     1.0  0.19240  0.69991  0.94657  1.0000
  C   C1946     1.0  0.12917  0.68659  0.88385  1.0000
  S   S568      1.0  0.21435  0.71950  0.88544  1.0000
  H   H3322     1.0  0.11800  0.69995  0.91787  1.0000
  H   H3323     1.0  0.16415  0.69497  0.94233  1.0000
  C   C1947     1.0  0.34214  0.64166  0.75349  1.0000
  H   H3324     1.0  0.13325  0.70628  0.89672  1.0000
  H   H3325     1.0  0.12238  0.68284  0.90522  1.0000
  H   H3326     1.0  0.10919  0.68501  0.89687  1.0000
  C   C1948     1.0  0.13602  0.65355  0.97758  1.0000
  H   H3327     1.0  0.24517  0.72517  0.89919  1.0000
  H   H3328     1.0  0.19368  0.65322  0.95789  1.0000
  C   C1949     1.0  0.11026  0.51917  0.88098  1.0000
  H   H3329     1.0  0.23888  0.64710  0.73448  1.0000
  H   H3330     1.0  0.19264  0.71901  0.83084  1.0000
  H   H3331     1.0  0.11293  0.50900  0.85395  1.0000
  C   C1950     1.0  0.23442  0.65260  0.74290  1.0000
  H   H3332     1.0  0.13160  0.67561  0.88380  1.0000
  H   H3333     1.0  0.13888  0.68887  0.88405  1.0000
  H   H3334     1.0  0.12616  0.69228  0.87423  1.0000
  H   H3335     1.0  0.09695  0.51099  0.84998  1.0000
  C   C1951     1.0  0.32892  0.66083  0.76396  1.0000
  H   H3336     1.0  0.07836  0.56889  0.89699  1.0000
  C   C1952     1.0  0.06783  0.59227  0.91145  1.0000
  H   H3337     1.0  0.10403  0.71411  0.91533  1.0000
  C   C1953     1.0  0.28277  0.61796  0.74902  1.0000
  H   H3338     1.0  0.10952  0.59552  0.89930  1.0000
  H   H3339     1.0  0.07568  0.60625  0.89407  1.0000
  C   C1954     1.0  0.08322  0.52655  0.87129  1.0000
  H   H3340     1.0  0.15339  0.73430  0.84075  1.0000
  H   H3341     1.0  0.33927  0.71588  0.86686  1.0000
  C   C1955     1.0  0.09073  0.72736  0.80070  1.0000
  H   H3342     1.0  0.19256  0.69419  0.96438  1.0000
  C   C1956     1.0  0.20485  0.53055  0.81001  1.0000
  C   C1957     1.0  0.10254  0.71312  0.87689  1.0000
  H   H3343     1.0  0.34635  0.66437  0.76969  1.0000
  H   H3344     1.0  0.31034  0.71125  0.90210  1.0000
  C   C1958     1.0  0.10172  0.51128  0.85815  1.0000
  C   C1959     1.0  0.09842  0.59585  0.90389  1.0000
  C   C1960     1.0  0.15623  0.71673  0.85693  1.0000
  C   C1961     1.0  0.08965  0.56553  0.89569  1.0000
  H   H3345     1.0  0.10496  0.57998  0.92090  1.0000
  H   H3346     1.0  0.31914  0.70608  0.87997  1.0000
  N   N141      1.0  0.09261  0.58895  0.89658  1.0000
  H   H3347     1.0  0.18488  0.68188  0.94539  1.0000
  C   C1962     1.0  0.29461  0.72809  0.90848  1.0000
  H   H3348     1.0  0.11105  0.58651  0.88075  1.0000
  H   H3349     1.0  0.09560  0.72090  0.89522  1.0000
  C   C1963     1.0  0.16407  0.70951  0.86658  1.0000
  H   H3350     1.0  0.20129  0.54867  0.82559  1.0000
  H   H3351     1.0  0.21087  0.52294  0.80377  1.0000
  C   C1964     1.0  0.17954  0.72496  0.85717  1.0000
  Fe  Fe284     1.0  0.31318  0.63182  0.73147  1.0000
  C   C1965     1.0  0.29211  0.71345  0.87294  1.0000
  C   C1966     1.0  0.12915  0.63426  0.82365  1.0000
  H   H3352     1.0  0.26443  0.61457  0.74606  1.0000
  H   H3353     1.0  0.16218  0.66047  0.96826  1.0000
  C   C1967     1.0  0.18390  0.50942  0.84937  1.0000
  C   C1968     1.0  0.10871  0.64514  0.86723  1.0000
  H   H3354     1.0  0.14479  0.48918  0.87292  1.0000
  H   H3355     1.0  0.16109  0.64777  0.79327  1.0000
  H   H3356     1.0  0.15837  0.69611  0.96757  1.0000
  C   C1969     1.0  0.14753  0.73371  0.75984  1.0000
  H   H3357     1.0  0.33968  0.64922  0.74424  1.0000
  H   H3358     1.0  0.17431  0.64048  0.80251  1.0000
  H   H3359     1.0  0.12951  0.65771  0.97033  1.0000
  Fe  Fe285     1.0  0.13779  0.71803  0.83491  1.0000
  C   C1970     1.0  0.12821  0.64850  0.87437  1.0000
  C   C1971     1.0  0.10675  0.66601  0.87580  1.0000
  H   H3360     1.0  0.19541  0.52068  0.85403  1.0000
  H   H3361     1.0  0.17158  0.54635  0.83714  1.0000
  C   C1972     1.0  0.10772  0.52796  0.86713  1.0000
  H   H3362     1.0  0.10880  0.64891  0.89869  1.0000
  H   H3363     1.0  0.13472  0.65344  0.85210  1.0000
  H   H3364     1.0  0.16042  0.61684  0.82364  1.0000
  H   H3365     1.0  0.13121  0.62551  0.83213  1.0000
  H   H3366     1.0  0.12083  0.63258  0.82001  1.0000
  H   H3367     1.0  0.17694  0.70307  0.95852  1.0000
  H   H3368     1.0  0.11690  0.53754  0.83903  1.0000
  C   C1973     1.0  0.30748  0.64466  0.78042  1.0000
  C   C1974     1.0  0.10764  0.64377  0.89121  1.0000
  C   C1975     1.0  0.12066  0.72652  0.89373  1.0000
  H   H3369     1.0  0.10910  0.67191  0.86521  1.0000
  C   C1976     1.0  0.16908  0.53320  0.82638  1.0000
  H   H3370     1.0  0.16170  0.52973  0.83578  1.0000
  H   H3371     1.0  0.17470  0.52455  0.82148  1.0000
  H   H3372     1.0  0.16320  0.54039  0.81896  1.0000
  H   H3373     1.0  0.08859  0.66781  0.89239  1.0000
  C   C1977     1.0  0.16018  0.62707  0.82500  1.0000
  H   H3374     1.0  0.10559  0.60697  0.86403  1.0000
  H   H3375     1.0  0.09644  0.64420  0.89327  1.0000
  C   C1978     1.0  0.14991  0.65198  0.81762  1.0000
  H   H3376     1.0  0.13195  0.66771  0.85999  1.0000
  H   H3377     1.0  0.10534  0.70338  0.87356  1.0000
  C   C1979     1.0  0.16472  0.63887  0.80111  1.0000
  H   H3378     1.0  0.11437  0.65967  0.84772  1.0000
  H   H3379     1.0  0.16120  0.62546  0.79009  1.0000
  H   H3380     1.0  0.08541  0.66476  0.87756  1.0000
  H   H3381     1.0  0.12474  0.62772  0.89713  1.0000
  C   C1980     1.0  0.13553  0.65655  0.86102  1.0000
  N   N142      1.0  0.33205  0.64552  0.76608  1.0000
  H   H3382     1.0  0.11597  0.62303  0.88707  1.0000
  H   H3383     1.0  0.17231  0.61677  0.80191  1.0000
  H   H3384     1.0  0.10403  0.64879  0.84741  1.0000
  C   C1981     1.0  0.29246  0.71906  0.88497  1.0000
  H   H3385     1.0  0.14471  0.62456  0.80925  1.0000
  S   S569      1.0  0.19506  0.72935  0.85562  1.0000
  H   H3386     1.0  0.21869  0.70146  0.80342  1.0000
  C   C1982     1.0  0.15961  0.72845  0.84793  1.0000
  H   H3387     1.0  0.14666  0.65414  0.86092  1.0000
  H   H3388     1.0  0.10846  0.62362  0.90455  1.0000
  H   H3389     1.0  0.09917  0.64126  0.87219  1.0000
  C   C1983     1.0  0.34054  0.62400  0.78370  1.0000
  C   C1984     1.0  0.07753  0.59500  0.89738  1.0000
  N   N143      1.0  0.30474  0.72470  0.88379  1.0000
  H   H3390     1.0  0.10398  0.48951  0.86574  1.0000
  C   C1985     1.0  0.17120  0.73260  0.84810  1.0000
  C   C1986     1.0  0.99894  0.63506  0.87481  1.0000
  C   C1987     1.0  0.14268  0.49338  0.86289  1.0000
  H   H3391     1.0  0.10680  0.56954  0.90043  1.0000
  C   C1988     1.0  0.19251  0.54992  0.84627  1.0000
  C   C1989     1.0  0.02742  0.61347  0.85361  1.0000
  H   H3392     1.0  0.17139  0.66556  0.95146  1.0000
  H   H3393     1.0  0.09160  0.57099  0.91305  1.0000
  H   H3394     1.0  0.09221  0.70487  0.89679  1.0000
  H   H3395     1.0  0.29152  0.71035  0.89385  1.0000
  H   H3396     1.0  0.33980  0.62163  0.79484  1.0000
  H   H3397     1.0  0.19605  0.53649  0.80534  1.0000
  N   N144      1.0  0.03340  0.63241  0.83272  1.0000
  H   H3398     1.0  0.00707  0.63406  0.82975  1.0000
  H   H3399     1.0  0.34846  0.64190  0.77637  1.0000
  H   H3400     1.0  0.10108  0.59689  0.92335  1.0000
  C   C1990     1.0  0.20012  0.52302  0.82476  1.0000
  H   H3401     1.0  0.21026  0.68581  0.84983  1.0000
  C   C1991     1.0  0.33820  0.63954  0.77842  1.0000
  H   H3402     1.0  0.35164  0.62588  0.74188  1.0000
  H   H3403     1.0  0.09336  0.60685  0.90270  1.0000
  H   H3404     1.0  0.32183  0.66433  0.77305  1.0000
  H   H3405     1.0  0.01391  0.65397  0.81840  1.0000
  S   S570      1.0  0.14493  0.63045  0.96655  1.0000
  H   H3406     1.0  0.16133  0.70056  0.87372  1.0000
  C   C1992     1.0  0.10586  0.65472  0.85376  1.0000
  C   C1993     1.0  0.16162  0.65723  0.81939  1.0000
  H   H3407     1.0  0.09599  0.58690  0.87581  1.0000
  C   C1994     1.0  0.16925  0.62631  0.79464  1.0000
  H   H3408     1.0  0.32808  0.69262  0.73351  1.0000
  H   H3409     1.0  0.09979  0.71872  0.79996  1.0000
  C   C1995     1.0  0.18703  0.52322  0.84846  1.0000
  C   C1996     1.0  0.25267  0.68759  0.74155  1.0000
  C   C1997     1.0  0.18562  0.72732  0.81239  1.0000
  H   H3410     1.0  0.32354  0.66568  0.75542  1.0000
  H   H3411     1.0  0.08816  0.69887  0.91926  1.0000
  H   H3412     1.0  0.09636  0.66266  0.85559  1.0000
  C   C1998     1.0  0.17838  0.54054  0.82946  1.0000
  H   H3413     1.0  0.01288  0.61598  0.83044  1.0000
  H   H3414     1.0  0.34470  0.61919  0.75926  1.0000
  H   H3415     1.0  0.07556  0.52495  0.86664  1.0000
  C   C1999     1.0  0.10821  0.53510  0.83674  1.0000
  H   H3416     1.0  0.35090  0.61883  0.77879  1.0000
  H   H3417     1.0  0.09190  0.55468  0.90097  1.0000
  H   H3418     1.0  0.15362  0.68248  0.94738  1.0000
  C   C2000     1.0  0.01472  0.62618  0.82482  1.0000
  H   H3419     1.0  0.31102  0.63982  0.79001  1.0000
  C   C2001     1.0  0.01677  0.65574  0.82707  1.0000
  H   H3420     1.0  0.33215  0.64448  0.78706  1.0000
  H   H3421     1.0  0.09274  0.71883  0.87385  1.0000
  H   H3422     1.0  0.01912  0.61184  0.86283  1.0000
  H   H3423     1.0  0.29355  0.72069  0.86306  1.0000
  H   H3424     1.0  0.19337  0.50198  0.84595  1.0000
  C   C2002     1.0  0.10030  0.71085  0.89242  1.0000
  H   H3425     1.0  0.08429  0.54243  0.88092  1.0000
  S   S571      1.0  0.34761  0.70757  0.73273  1.0000
  H   H3426     1.0  0.01405  0.63263  0.84771  1.0000
  H   H3427     1.0  0.11877  0.72730  0.90445  1.0000
  H   H3428     1.0  0.02713  0.60726  0.84675  1.0000
  H   H3429     1.0  0.27844  0.64988  0.75333  1.0000
  H   H3430     1.0  0.15039  0.68237  0.97174  1.0000
  H   H3431     1.0  0.08323  0.51857  0.88073  1.0000
  H   H3432     1.0  0.08187  0.72375  0.80028  1.0000
  C   C2003     1.0  0.25595  0.65778  0.75568  1.0000
  H   H3433     1.0  0.01653  0.66678  0.82495  1.0000
  H   H3434     1.0  0.10255  0.49813  0.87864  1.0000
  H   H3435     1.0  0.23608  0.64551  0.75257  1.0000
  H   H3436     1.0  0.27236  0.66684  0.75669  1.0000
  H   H3437     1.0  0.09666  0.69516  0.93282  1.0000
  S   S572      1.0  0.25348  0.72382  0.87037  1.0000
  H   H3438     1.0  0.31544  0.72702  0.89779  1.0000
  H   H3439     1.0  0.22315  0.65575  0.74366  1.0000
  H   H3440     1.0  0.17467  0.72803  0.81758  1.0000
  H   H3441     1.0  0.25761  0.69630  0.73626  1.0000
  H   H3442     1.0  0.18725  0.72576  0.80199  1.0000
  C   C2004     1.0  0.25088  0.73293  0.89369  1.0000
  H   H3443     1.0  0.01244  0.62761  0.81473  1.0000
  H   H3444     1.0  0.25326  0.68527  0.75235  1.0000
  C   C2005     1.0  0.26394  0.65182  0.73334  1.0000
  H   H3445     1.0  0.12968  0.73102  0.88815  1.0000
  C   C2006     1.0  0.17180  0.66376  0.96229  1.0000
  H   H3446     1.0  0.27485  0.65003  0.73381  1.0000
  C   C2007     1.0  0.18375  0.65135  0.96455  1.0000
  C   C2008     1.0  0.26022  0.67550  0.73462  1.0000
  H   H3447     1.0  0.26134  0.64177  0.73824  1.0000
  H   H3448     1.0  0.06608  0.73040  0.84715  1.0000
  C   C2009     1.0  0.14481  0.64071  0.97755  1.0000
  H   H3449     1.0  0.06489  0.71485  0.81891  1.0000
  C   C2010     1.0  0.06358  0.72094  0.82650  1.0000
  H   H3450     1.0  0.33029  0.73247  0.86929  1.0000
  C   C2011     1.0  0.07546  0.73457  0.84365  1.0000
  C   C2012     1.0  0.13906  0.48520  0.85638  1.0000
  H   H3451     1.0  0.23838  0.67175  0.73030  1.0000
  Fe  Fe286     1.0  0.33859  0.93834  0.13872  1.0000
  S   S573      1.0  0.34534  0.95009  0.11755  1.0000
  S   S574      1.0  0.31627  0.93727  0.14668  1.0000
  Fe  Fe287     1.0  0.36743  0.92962  0.14350  1.0000
  S   S575      1.0  0.37644  0.94069  0.12285  1.0000
  S   S576      1.0  0.38039  0.91532  0.15764  1.0000
  Fe  Fe288     1.0  0.35810  0.95773  0.12684  1.0000
  Fe  Fe289     1.0  0.36298  0.93209  0.11562  1.0000
  S   S577      1.0  0.37323  0.92055  0.09889  1.0000
  S   S578      1.0  0.34999  0.94722  0.14822  1.0000
  S   S579      1.0  0.35531  0.91983  0.13600  1.0000
  Fe  Fe290     1.0  0.35183  0.87598  0.06618  1.0000
  S   S580      1.0  0.35397  0.85893  0.08417  1.0000
  S   S581      1.0  0.34172  0.89675  0.07065  1.0000
  Fe  Fe291     1.0  0.36241  0.85693  0.04625  1.0000
  S   S582      1.0  0.36521  0.83825  0.06312  1.0000
  Fe  Fe292     1.0  0.34473  0.84835  0.07434  1.0000
  S   S583      1.0  0.32715  0.84048  0.08962  1.0000
  Fe  Fe293     1.0  0.37413  0.85056  0.07154  1.0000
  S   S584      1.0  0.39199  0.84020  0.08177  1.0000
  S   S585      1.0  0.34119  0.86610  0.05697  1.0000
  S   S586      1.0  0.37287  0.86851  0.05406  1.0000
  Fe  Fe294     1.0  0.46762  0.85724  0.11817  1.0000
  S   S587      1.0  0.45494  0.86402  0.13725  1.0000
  C   C2013     1.0  0.32363  0.88109  0.98215  1.0000
  Fe  Fe295     1.0  0.44299  0.86632  0.10441  1.0000
  S   S588      1.0  0.42877  0.87375  0.12249  1.0000
  S   S589      1.0  0.43378  0.87192  0.08595  1.0000
  Fe  Fe296     1.0  0.44583  0.88239  0.12311  1.0000
  S   S590      1.0  0.44177  0.90396  0.12501  1.0000
  Fe  Fe297     1.0  0.43914  0.85463  0.13466  1.0000
  S   S591      1.0  0.42573  0.84377  0.15269  1.0000
  S   S592      1.0  0.45949  0.87642  0.10412  1.0000
  S   S593      1.0  0.45245  0.84630  0.11653  1.0000
  H   H3452     1.0  0.20250  0.75229  0.09769  1.0000
  Fe  Fe298     1.0  0.29048  0.78318  0.11199  1.0000
  S   S594      1.0  0.29174  0.76177  0.12440  1.0000
  S   S595      1.0  0.30750  0.78742  0.09361  1.0000
  Fe  Fe299     1.0  0.26500  0.79481  0.13117  1.0000
  S   S596      1.0  0.26405  0.77443  0.14492  1.0000
  S   S597      1.0  0.24923  0.81219  0.13906  1.0000
  Fe  Fe300     1.0  0.28665  0.77150  0.14224  1.0000
  S   S598      1.0  0.29596  0.76469  0.16063  1.0000
  Fe  Fe301     1.0  0.26892  0.76637  0.12596  1.0000
  S   S599      1.0  0.25754  0.74980  0.12877  1.0000
  S   S600      1.0  0.28734  0.79243  0.12980  1.0000
  S   S601      1.0  0.26790  0.78720  0.11222  1.0000
  C   C2014     1.0  0.47084  0.92246  0.10771  1.0000
  H   H3453     1.0  0.30057  0.81306  0.99895  1.0000
  H   H3454     1.0  0.36408  0.74359  0.19531  1.0000
  H   H3455     1.0  0.26475  0.80563  0.16157  1.0000
  S   S602      1.0  0.37050  0.85649  0.02370  1.0000
  H   H3456     1.0  0.40076  0.86343  0.00610  1.0000
  H   H3457     1.0  0.31674  0.96898  0.14064  1.0000
  H   H3458     1.0  0.30206  0.80962  0.13650  1.0000
  H   H3459     1.0  0.32412  0.82496  0.16445  1.0000
  C   C2015     1.0  0.32283  0.80458  0.12576  1.0000
  H   H3460     1.0  0.47254  0.83207  0.13481  1.0000
  H   H3461     1.0  0.19730  0.76890  0.10111  1.0000
  C   C2016     1.0  0.47685  0.82111  0.13863  1.0000
  Fe  Fe302     1.0  0.28849  0.87015  0.17575  1.0000
  S   S603      1.0  0.26910  0.88148  0.16876  1.0000
  S   S604      1.0  0.30770  0.87731  0.17342  1.0000
  Fe  Fe303     1.0  0.27926  0.84321  0.18534  1.0000
  S   S605      1.0  0.25902  0.85225  0.17941  1.0000
  S   S606      1.0  0.28615  0.82065  0.19238  1.0000
  Fe  Fe304     1.0  0.27125  0.86317  0.16045  1.0000
  S   S607      1.0  0.27085  0.86293  0.13914  1.0000
  Fe  Fe305     1.0  0.25860  0.86952  0.18842  1.0000
  S   S608      1.0  0.23979  0.88029  0.20159  1.0000
  S   S609      1.0  0.29154  0.85294  0.16584  1.0000
  S   S610      1.0  0.27791  0.85947  0.19604  1.0000
  Fe  Fe306     1.0  0.38904  0.78835  0.15909  1.0000
  S   S611      1.0  0.38701  0.76741  0.15999  1.0000
  S   S612      1.0  0.40517  0.79714  0.14242  1.0000
  Fe  Fe307     1.0  0.36253  0.79362  0.18035  1.0000
  S   S613      1.0  0.35806  0.77325  0.18282  1.0000
  H   H3462     1.0  0.29237  0.87530  0.21394  1.0000
  Fe  Fe308     1.0  0.38057  0.76553  0.18261  1.0000
  C   C2017     1.0  0.36273  0.85111  0.98976  1.0000
  Fe  Fe309     1.0  0.36489  0.77714  0.16004  1.0000
  S   S614      1.0  0.35597  0.77456  0.14400  1.0000
  S   S615      1.0  0.38459  0.78576  0.18170  1.0000
  S   S616      1.0  0.36737  0.79816  0.15767  1.0000
  C   C2018     1.0  0.47418  0.90488  0.13485  1.0000
  H   H3463     1.0  0.44984  0.82138  0.14167  1.0000
  C   C2019     1.0  0.30214  0.81842  0.15795  1.0000
  H   H3464     1.0  0.45028  0.79602  0.16545  1.0000
  C   C2020     1.0  0.30351  0.81729  0.19283  1.0000
  C   C2021     1.0  0.31199  0.80445  0.19184  1.0000
  C   C2022     1.0  0.32607  0.80212  0.19133  1.0000
  C   C2023     1.0  0.33159  0.81256  0.19206  1.0000
  C   C2024     1.0  0.32304  0.82530  0.19325  1.0000
  C   C2025     1.0  0.30907  0.82771  0.19345  1.0000
  H   H3465     1.0  0.29269  0.86607  0.11110  1.0000
  H   H3466     1.0  0.47161  0.81706  0.12142  1.0000
  H   H3467     1.0  0.32728  0.83342  0.19374  1.0000
  H   H3468     1.0  0.30263  0.83767  0.19413  1.0000
  C   C2026     1.0  0.43351  0.82183  0.03633  1.0000
  H   H3469     1.0  0.48364  0.80603  0.16180  1.0000
  N   N145      1.0  0.46713  0.81538  0.15123  1.0000
  H   H3470     1.0  0.29346  0.92508  0.15036  1.0000
  H   H3471     1.0  0.21723  0.86427  0.19483  1.0000
  S   S617      1.0  0.38965  0.74763  0.19756  1.0000
  C   C2027     1.0  0.33215  0.81902  0.15757  1.0000
  C   C2028     1.0  0.36886  0.85379  0.99887  1.0000
  H   H3472     1.0  0.27282  0.92951  0.20387  1.0000
  H   H3473     1.0  0.30525  0.78725  0.99919  1.0000
  C   C2029     1.0  0.47479  0.80339  0.15996  1.0000
  H   H3474     1.0  0.28488  0.82167  0.14788  1.0000
  C   C2030     1.0  0.28811  0.82600  0.15463  1.0000
  C   C2031     1.0  0.32681  0.98220  0.15371  1.0000
  C   C2032     1.0  0.46058  0.82636  0.15933  1.0000
  H   H3475     1.0  0.30391  0.82416  0.16446  1.0000
  C   C2033     1.0  0.32119  0.97786  0.13458  1.0000
  C   C2034     1.0  0.25519  0.82651  0.13853  1.0000
  C   C2035     1.0  0.26625  0.83039  0.12841  1.0000
  C   C2036     1.0  0.27057  0.84202  0.12821  1.0000
  C   C2037     1.0  0.26440  0.84930  0.13859  1.0000
  C   C2038     1.0  0.25339  0.84536  0.14871  1.0000
  C   C2039     1.0  0.24858  0.83423  0.14845  1.0000
  H   H3476     1.0  0.27122  0.82465  0.12053  1.0000
  H   H3477     1.0  0.27883  0.84524  0.12013  1.0000
  H   H3478     1.0  0.24832  0.85113  0.15651  1.0000
  H   H3479     1.0  0.23977  0.83153  0.15603  1.0000
  C   C2040     1.0  0.31241  0.76794  0.15602  1.0000
  C   C2041     1.0  0.31994  0.76843  0.14266  1.0000
  C   C2042     1.0  0.33334  0.77046  0.13910  1.0000
  C   C2043     1.0  0.33914  0.77225  0.14883  1.0000
  C   C2044     1.0  0.33149  0.77209  0.16213  1.0000
  C   C2045     1.0  0.31812  0.76990  0.16574  1.0000
  H   H3480     1.0  0.31553  0.76703  0.13508  1.0000
  H   H3481     1.0  0.33919  0.77066  0.12876  1.0000
  H   H3482     1.0  0.33588  0.77360  0.16965  1.0000
  H   H3483     1.0  0.31221  0.76971  0.17605  1.0000
  C   C2046     1.0  0.25185  0.74470  0.11699  1.0000
  H   H3484     1.0  0.43162  0.82212  0.04714  1.0000
  H   H3485     1.0  0.34487  0.87724  0.11334  1.0000
  C   C2047     1.0  0.35441  0.73561  0.17118  1.0000
  C   C2048     1.0  0.24730  0.74737  0.09477  1.0000
  C   C2049     1.0  0.25303  0.75141  0.10333  1.0000
  H   H3486     1.0  0.35739  0.76055  0.22790  1.0000
  H   H3487     1.0  0.17900  0.87504  0.21163  1.0000
  H   H3488     1.0  0.45960  0.80498  0.14035  1.0000
  H   H3489     1.0  0.25815  0.75980  0.09944  1.0000
  C   C2050     1.0  0.36214  0.85335  0.01260  1.0000
  H   H3490     1.0  0.33240  0.97368  0.13142  1.0000
  H   H3491     1.0  0.26376  0.88072  0.21271  1.0000
  H   H3492     1.0  0.48338  0.85812  0.14042  1.0000
  H   H3493     1.0  0.48564  0.88150  0.12294  1.0000
  C   C2051     1.0  0.40973  0.81090  0.14511  1.0000
  C   C2052     1.0  0.41797  0.81833  0.13438  1.0000
  C   C2053     1.0  0.42248  0.82882  0.13650  1.0000
  C   C2054     1.0  0.41892  0.83179  0.14940  1.0000
  C   C2055     1.0  0.41030  0.82467  0.16002  1.0000
  C   C2056     1.0  0.40564  0.81428  0.15786  1.0000
  H   H3494     1.0  0.42103  0.81584  0.12446  1.0000
  H   H3495     1.0  0.42889  0.83442  0.12819  1.0000
  H   H3496     1.0  0.40749  0.82694  0.17002  1.0000
  H   H3497     1.0  0.39924  0.80862  0.16617  1.0000
  C   C2057     1.0  0.34303  0.84763  0.00799  1.0000
  C   C2058     1.0  0.34915  0.85031  0.01710  1.0000
  H   H3498     1.0  0.33301  0.84521  0.01163  1.0000
  H   H3499     1.0  0.34384  0.84992  0.02762  1.0000
  C   C2059     1.0  0.40248  0.84970  0.08396  1.0000
  C   C2060     1.0  0.41203  0.84328  0.09219  1.0000
  C   C2061     1.0  0.42123  0.85023  0.09337  1.0000
  C   C2062     1.0  0.42123  0.86354  0.08600  1.0000
  C   C2063     1.0  0.41158  0.87002  0.07788  1.0000
  C   C2064     1.0  0.40206  0.86321  0.07706  1.0000
  H   H3500     1.0  0.41249  0.83281  0.09751  1.0000
  H   H3501     1.0  0.42867  0.84512  0.09959  1.0000
  H   H3502     1.0  0.41155  0.88028  0.07208  1.0000
  H   H3503     1.0  0.39474  0.86827  0.07071  1.0000
  C   C2065     1.0  0.32141  0.82642  0.08910  1.0000
  C   C2066     1.0  0.32971  0.81656  0.08185  1.0000
  C   C2067     1.0  0.32528  0.80468  0.08307  1.0000
  C   C2068     1.0  0.31257  0.80268  0.09149  1.0000
  C   C2069     1.0  0.30411  0.81280  0.09830  1.0000
  C   C2070     1.0  0.30850  0.82463  0.09707  1.0000
  H   H3504     1.0  0.33964  0.81791  0.07560  1.0000
  H   H3505     1.0  0.33179  0.79693  0.07766  1.0000
  H   H3506     1.0  0.29410  0.81159  0.10440  1.0000
  H   H3507     1.0  0.30182  0.83241  0.10233  1.0000
  H   H3508     1.0  0.38630  0.78516  0.09248  1.0000
  C   C2071     1.0  0.39781  0.91258  0.14948  1.0000
  C   C2072     1.0  0.40339  0.92324  0.14048  1.0000
  C   C2073     1.0  0.41719  0.92075  0.13350  1.0000
  C   C2074     1.0  0.42525  0.90751  0.13520  1.0000
  C   C2075     1.0  0.41977  0.89691  0.14443  1.0000
  C   C2076     1.0  0.40613  0.89949  0.15173  1.0000
  H   H3509     1.0  0.39712  0.93345  0.13905  1.0000
  H   H3510     1.0  0.42147  0.92900  0.12657  1.0000
  H   H3511     1.0  0.42603  0.88670  0.14599  1.0000
  H   H3512     1.0  0.40198  0.89130  0.15890  1.0000
  C   C2077     1.0  0.36382  0.91318  0.09250  1.0000
  C   C2078     1.0  0.35006  0.91903  0.09210  1.0000
  C   C2079     1.0  0.34330  0.91386  0.08545  1.0000
  C   C2080     1.0  0.35016  0.90262  0.07952  1.0000
  C   C2081     1.0  0.36370  0.89636  0.08050  1.0000
  C   C2082     1.0  0.37057  0.90175  0.08681  1.0000
  H   H3513     1.0  0.34484  0.92790  0.09638  1.0000
  H   H3514     1.0  0.33285  0.91879  0.08466  1.0000
  H   H3515     1.0  0.36903  0.88766  0.07600  1.0000
  H   H3516     1.0  0.38120  0.89713  0.08712  1.0000
  C   C2083     1.0  0.31381  0.92059  0.15397  1.0000
  C   C2084     1.0  0.32408  0.91052  0.15935  1.0000
  C   C2085     1.0  0.32203  0.89731  0.16523  1.0000
  C   C2086     1.0  0.30973  0.89402  0.16573  1.0000
  C   C2087     1.0  0.29944  0.90403  0.16029  1.0000
  C   C2088     1.0  0.30143  0.91734  0.15454  1.0000
  H   H3517     1.0  0.33351  0.91298  0.15926  1.0000
  H   H3518     1.0  0.33000  0.88963  0.16949  1.0000
  H   H3519     1.0  0.29004  0.90150  0.16040  1.0000
  N   N146      1.0  0.20540  0.76058  0.12701  1.0000
  C   C2089     1.0  0.21062  0.75094  0.13904  1.0000
  C   C2090     1.0  0.21591  0.76902  0.11953  1.0000
  C   C2091     1.0  0.20400  0.75229  0.11794  1.0000
  C   C2092     1.0  0.19165  0.76910  0.13244  1.0000
  H   H3520     1.0  0.31796  0.81022  0.99990  1.0000
  C   C2093     1.0  0.21919  0.77725  0.12786  1.0000
  H   H3521     1.0  0.48026  0.89576  0.09573  1.0000
  C   C2094     1.0  0.18460  0.78041  0.12209  1.0000
  H   H3522     1.0  0.22169  0.74622  0.13597  1.0000
  H   H3523     1.0  0.20995  0.75647  0.14694  1.0000
  H   H3524     1.0  0.21301  0.77635  0.11041  1.0000
  H   H3525     1.0  0.22576  0.76234  0.11548  1.0000
  H   H3526     1.0  0.21229  0.74291  0.11789  1.0000
  H   H3527     1.0  0.19424  0.74868  0.12190  1.0000
  H   H3528     1.0  0.18413  0.76257  0.13765  1.0000
  H   H3529     1.0  0.19205  0.77370  0.14066  1.0000
  H   H3530     1.0  0.35378  0.90312  0.98497  1.0000
  C   C2095     1.0  0.26441  0.88828  0.21805  1.0000
  H   H3531     1.0  0.28857  0.91722  0.19948  1.0000
  H   H3532     1.0  0.20991  0.78427  0.13230  1.0000
  H   H3533     1.0  0.22452  0.77054  0.13590  1.0000
  H   H3534     1.0  0.22642  0.78356  0.12102  1.0000
  H   H3535     1.0  0.25165  0.91450  0.20438  1.0000
  S   S618      1.0  0.49059  0.84847  0.11526  1.0000
  H   H3536     1.0  0.32220  0.96163  0.16038  1.0000
  H   H3537     1.0  0.17859  0.77630  0.11755  1.0000
  H   H3538     1.0  0.19172  0.78584  0.11396  1.0000
  H   H3539     1.0  0.17746  0.78839  0.12738  1.0000
  C   C2096     1.0  0.45570  0.81203  0.14742  1.0000
  C   C2097     1.0  0.48830  0.89127  0.10175  1.0000
  H   H3540     1.0  0.34252  0.75408  0.22930  1.0000
  H   H3541     1.0  0.04237  0.74712  0.18311  1.0000
  H   H3542     1.0  0.20296  0.85854  0.19395  1.0000
  H   H3543     1.0  0.25533  0.90022  0.19698  1.0000
  C   C2098     1.0  0.36713  0.73755  0.15959  1.0000
  H   H3544     1.0  0.21529  0.76053  0.09750  1.0000
  H   H3545     1.0  0.34789  0.74600  0.17123  1.0000
  H   H3546     1.0  0.43904  0.81273  0.16593  1.0000
  H   H3547     1.0  0.33751  0.82608  0.14920  1.0000
  C   C2099     1.0  0.17059  0.84550  0.22621  1.0000
  H   H3548     1.0  0.30633  0.83399  0.99170  1.0000
  C   C2100     1.0  0.18459  0.84847  0.21773  1.0000
  H   H3549     1.0  0.28296  0.79973  0.15723  1.0000
  H   H3550     1.0  0.33976  0.81258  0.16357  1.0000
  N   N147      1.0  0.31418  0.81653  0.14611  1.0000
  H   H3551     1.0  0.46361  0.89524  0.15461  1.0000
  H   H3552     1.0  0.37892  0.85610  0.99529  1.0000
  H   H3553     1.0  0.32351  0.81424  0.11824  1.0000
  H   H3554     1.0  0.30088  0.80837  0.16467  1.0000
  H   H3555     1.0  0.21023  0.86215  0.21918  1.0000
  H   H3556     1.0  0.24962  0.77100  0.17830  1.0000
  H   H3557     1.0  0.17955  0.89182  0.22365  1.0000
  S   S619      1.0  0.35894  0.98016  0.11959  1.0000
  H   H3558     1.0  0.29414  0.87563  0.12676  1.0000
  H   H3559     1.0  0.28974  0.79754  0.98502  1.0000
  H   H3560     1.0  0.31067  0.86668  0.12920  1.0000
  H   H3561     1.0  0.33312  0.79911  0.12756  1.0000
  C   C2101     1.0  0.24023  0.73676  0.09984  1.0000
  H   H3562     1.0  0.32172  0.78592  0.00270  1.0000
  H   H3563     1.0  0.05916  0.74222  0.17324  1.0000
  H   H3564     1.0  0.31233  0.79654  0.14599  1.0000
  H   H3565     1.0  0.32482  0.80087  0.16038  1.0000
  C   C2102     1.0  0.32674  0.80981  0.15202  1.0000
  H   H3566     1.0  0.33559  0.80563  0.14441  1.0000
  H   H3567     1.0  0.28017  0.82563  0.16423  1.0000
  C   C2103     1.0  0.31224  0.80670  0.13903  1.0000
  H   H3568     1.0  0.46290  0.92699  0.11578  1.0000
  C   C2104     1.0  0.34977  0.84798  0.99430  1.0000
  H   H3569     1.0  0.27224  0.92230  0.18525  1.0000
  H   H3570     1.0  0.47205  0.88358  0.14375  1.0000
  C   C2105     1.0  0.44530  0.80557  0.15932  1.0000
  H   H3571     1.0  0.31845  0.86245  0.10715  1.0000
  H   H3572     1.0  0.16252  0.85492  0.22700  1.0000
  C   C2106     1.0  0.32205  0.97021  0.16466  1.0000
  H   H3573     1.0  0.32384  0.87100  0.98922  1.0000
  N   N148      1.0  0.26180  0.79288  0.18961  1.0000
  C   C2107     1.0  0.26541  0.78327  0.20239  1.0000
  C   C2108     1.0  0.25161  0.78772  0.18568  1.0000
  C   C2109     1.0  0.25502  0.80661  0.19308  1.0000
  C   C2110     1.0  0.27484  0.79345  0.17876  1.0000
  C   C2111     1.0  0.27488  0.78739  0.20882  1.0000
  C   C2112     1.0  0.25620  0.77281  0.18403  1.0000
  C   C2113     1.0  0.24950  0.81798  0.18186  1.0000
  H   H3574     1.0  0.17145  0.87106  0.22915  1.0000
  H   H3575     1.0  0.25594  0.78185  0.21035  1.0000
  H   H3576     1.0  0.27082  0.77297  0.20042  1.0000
  H   H3577     1.0  0.24890  0.79395  0.17600  1.0000
  H   H3578     1.0  0.24170  0.78863  0.19336  1.0000
  H   H3579     1.0  0.24628  0.80571  0.20206  1.0000
  H   H3580     1.0  0.26224  0.81071  0.19603  1.0000
  H   H3581     1.0  0.28021  0.80070  0.17993  1.0000
  H   H3582     1.0  0.28205  0.78329  0.17984  1.0000
  H   H3583     1.0  0.27830  0.77877  0.21693  1.0000
  H   H3584     1.0  0.28424  0.78981  0.20135  1.0000
  H   H3585     1.0  0.26942  0.79611  0.21377  1.0000
  H   H3586     1.0  0.34052  0.89434  0.99340  1.0000
  H   H3587     1.0  0.18304  0.85347  0.20729  1.0000
  C   C2114     1.0  0.31558  0.98265  0.12150  1.0000
  H   H3588     1.0  0.25718  0.92207  0.18043  1.0000
  H   H3589     1.0  0.24226  0.81523  0.17765  1.0000
  H   H3590     1.0  0.25800  0.82132  0.17370  1.0000
  H   H3591     1.0  0.20054  0.87494  0.19791  1.0000
  C   C2115     1.0  0.47053  0.83225  0.16336  1.0000
  C   C2116     1.0  0.20330  0.73913  0.14637  1.0000
  H   H3592     1.0  0.39681  0.77792  0.10926  1.0000
  H   H3593     1.0  0.24374  0.82703  0.18622  1.0000
  H   H3594     1.0  0.45406  0.83509  0.15358  1.0000
  N   N149      1.0  0.38012  0.86662  0.14580  1.0000
  C   C2117     1.0  0.38976  0.86413  0.15506  1.0000
  C   C2118     1.0  0.38577  0.85634  0.13686  1.0000
  C   C2119     1.0  0.36596  0.86504  0.15378  1.0000
  C   C2120     1.0  0.37909  0.88098  0.13756  1.0000
  C   C2121     1.0  0.38442  0.87172  0.16686  1.0000
  C   C2122     1.0  0.39871  0.85851  0.12573  1.0000
  C   C2123     1.0  0.36518  0.85100  0.16330  1.0000
  C   C2124     1.0  0.37012  0.88529  0.12693  1.0000
  H   H3595     1.0  0.39276  0.85312  0.15965  1.0000
  H   H3596     1.0  0.39961  0.86703  0.14918  1.0000
  H   H3597     1.0  0.37791  0.85575  0.13186  1.0000
  H   H3598     1.0  0.38854  0.84589  0.14306  1.0000
  H   H3599     1.0  0.36108  0.87299  0.15992  1.0000
  H   H3600     1.0  0.35902  0.86676  0.14682  1.0000
  H   H3601     1.0  0.37458  0.88842  0.14429  1.0000
  H   H3602     1.0  0.38938  0.88322  0.13249  1.0000
  H   H3603     1.0  0.37571  0.86805  0.17446  1.0000
  H   H3604     1.0  0.39278  0.86974  0.17227  1.0000
  H   H3605     1.0  0.38140  0.88289  0.16333  1.0000
  H   H3606     1.0  0.40719  0.85854  0.13011  1.0000
  H   H3607     1.0  0.40230  0.84991  0.12042  1.0000
  H   H3608     1.0  0.39666  0.86795  0.11792  1.0000
  H   H3609     1.0  0.36800  0.84284  0.15752  1.0000
  H   H3610     1.0  0.35442  0.85125  0.16914  1.0000
  H   H3611     1.0  0.37167  0.84823  0.17082  1.0000
  H   H3612     1.0  0.35927  0.88960  0.13149  1.0000
  H   H3613     1.0  0.37037  0.87696  0.12226  1.0000
  H   H3614     1.0  0.37408  0.89316  0.11838  1.0000
  N   N150      1.0  0.41672  0.91497  0.08789  1.0000
  C   C2125     1.0  0.40976  0.90825  0.08156  1.0000
  C   C2126     1.0  0.41723  0.90653  0.10198  1.0000
  C   C2127     1.0  0.43111  0.91479  0.07935  1.0000
  C   C2128     1.0  0.40856  0.92934  0.08795  1.0000
  C   C2129     1.0  0.40889  0.91463  0.06663  1.0000
  C   C2130     1.0  0.40328  0.90584  0.11198  1.0000
  C   C2131     1.0  0.44197  0.91574  0.08628  1.0000
  C   C2132     1.0  0.41268  0.93763  0.09559  1.0000
  H   H3615     1.0  0.41495  0.89735  0.08210  1.0000
  H   H3616     1.0  0.39907  0.90822  0.08725  1.0000
  H   H3617     1.0  0.42311  0.91007  0.10707  1.0000
  H   H3618     1.0  0.42290  0.89594  0.10132  1.0000
  H   H3619     1.0  0.43540  0.90517  0.07552  1.0000
  H   H3620     1.0  0.43104  0.92316  0.07014  1.0000
  H   H3621     1.0  0.40917  0.93545  0.07739  1.0000
  H   H3622     1.0  0.39740  0.92973  0.09182  1.0000
  H   H3623     1.0  0.41914  0.91473  0.05976  1.0000
  H   H3624     1.0  0.40404  0.90838  0.06318  1.0000
  H   H3625     1.0  0.40222  0.92500  0.06552  1.0000
  H   H3626     1.0  0.39692  0.91606  0.11306  1.0000
  H   H3627     1.0  0.39750  0.90005  0.10915  1.0000
  H   H3628     1.0  0.40510  0.90038  0.12221  1.0000
  H   H3629     1.0  0.43865  0.92431  0.09150  1.0000
  H   H3630     1.0  0.45147  0.91717  0.07846  1.0000
  H   H3631     1.0  0.44484  0.90612  0.09362  1.0000
  H   H3632     1.0  0.42070  0.94303  0.08885  1.0000
  H   H3633     1.0  0.41610  0.93156  0.10491  1.0000
  H   H3634     1.0  0.40350  0.94531  0.09921  1.0000
  C   C2133     1.0  0.31624  0.82993  0.13681  1.0000
  C   C2134     1.0  0.30636  0.83695  0.12713  1.0000
  H   H3635     1.0  0.31551  0.83740  0.14289  1.0000
  H   H3636     1.0  0.32686  0.82873  0.13036  1.0000
  H   H3637     1.0  0.31956  0.79812  0.12100  1.0000
  H   H3638     1.0  0.28783  0.83686  0.15024  1.0000
  H   H3639     1.0  0.29981  0.84658  0.12989  1.0000
  H   H3640     1.0  0.29959  0.83074  0.12675  1.0000
  H   H3641     1.0  0.31234  0.83971  0.11664  1.0000
  C   C2135     1.0  0.27223  0.90880  0.21589  1.0000
  H   H3642     1.0  0.41974  0.86400  0.04084  1.0000
  H   H3643     1.0  0.41081  0.81439  0.05126  1.0000
  H   H3644     1.0  0.41416  0.83594  0.05585  1.0000
  H   H3645     1.0  0.31810  0.74151  0.17655  1.0000
  C   C2136     1.0  0.42284  0.85328  0.04615  1.0000
  H   H3646     1.0  0.32799  0.74576  0.18594  1.0000
  H   H3647     1.0  0.19183  0.83854  0.21671  1.0000
  H   H3648     1.0  0.45357  0.82267  0.16898  1.0000
  H   H3649     1.0  0.43327  0.84861  0.04104  1.0000
  H   H3650     1.0  0.33784  0.97865  0.14896  1.0000
  C   C2137     1.0  0.31107  0.80698  0.99555  1.0000
  H   H3651     1.0  0.30775  0.79640  0.19121  1.0000
  H   H3652     1.0  0.48683  0.92338  0.11653  1.0000
  C   C2138     1.0  0.41213  0.84503  0.04769  1.0000
  H   H3653     1.0  0.48876  0.81882  0.11845  1.0000
  C   C2139     1.0  0.29493  0.88495  0.20747  1.0000
  H   H3654     1.0  0.28488  0.92258  0.21476  1.0000
  C   C2140     1.0  0.40692  0.85459  0.02538  1.0000
  H   H3655     1.0  0.36520  0.97604  0.14629  1.0000
  H   H3656     1.0  0.46447  0.84071  0.16851  1.0000
  C   C2141     1.0  0.20624  0.86419  0.19953  1.0000
  H   H3657     1.0  0.48139  0.78136  0.16314  1.0000
  H   H3658     1.0  0.31167  0.97349  0.17088  1.0000
  H   H3659     1.0  0.33262  0.79226  0.19043  1.0000
  H   H3660     1.0  0.40188  0.85092  0.05210  1.0000
  C   C2142     1.0  0.20494  0.85724  0.21470  1.0000
  H   H3661     1.0  0.46840  0.80079  0.17038  1.0000
  H   H3662     1.0  0.33515  0.74304  0.15733  1.0000
  N   N151      1.0  0.37676  0.80412  0.11010  1.0000
  C   C2143     1.0  0.37303  0.81768  0.11417  1.0000
  C   C2144     1.0  0.36353  0.80040  0.11094  1.0000
  C   C2145     1.0  0.38587  0.80536  0.09597  1.0000
  C   C2146     1.0  0.38414  0.79378  0.12035  1.0000
  C   C2147     1.0  0.38495  0.82243  0.11614  1.0000
  C   C2148     1.0  0.35370  0.81120  0.10271  1.0000
  C   C2149     1.0  0.38540  0.79593  0.08717  1.0000
  C   C2150     1.0  0.38863  0.77901  0.11853  1.0000
  H   H3663     1.0  0.36841  0.82594  0.10642  1.0000
  H   H3664     1.0  0.36506  0.81757  0.12385  1.0000
  H   H3665     1.0  0.35773  0.79844  0.12170  1.0000
  H   H3666     1.0  0.36538  0.79072  0.10769  1.0000
  H   H3667     1.0  0.38326  0.81582  0.08982  1.0000
  H   H3668     1.0  0.39678  0.80382  0.09642  1.0000
  H   H3669     1.0  0.39371  0.79648  0.12042  1.0000
  H   H3670     1.0  0.37753  0.79363  0.13073  1.0000
  H   H3671     1.0  0.39441  0.82040  0.10822  1.0000
  H   H3672     1.0  0.38200  0.83357  0.11561  1.0000
  H   H3673     1.0  0.38721  0.81748  0.12630  1.0000
  H   H3674     1.0  0.34611  0.80637  0.10133  1.0000
  H   H3675     1.0  0.34784  0.81944  0.10823  1.0000
  H   H3676     1.0  0.35905  0.81586  0.09250  1.0000
  H   H3677     1.0  0.39404  0.79641  0.07812  1.0000
  H   H3678     1.0  0.37583  0.79934  0.08332  1.0000
  H   H3679     1.0  0.37992  0.77487  0.11860  1.0000
  H   H3680     1.0  0.39311  0.77255  0.12725  1.0000
  C   C2151     1.0  0.40077  0.82144  0.05082  1.0000
  C   C2152     1.0  0.26024  0.90736  0.19909  1.0000
  H   H3681     1.0  0.27720  0.90282  0.22448  1.0000
  S   S620      1.0  0.34921  0.81020  0.19089  1.0000
  H   H3682     1.0  0.29678  0.91173  0.08865  1.0000
  H   H3683     1.0  0.31457  0.90624  0.08875  1.0000
  C   C2153     1.0  0.27998  0.92013  0.20786  1.0000
  H   H3684     1.0  0.25495  0.76566  0.19407  1.0000
  C   C2154     1.0  0.30496  0.90263  0.09110  1.0000
  H   H3685     1.0  0.30603  0.89589  0.08422  1.0000
  H   H3686     1.0  0.29033  0.89442  0.10846  1.0000
  H   H3687     1.0  0.29929  0.87999  0.14634  1.0000
  H   H3688     1.0  0.26698  0.77029  0.17836  1.0000
  H   H3689     1.0  0.47575  0.91306  0.13877  1.0000
  H   H3690     1.0  0.32936  0.88859  0.09864  1.0000
  C   C2155     1.0  0.48458  0.91587  0.11220  1.0000
  C   C2156     1.0  0.30099  0.89588  0.10627  1.0000
  C   C2157     1.0  0.31252  0.87249  0.10271  1.0000
  H   H3691     1.0  0.30027  0.90366  0.11195  1.0000
  H   H3692     1.0  0.31883  0.87534  0.09230  1.0000
  H   H3693     1.0  0.29308  0.87896  0.09554  1.0000
  H   H3694     1.0  0.33695  0.86476  0.11203  1.0000
  H   H3695     1.0  0.40235  0.82818  0.02933  1.0000
  N   N152      1.0  0.31063  0.88280  0.11105  1.0000
  C   C2158     1.0  0.32439  0.88578  0.10955  1.0000
  C   C2159     1.0  0.29920  0.86986  0.10119  1.0000
  H   H3696     1.0  0.32325  0.89481  0.11373  1.0000
  H   H3697     1.0  0.30196  0.86185  0.09522  1.0000
  C   C2160     1.0  0.30461  0.87703  0.12566  1.0000
  H   H3698     1.0  0.31293  0.88779  0.13599  1.0000
  H   H3699     1.0  0.29539  0.89537  0.13433  1.0000
  C   C2161     1.0  0.30310  0.88568  0.13596  1.0000
  H   H3700     1.0  0.42356  0.85360  0.05641  1.0000
  C   C2162     1.0  0.28371  0.89327  0.19959  1.0000
  H   H3701     1.0  0.32921  0.96619  0.17167  1.0000
  H   H3702     1.0  0.24214  0.89760  0.22082  1.0000
  H   H3703     1.0  0.39670  0.82556  0.06019  1.0000
  H   H3704     1.0  0.24751  0.85203  0.21519  1.0000
  C   C2163     1.0  0.33496  0.87404  0.11599  1.0000
  H   H3705     1.0  0.21873  0.88861  0.22396  1.0000
  H   H3706     1.0  0.33181  0.87159  0.12723  1.0000
  H   H3707     1.0  0.41598  0.85025  0.00488  1.0000
  H   H3708     1.0  0.41399  0.86153  0.02303  1.0000
  H   H3709     1.0  0.27272  0.78808  0.16077  1.0000
  H   H3710     1.0  0.37433  0.74100  0.16328  1.0000
  H   H3711     1.0  0.44469  0.82133  0.03238  1.0000
  H   H3712     1.0  0.43234  0.84160  0.02268  1.0000
  C   C2164     1.0  0.27335  0.79708  0.16390  1.0000
  H   H3713     1.0  0.27192  0.90864  0.17804  1.0000
  H   H3714     1.0  0.43138  0.81231  0.03555  1.0000
  C   C2165     1.0  0.42547  0.83435  0.02779  1.0000
  C   C2166     1.0  0.31108  0.79210  0.00305  1.0000
  N   N153      1.0  0.41166  0.84141  0.03489  1.0000
  C   C2167     1.0  0.23374  0.87116  0.21801  1.0000
  H   H3715     1.0  0.39671  0.86021  0.03024  1.0000
  N   N154      1.0  0.48503  0.90240  0.12220  1.0000
  H   H3716     1.0  0.42439  0.83073  0.01920  1.0000
  C   C2168     1.0  0.40575  0.85332  0.01145  1.0000
  H   H3717     1.0  0.47619  0.82462  0.17069  1.0000
  C   C2169     1.0  0.47305  0.89249  0.14683  1.0000
  C   C2170     1.0  0.48212  0.89174  0.11691  1.0000
  H   H3718     1.0  0.39355  0.81535  0.05093  1.0000
  C   C2171     1.0  0.18724  0.88200  0.22454  1.0000
  C   C2172     1.0  0.40112  0.83295  0.03798  1.0000
  H   H3719     1.0  0.14295  0.73944  0.22641  1.0000
  H   H3720     1.0  0.39925  0.84625  0.01233  1.0000
  H   H3721     1.0  0.30467  0.88205  0.20010  1.0000
  H   H3722     1.0  0.39055  0.83950  0.03924  1.0000
  C   C2173     1.0  0.18153  0.87115  0.22183  1.0000
  H   H3723     1.0  0.48175  0.88962  0.15194  1.0000
  C   C2174     1.0  0.48048  0.81452  0.12625  1.0000
  C   C2175     1.0  0.20477  0.75912  0.10278  1.0000
  H   H3724     1.0  0.47788  0.83659  0.15445  1.0000
  H   H3725     1.0  0.43795  0.80289  0.15512  1.0000
  H   H3726     1.0  0.19205  0.74265  0.14968  1.0000
  H   H3727     1.0  0.28843  0.90084  0.19131  1.0000
  H   H3728     1.0  0.46380  0.90857  0.13259  1.0000
  H   H3729     1.0  0.24816  0.75264  0.08424  1.0000
  C   C2176     1.0  0.30947  0.83554  0.98048  1.0000
  H   H3730     1.0  0.47085  0.89305  0.11839  1.0000
  H   H3731     1.0  0.46681  0.91522  0.10479  1.0000
  C   C2177     1.0  0.26591  0.91557  0.18498  1.0000
  H   H3732     1.0  0.19680  0.88386  0.21708  1.0000
  C   C2178     1.0  0.23921  0.85728  0.22207  1.0000
  H   H3733     1.0  0.28184  0.88647  0.19414  1.0000
  H   H3734     1.0  0.21131  0.84674  0.21490  1.0000
  H   H3735     1.0  0.35584  0.88651  0.98260  1.0000
  H   H3736     1.0  0.16713  0.83947  0.22114  1.0000
  N   N155      1.0  0.19057  0.85703  0.22297  1.0000
  C   C2179     1.0  0.05183  0.73889  0.18270  1.0000
  H   H3737     1.0  0.26209  0.91414  0.22109  1.0000
  H   H3738     1.0  0.05579  0.73805  0.19172  1.0000
  H   H3739     1.0  0.47237  0.93090  0.09873  1.0000
  N   N156      1.0  0.27034  0.89970  0.20799  1.0000
  C   C2180     1.0  0.22299  0.87786  0.22703  1.0000
  H   H3740     1.0  0.30617  0.79187  0.01396  1.0000
  S   S621      1.0  0.34150  0.84451  0.98332  1.0000
  H   H3741     1.0  0.49143  0.79023  0.14816  1.0000
  H   H3742     1.0  0.29710  0.89085  0.21358  1.0000
  H   H3743     1.0  0.48430  0.80340  0.12870  1.0000
  H   H3744     1.0  0.31791  0.97383  0.11666  1.0000
  H   H3745     1.0  0.29920  0.98263  0.15355  1.0000
  H   H3746     1.0  0.48675  0.82080  0.14096  1.0000
  C   C2181     1.0  0.48088  0.79025  0.15445  1.0000
  H   H3747     1.0  0.47455  0.78836  0.14860  1.0000
  H   H3748     1.0  0.32186  0.88869  0.98832  1.0000
  H   H3749     1.0  0.36419  0.74521  0.15063  1.0000
  C   C2182     1.0  0.24999  0.89247  0.22696  1.0000
  C   C2183     1.0  0.34821  0.89611  0.98369  1.0000
  C   C2184     1.0  0.32380  0.73763  0.18480  1.0000
  H   H3750     1.0  0.49269  0.91517  0.10284  1.0000
  H   H3751     1.0  0.49187  0.88044  0.10083  1.0000
  H   H3752     1.0  0.27114  0.88255  0.22528  1.0000
  Fe  Fe310     1.0  0.14903  0.78820  0.26540  1.0000
  S   S622      1.0  0.15397  0.76584  0.26659  1.0000
  S   S623      1.0  0.16577  0.79987  0.25744  1.0000
  Fe  Fe311     1.0  0.11951  0.78856  0.27984  1.0000
  S   S624      1.0  0.12181  0.76599  0.28233  1.0000
  S   S625      1.0  0.10090  0.80403  0.28739  1.0000
  Fe  Fe312     1.0  0.14164  0.76436  0.28788  1.0000
  S   S626      1.0  0.15126  0.74863  0.30394  1.0000
  Fe  Fe313     1.0  0.13393  0.76917  0.26061  1.0000
  C   C2185     1.0  0.19909  0.83634  0.24100  1.0000
  S   S627      1.0  0.13827  0.78650  0.28724  1.0000
  S   S628      1.0  0.13004  0.79196  0.25764  1.0000
  H   H3753     1.0  0.17239  0.74467  0.31801  1.0000
  Fe  Fe314     1.0  0.17481  0.77013  0.35548  1.0000
  H   H3754     1.0  0.18570  0.79205  0.27861  1.0000
  C   C2186     1.0  0.01205  0.83911  0.35632  1.0000
  Fe  Fe315     1.0  0.18570  0.77116  0.37923  1.0000
  S   S629      1.0  0.20764  0.76295  0.36964  1.0000
  S   S630      1.0  0.17859  0.77513  0.40038  1.0000
  Fe  Fe316     1.0  0.20231  0.77704  0.35052  1.0000
  S   S631      1.0  0.21586  0.78976  0.33474  1.0000
  C   C2187     1.0  0.07790  0.88751  0.38251  1.0000
  H   H3755     1.0  0.20987  0.79320  0.30661  1.0000
  S   S632      1.0  0.18105  0.78645  0.36064  1.0000
  C   C2188     1.0  0.17693  0.79339  0.31229  1.0000
  Fe  Fe317     1.0  0.16619  0.85979  0.28208  1.0000
  S   S633      1.0  0.18401  0.84458  0.28906  1.0000
  S   S634      1.0  0.14808  0.85344  0.28021  1.0000
  Fe  Fe318     1.0  0.17786  0.88368  0.28047  1.0000
  S   S635      1.0  0.19687  0.87054  0.28734  1.0000
  S   S636      1.0  0.17334  0.90637  0.27350  1.0000
  Fe  Fe319     1.0  0.19701  0.85782  0.27317  1.0000
  S   S637      1.0  0.21583  0.84726  0.25981  1.0000
  Fe  Fe320     1.0  0.18224  0.85852  0.30250  1.0000
  S   S638      1.0  0.18146  0.85023  0.32478  1.0000
  S   S639      1.0  0.17915  0.87189  0.26504  1.0000
  S   S640      1.0  0.16325  0.87282  0.29677  1.0000
  C   C2189     1.0  0.16997  0.92494  0.39794  1.0000
  Fe  Fe321     1.0  0.14531  0.94538  0.33289  1.0000
  S   S641      1.0  0.12379  0.95788  0.33745  1.0000
  S   S642      1.0  0.15760  0.94857  0.31144  1.0000
  Fe  Fe322     1.0  0.14414  0.93102  0.36212  1.0000
  S   S643      1.0  0.12259  0.94229  0.36892  1.0000
  S   S644      1.0  0.15615  0.91449  0.37579  1.0000
  Fe  Fe323     1.0  0.11888  0.93816  0.35055  1.0000
  S   S645      1.0  0.09985  0.93097  0.35180  1.0000
  Fe  Fe324     1.0  0.12980  0.96082  0.35531  1.0000
  S   S646      1.0  0.14001  0.92563  0.34468  1.0000
  S   S647      1.0  0.15172  0.94966  0.34976  1.0000
  Fe  Fe325     1.0  0.08180  0.83426  0.35140  1.0000
  S   S648      1.0  0.07725  0.85377  0.33630  1.0000
  S   S649      1.0  0.09249  0.81370  0.34638  1.0000
  Fe  Fe326     1.0  0.07033  0.84825  0.37542  1.0000
  S   S650      1.0  0.06469  0.86882  0.36215  1.0000
  S   S651      1.0  0.06488  0.84595  0.39814  1.0000
  Fe  Fe327     1.0  0.05682  0.85782  0.35117  1.0000
  Fe  Fe328     1.0  0.08544  0.86274  0.34879  1.0000
  S   S652      1.0  0.10318  0.87344  0.34077  1.0000
  S   S653      1.0  0.06102  0.83767  0.36549  1.0000
  S   S654      1.0  0.09144  0.84277  0.36286  1.0000
  Fe  Fe329     1.0  0.12808  0.86468  0.43388  1.0000
  S   S655      1.0  0.11687  0.85211  0.45207  1.0000
  S   S656      1.0  0.11877  0.88695  0.42877  1.0000
  Fe  Fe330     1.0  0.15009  0.84045  0.42640  1.0000
  S   S657      1.0  0.16709  0.83535  0.40846  1.0000
  Fe  Fe331     1.0  0.12092  0.83755  0.43858  1.0000
  S   S658      1.0  0.10491  0.82690  0.43874  1.0000
  S   S659      1.0  0.13028  0.85106  0.41999  1.0000
  S   S660      1.0  0.14886  0.85554  0.43870  1.0000
  C   C2190     1.0  0.07669  0.84107  0.40871  1.0000
  C   C2191     1.0  0.07201  0.83551  0.42242  1.0000
  C   C2192     1.0  0.08076  0.83144  0.43144  1.0000
  C   C2193     1.0  0.09418  0.83334  0.42703  1.0000
  C   C2194     1.0  0.09893  0.83917  0.41332  1.0000
  C   C2195     1.0  0.09023  0.84285  0.40409  1.0000
  H   H3756     1.0  0.06158  0.83412  0.42607  1.0000
  H   H3757     1.0  0.07707  0.82682  0.44195  1.0000
  H   H3758     1.0  0.10941  0.84037  0.40981  1.0000
  H   H3759     1.0  0.09392  0.84709  0.39348  1.0000
  C   C2196     1.0  0.14575  0.90703  0.39065  1.0000
  C   C2197     1.0  0.13280  0.91428  0.39613  1.0000
  C   C2198     1.0  0.12459  0.90814  0.40796  1.0000
  C   C2199     1.0  0.12927  0.89466  0.41425  1.0000
  C   C2200     1.0  0.14227  0.88741  0.40887  1.0000
  C   C2201     1.0  0.15060  0.89371  0.39724  1.0000
  H   H3760     1.0  0.12920  0.92471  0.39152  1.0000
  H   H3761     1.0  0.11461  0.91383  0.41220  1.0000
  H   H3762     1.0  0.14600  0.87702  0.41374  1.0000
  H   H3763     1.0  0.16080  0.88826  0.39333  1.0000
  C   C2202     1.0  0.10092  0.91466  0.34937  1.0000
  C   C2203     1.0  0.11351  0.90544  0.34684  1.0000
  C   C2204     1.0  0.11403  0.89273  0.34445  1.0000
  C   C2205     1.0  0.10197  0.88908  0.34474  1.0000
  C   C2206     1.0  0.08935  0.89817  0.34754  1.0000
  C   C2207     1.0  0.08885  0.91092  0.34982  1.0000
  H   H3764     1.0  0.12285  0.90814  0.34655  1.0000
  H   H3765     1.0  0.12383  0.88573  0.34229  1.0000
  H   H3766     1.0  0.07999  0.89549  0.34769  1.0000
  H   H3767     1.0  0.07906  0.91800  0.35178  1.0000
  H   H3768     1.0  0.20294  0.81958  0.27673  1.0000
  H   H3769     1.0  0.22035  0.77902  0.30010  1.0000
  H   H3770     1.0  0.19853  0.83323  0.25211  1.0000
  H   H3771     1.0  0.12596  0.89001  0.37128  1.0000
  S   S661      1.0  0.19576  0.76168  0.34389  1.0000
  H   H3772     1.0  0.19435  0.81047  0.30049  1.0000
  Fe  Fe332     1.0  0.13777  0.84191  0.45636  1.0000
  H   H3773     1.0  0.12256  0.81134  0.32547  1.0000
  H   H3774     1.0  0.15089  0.98234  0.34883  1.0000
  C   C2208     1.0  0.16909  0.91734  0.28481  1.0000
  C   C2209     1.0  0.16665  0.91276  0.29898  1.0000
  C   C2210     1.0  0.16280  0.92222  0.30746  1.0000
  C   C2211     1.0  0.16172  0.93616  0.30169  1.0000
  C   C2212     1.0  0.16428  0.94055  0.28757  1.0000
  C   C2213     1.0  0.16778  0.93123  0.27921  1.0000
  H   H3775     1.0  0.16775  0.90200  0.30336  1.0000
  H   H3776     1.0  0.16101  0.91875  0.31837  1.0000
  H   H3777     1.0  0.16353  0.95125  0.28306  1.0000
  H   H3778     1.0  0.16966  0.93482  0.26829  1.0000
  H   H3779     1.0  0.17136  0.92599  0.40766  1.0000
  C   C2214     1.0  0.34730  0.75892  0.23438  1.0000
  C   C2215     1.0  0.15962  0.96243  0.37939  1.0000
  H   H3780     1.0  0.15980  0.97297  0.40499  1.0000
  C   C2216     1.0  0.17579  0.79189  0.40234  1.0000
  C   C2217     1.0  0.17966  0.80226  0.39144  1.0000
  C   C2218     1.0  0.17704  0.81558  0.39339  1.0000
  C   C2219     1.0  0.17037  0.81860  0.40618  1.0000
  C   C2220     1.0  0.16648  0.80822  0.41701  1.0000
  C   C2221     1.0  0.16927  0.79490  0.41512  1.0000
  H   H3781     1.0  0.18484  0.79999  0.38158  1.0000
  H   H3782     1.0  0.18026  0.82352  0.38501  1.0000
  H   H3783     1.0  0.16163  0.81036  0.42695  1.0000
  H   H3784     1.0  0.16635  0.78690  0.42361  1.0000
  C   C2222     1.0  0.20738  0.80698  0.33223  1.0000
  C   C2223     1.0  0.20958  0.81543  0.31929  1.0000
  C   C2224     1.0  0.20174  0.82880  0.31697  1.0000
  C   C2225     1.0  0.19179  0.83376  0.32762  1.0000
  C   C2226     1.0  0.18997  0.82545  0.34064  1.0000
  C   C2227     1.0  0.19781  0.81213  0.34295  1.0000
  H   H3785     1.0  0.21722  0.81162  0.31102  1.0000
  H   H3786     1.0  0.20352  0.83530  0.30697  1.0000
  H   H3787     1.0  0.18247  0.82919  0.34898  1.0000
  H   H3788     1.0  0.19662  0.80592  0.35309  1.0000
  C   C2228     1.0  0.12789  0.88485  0.47355  1.0000
  H   H3789     1.0  0.14490  0.77111  0.39405  1.0000
  H   H3790     1.0  0.21013  0.83507  0.23599  1.0000
  H   H3791     1.0  0.10176  0.80120  0.39434  1.0000
  H   H3792     1.0  0.11946  0.74245  0.27091  1.0000
  H   H3793     1.0  0.08981  0.92111  0.39162  1.0000
  H   H3794     1.0  0.01097  0.87595  0.33562  1.0000
  C   C2229     1.0  0.10013  0.80695  0.30334  1.0000
  C   C2230     1.0  0.09440  0.82001  0.30597  1.0000
  C   C2231     1.0  0.09222  0.82226  0.31908  1.0000
  C   C2232     1.0  0.09562  0.81142  0.32967  1.0000
  C   C2233     1.0  0.10178  0.79843  0.32693  1.0000
  C   C2234     1.0  0.10412  0.79622  0.31378  1.0000
  H   H3795     1.0  0.09149  0.82837  0.29786  1.0000
  H   H3796     1.0  0.08769  0.83234  0.32101  1.0000
  H   H3797     1.0  0.10461  0.79002  0.33503  1.0000
  H   H3798     1.0  0.10853  0.78610  0.31183  1.0000
  C   C2235     1.0  0.15227  0.75660  0.31618  1.0000
  C   C2236     1.0  0.16400  0.75255  0.32158  1.0000
  C   C2237     1.0  0.16496  0.75887  0.33136  1.0000
  C   C2238     1.0  0.15416  0.76923  0.33576  1.0000
  C   C2239     1.0  0.14247  0.77335  0.33028  1.0000
  C   C2240     1.0  0.14155  0.76709  0.32045  1.0000
  H   H3799     1.0  0.13824  0.81939  0.39613  1.0000
  C   C2241     1.0  0.17897  0.79247  0.28886  1.0000
  H   H3800     1.0  0.13402  0.78128  0.33371  1.0000
  H   H3801     1.0  0.13242  0.77022  0.31636  1.0000
  C   C2242     1.0  0.16062  0.81523  0.26295  1.0000
  C   C2243     1.0  0.14676  0.82068  0.26786  1.0000
  C   C2244     1.0  0.14292  0.83272  0.27271  1.0000
  C   C2245     1.0  0.15294  0.83905  0.27309  1.0000
  C   C2246     1.0  0.16679  0.83362  0.26810  1.0000
  C   C2247     1.0  0.17060  0.82182  0.26288  1.0000
  H   H3802     1.0  0.13899  0.81567  0.26785  1.0000
  H   H3803     1.0  0.13217  0.83698  0.27639  1.0000
  H   H3804     1.0  0.17456  0.83854  0.26823  1.0000
  H   H3805     1.0  0.18126  0.81761  0.25900  1.0000
  C   C2248     1.0  0.13125  0.95710  0.39600  1.0000
  C   C2249     1.0  0.09147  0.89547  0.46692  1.0000
  C   C2250     1.0  0.14102  0.77847  0.40084  1.0000
  H   H3806     1.0  0.17991  0.80971  0.32014  1.0000
  H   H3807     1.0  0.08821  0.90486  0.47101  1.0000
  C   C2251     1.0  0.14035  0.80906  0.39400  1.0000
  H   H3808     1.0  0.10716  0.75922  0.25186  1.0000
  H   H3809     1.0  0.18165  0.96029  0.36996  1.0000
  S   S662      1.0  0.14080  0.82591  0.44444  1.0000
  H   H3810     1.0  0.99938  0.84088  0.38683  1.0000
  H   H3811     1.0  0.34058  0.76914  0.23505  1.0000
  H   H3812     1.0  0.10655  0.86535  0.40355  1.0000
  C   C2252     1.0  0.00100  0.84592  0.34997  1.0000
  H   H3813     1.0  0.10901  0.87541  0.38050  1.0000
  H   H3814     1.0  0.08456  0.87088  0.39771  1.0000
  C   C2253     1.0  0.01122  0.86571  0.34158  1.0000
  H   H3815     1.0  0.12586  0.88273  0.38876  1.0000
  H   H3816     1.0  0.13721  0.77301  0.41133  1.0000
  C   C2254     1.0  0.02267  0.84551  0.35524  1.0000
  H   H3817     1.0  0.18064  0.85203  0.24426  1.0000
  H   H3818     1.0  0.14744  0.96592  0.41835  1.0000
  H   H3819     1.0  0.07435  0.88534  0.40412  1.0000
  C   C2255     1.0  0.08306  0.88212  0.39582  1.0000
  S   S663      1.0  0.03661  0.86656  0.34405  1.0000
  H   H3820     1.0  0.14546  0.83469  0.30684  1.0000
  C   C2256     1.0  0.08720  0.91217  0.39004  1.0000
  H   H3821     1.0  0.10461  0.73564  0.27326  1.0000
  H   H3822     1.0  0.11598  0.81322  0.41574  1.0000
  C   C2257     1.0  0.00047  0.85939  0.34287  1.0000
  H   H3823     1.0  0.11309  0.83037  0.33460  1.0000
  H   H3824     1.0  0.14467  0.81627  0.29943  1.0000
  C   C2258     1.0  0.11687  0.81356  0.39148  1.0000
  C   C2259     1.0  0.19902  0.78224  0.29888  1.0000
  H   H3825     1.0  0.21144  0.80220  0.28101  1.0000
  H   H3826     1.0  0.12002  0.78595  0.40002  1.0000
  C   C2260     1.0  0.20991  0.78290  0.30593  1.0000
  C   C2261     1.0  0.10619  0.88573  0.38283  1.0000
  H   H3827     1.0  0.19074  0.79311  0.32504  1.0000
  C   C2262     1.0  0.02252  0.85874  0.34752  1.0000
  H   H3828     1.0  0.08964  0.88126  0.42592  1.0000
  H   H3829     1.0  0.12742  0.82678  0.30138  1.0000
  C   C2263     1.0  0.16932  0.93845  0.38721  1.0000
  H   H3830     1.0  0.13020  0.80904  0.30264  1.0000
  H   H3831     1.0  0.22767  0.73744  0.34528  1.0000
  H   H3832     1.0  0.01253  0.82871  0.36189  1.0000
  H   H3833     1.0  0.10122  0.90109  0.40323  1.0000
  H   H3834     1.0  0.09903  0.86409  0.42789  1.0000
  H   H3835     1.0  0.13110  0.79067  0.38454  1.0000
  H   H3836     1.0  0.14099  0.81755  0.37213  1.0000
  S   S664      1.0  0.17753  0.75546  0.37506  1.0000
  C   C2264     1.0  0.12952  0.78993  0.39563  1.0000
  C   C2265     1.0  0.11190  0.75227  0.24507  1.0000
  H   H3837     1.0  0.18905  0.87942  0.23494  1.0000
  C   C2266     1.0  0.13866  0.81742  0.33991  1.0000
  H   H3838     1.0  0.09761  0.81143  0.40698  1.0000
  H   H3839     1.0  0.13799  0.80672  0.42137  1.0000
  H   H3840     1.0  0.17900  0.91730  0.39402  1.0000
  C   C2267     1.0  0.14732  0.80989  0.37883  1.0000
  H   H3841     1.0  0.10998  0.88239  0.45828  1.0000
  H   H3842     1.0  0.15014  0.78198  0.40055  1.0000
  H   H3843     1.0  0.16953  0.95059  0.40487  1.0000
  C   C2268     1.0  0.15191  0.96693  0.40728  1.0000
  H   H3844     1.0  0.14752  0.88019  0.45947  1.0000
  C   C2269     1.0  0.12606  0.75008  0.23965  1.0000
  H   H3845     1.0  0.13342  0.88565  0.45134  1.0000
  H   H3846     1.0  0.12243  0.95364  0.39515  1.0000
  H   H3847     1.0  0.15912  0.85354  0.46974  1.0000
  C   C2270     1.0  0.13385  0.81686  0.30511  1.0000
  H   H3848     1.0  0.13974  0.82486  0.34510  1.0000
  H   H3849     1.0  0.14120  0.85024  0.32317  1.0000
  H   H3850     1.0  0.11451  0.79626  0.41826  1.0000
  H   H3851     1.0  0.23796  0.83934  0.23807  1.0000
  S   S665      1.0  0.13702  0.75750  0.24418  1.0000
  H   H3852     1.0  0.09543  0.81910  0.39015  1.0000
  H   H3853     1.0  0.08868  0.89832  0.45687  1.0000
  H   H3854     1.0  0.09295  0.74705  0.24599  1.0000
  N   N157      1.0  0.04777  0.82747  0.32192  1.0000
  C   C2271     1.0  0.05330  0.82634  0.33413  1.0000
  C   C2272     1.0  0.05507  0.83654  0.30994  1.0000
  C   C2273     1.0  0.05012  0.81379  0.31861  1.0000
  C   C2274     1.0  0.03254  0.83331  0.32508  1.0000
  C   C2275     1.0  0.04941  0.81524  0.34669  1.0000
  C   C2276     1.0  0.05143  0.85173  0.31042  1.0000
  C   C2277     1.0  0.06524  0.80612  0.31540  1.0000
  C   C2278     1.0  0.02495  0.83557  0.31368  1.0000
  H   H3855     1.0  0.06469  0.82448  0.33154  1.0000
  H   H3856     1.0  0.04983  0.83613  0.33759  1.0000
  H   H3857     1.0  0.05344  0.83576  0.30018  1.0000
  H   H3858     1.0  0.06636  0.83314  0.30890  1.0000
  H   H3859     1.0  0.04428  0.80705  0.32696  1.0000
  H   H3860     1.0  0.04605  0.81482  0.30956  1.0000
  H   H3861     1.0  0.02729  0.82656  0.33393  1.0000
  H   H3862     1.0  0.03012  0.84302  0.32846  1.0000
  H   H3863     1.0  0.05413  0.80487  0.34478  1.0000
  H   H3864     1.0  0.05350  0.81603  0.35508  1.0000
  H   H3865     1.0  0.03817  0.81644  0.35042  1.0000
  H   H3866     1.0  0.05816  0.85714  0.30165  1.0000
  H   H3867     1.0  0.04069  0.85661  0.30957  1.0000
  H   H3868     1.0  0.05320  0.85334  0.31975  1.0000
  H   H3869     1.0  0.07087  0.81120  0.30554  1.0000
  H   H3870     1.0  0.06570  0.79574  0.31437  1.0000
  H   H3871     1.0  0.07067  0.80494  0.32348  1.0000
  H   H3872     1.0  0.03128  0.83818  0.30335  1.0000
  H   H3873     1.0  0.01602  0.84433  0.31461  1.0000
  C   C2279     1.0  0.14685  0.83031  0.31736  1.0000
  H   H3874     1.0  0.15633  0.82214  0.31625  1.0000
  C   C2280     1.0  0.12191  0.80304  0.41391  1.0000
  C   C2281     1.0  0.13240  0.79861  0.42302  1.0000
  C   C2282     1.0  0.13276  0.81374  0.32054  1.0000
  H   H3875     1.0  0.14337  0.93716  0.39964  1.0000
  S   S666      1.0  0.15521  0.77732  0.34790  1.0000
  H   H3876     1.0  0.14442  0.94460  0.38213  1.0000
  H   H3877     1.0  0.16834  0.77946  0.28476  1.0000
  H   H3878     1.0  0.14834  0.80294  0.39965  1.0000
  H   H3879     1.0  0.09216  0.91182  0.37933  1.0000
  H   H3880     1.0  0.11023  0.84124  0.31287  1.0000
  N   N158      1.0  0.13490  0.82443  0.32639  1.0000
  N   N159      1.0  0.12744  0.80362  0.39885  1.0000
  C   C2283     1.0  0.15859  0.95256  0.40430  1.0000
  H   H3881     1.0  0.12944  0.95779  0.40674  1.0000
  H   H3882     1.0  0.19612  0.85723  0.24128  1.0000
  H   H3883     1.0  0.06763  0.88530  0.38428  1.0000
  H   H3884     1.0  0.14883  0.81014  0.33845  1.0000
  H   H3885     1.0  0.15860  0.96047  0.36986  1.0000
  H   H3886     1.0  0.10182  0.89247  0.37421  1.0000
  H   H3887     1.0  0.37454  0.74757  0.24579  1.0000
  H   H3888     1.0  0.19229  0.73720  0.32931  1.0000
  C   C2284     1.0  0.19038  0.80760  0.29317  1.0000
  C   C2285     1.0  0.10243  0.87521  0.40687  1.0000
  H   H3889     1.0  0.15395  0.94508  0.41289  1.0000
  H   H3890     1.0  0.35157  0.75719  0.25370  1.0000
  H   H3891     1.0  0.14352  0.97288  0.40212  1.0000
  C   C2286     1.0  0.20137  0.80901  0.27978  1.0000
  H   H3892     1.0  0.17398  0.75575  0.33554  1.0000
  H   H3893     1.0  0.11791  0.86340  0.47424  1.0000
  C   C2287     1.0  0.09307  0.87230  0.42118  1.0000
  H   H3894     1.0  0.33790  0.74984  0.25481  1.0000
  H   H3895     1.0  0.17657  0.96668  0.38542  1.0000
  H   H3896     1.0  0.19833  0.80716  0.27130  1.0000
  H   H3897     1.0  0.14220  0.74026  0.27244  1.0000
  H   H3898     1.0  0.07679  0.89861  0.37877  1.0000
  H   H3899     1.0  0.09443  0.86476  0.47915  1.0000
  H   H3900     1.0  0.14038  0.80398  0.32272  1.0000
  H   H3901     1.0  0.15139  0.97152  0.38107  1.0000
  H   H3902     1.0  0.15398  0.83760  0.33151  1.0000
  H   H3903     1.0  0.15005  0.79985  0.37603  1.0000
  H   H3904     1.0  0.03119  0.84006  0.36000  1.0000
  H   H3905     1.0  0.11163  0.89873  0.45845  1.0000
  C   C2288     1.0  0.10219  0.81097  0.39617  1.0000
  H   H3906     1.0  0.18106  0.81577  0.29168  1.0000
  H   H3907     1.0  0.02117  0.82641  0.31449  1.0000
  H   H3908     1.0  0.08430  0.89944  0.40979  1.0000
  H   H3909     1.0  0.36823  0.74277  0.26826  1.0000
  C   C2289     1.0  0.10992  0.73627  0.23291  1.0000
  H   H3910     1.0  0.13982  0.78896  0.42163  1.0000
  N   N160      1.0  0.12237  0.91557  0.30178  1.0000
  C   C2290     1.0  0.13152  0.90330  0.30871  1.0000
  C   C2291     1.0  0.12778  0.92793  0.30034  1.0000
  C   C2292     1.0  0.12235  0.91419  0.28788  1.0000
  C   C2293     1.0  0.10792  0.91677  0.31023  1.0000
  C   C2294     1.0  0.12875  0.88934  0.30957  1.0000
  C   C2295     1.0  0.12539  0.93284  0.31356  1.0000
  C   C2296     1.0  0.13657  0.91177  0.27814  1.0000
  C   C2297     1.0  0.09714  0.92921  0.30505  1.0000
  H   H3911     1.0  0.14252  0.90292  0.30368  1.0000
  H   H3912     1.0  0.13071  0.90397  0.31929  1.0000
  H   H3913     1.0  0.12354  0.93671  0.29279  1.0000
  H   H3914     1.0  0.13904  0.92601  0.29609  1.0000
  H   H3915     1.0  0.11736  0.90584  0.28861  1.0000
  H   H3916     1.0  0.11601  0.92353  0.28266  1.0000
  H   H3917     1.0  0.10392  0.90778  0.31095  1.0000
  H   H3918     1.0  0.10751  0.91651  0.32099  1.0000
  H   H3919     1.0  0.13094  0.88694  0.29942  1.0000
  H   H3920     1.0  0.13567  0.88130  0.31545  1.0000
  H   H3921     1.0  0.11818  0.88844  0.31503  1.0000
  H   H3922     1.0  0.11436  0.93680  0.31769  1.0000
  H   H3923     1.0  0.12981  0.92473  0.32142  1.0000
  H   H3924     1.0  0.13060  0.94135  0.31138  1.0000
  H   H3925     1.0  0.14347  0.90213  0.28196  1.0000
  H   H3926     1.0  0.14168  0.92032  0.27601  1.0000
  H   H3927     1.0  0.13528  0.91098  0.26825  1.0000
  H   H3928     1.0  0.09211  0.92669  0.29830  1.0000
  H   H3929     1.0  0.10137  0.93826  0.29952  1.0000
  H   H3930     1.0  0.08920  0.93237  0.31388  1.0000
  S   S667      1.0  0.13835  0.83712  0.47885  1.0000
  H   H3931     1.0  0.16388  0.78064  0.30213  1.0000
  H   H3932     1.0  0.20934  0.87594  0.24691  1.0000
  C   C2298     1.0  0.34842  0.75070  0.24884  1.0000
  Fe  Fe333     1.0  0.19923  0.74831  0.36397  1.0000
  N   N161      1.0  0.09590  0.88592  0.39622  1.0000
  H   H3933     1.0  0.17123  0.83930  0.23651  1.0000
  H   H3934     1.0  0.20872  0.77644  0.31633  1.0000
  H   H3935     1.0  0.11760  0.90041  0.38335  1.0000
  C   C2299     1.0  0.11959  0.88995  0.38173  1.0000
  H   H3936     1.0  0.13269  0.80415  0.35943  1.0000
  H   H3937     1.0  0.17305  0.79670  0.33267  1.0000
  C   C2300     1.0  0.15011  0.84153  0.32203  1.0000
  H   H3938     1.0  0.17576  0.78280  0.31710  1.0000
  C   C2301     1.0  0.10388  0.74538  0.24170  1.0000
  H   H3939     1.0  0.16645  0.79941  0.31126  1.0000
  H   H3940     1.0  0.17038  0.80150  0.28731  1.0000
  H   H3941     1.0  0.20439  0.78069  0.28844  1.0000
  N   N162      1.0  0.18663  0.79391  0.29850  1.0000
  H   H3942     1.0  0.19583  0.77250  0.30414  1.0000
  H   H3943     1.0  0.12680  0.80123  0.34646  1.0000
  C   C2302     1.0  0.17338  0.96679  0.37619  1.0000
  H   H3944     1.0  0.16883  0.93633  0.37752  1.0000
  H   H3945     1.0  0.11995  0.81373  0.38041  1.0000
  N   N163      1.0  0.16917  0.86711  0.35991  1.0000
  C   C2303     1.0  0.15751  0.87548  0.35319  1.0000
  C   C2304     1.0  0.16804  0.85248  0.36313  1.0000
  C   C2305     1.0  0.18247  0.86907  0.34985  1.0000
  C   C2306     1.0  0.16778  0.87216  0.37247  1.0000
  C   C2307     1.0  0.15728  0.89079  0.34786  1.0000
  C   C2308     1.0  0.15534  0.84892  0.37400  1.0000
  C   C2309     1.0  0.19548  0.85784  0.35163  1.0000
  C   C2310     1.0  0.17757  0.86383  0.38195  1.0000
  H   H3946     1.0  0.15760  0.87143  0.34437  1.0000
  H   H3947     1.0  0.14741  0.87491  0.36028  1.0000
  H   H3948     1.0  0.17704  0.84533  0.36669  1.0000
  H   H3949     1.0  0.16800  0.84955  0.35373  1.0000
  H   H3950     1.0  0.18155  0.87000  0.33929  1.0000
  H   H3951     1.0  0.18483  0.87880  0.34981  1.0000
  H   H3952     1.0  0.16953  0.88267  0.36966  1.0000
  H   H3953     1.0  0.15707  0.87337  0.37867  1.0000
  H   H3954     1.0  0.15559  0.89604  0.35623  1.0000
  H   H3955     1.0  0.16669  0.89272  0.34017  1.0000
  H   H3956     1.0  0.14857  0.89558  0.34275  1.0000
  H   H3957     1.0  0.15618  0.83779  0.37600  1.0000
  H   H3958     1.0  0.15480  0.85126  0.38384  1.0000
  H   H3959     1.0  0.14564  0.85395  0.37057  1.0000
  H   H3960     1.0  0.19740  0.85537  0.36195  1.0000
  H   H3961     1.0  0.20453  0.86137  0.34447  1.0000
  H   H3962     1.0  0.19511  0.84848  0.34889  1.0000
  H   H3963     1.0  0.18704  0.86779  0.37923  1.0000
  H   H3964     1.0  0.18042  0.85282  0.38223  1.0000
  H   H3965     1.0  0.17233  0.86456  0.39261  1.0000
  H   H3966     1.0  0.11139  0.85502  0.31926  1.0000
  C   C2311     1.0  0.12841  0.80937  0.35031  1.0000
  H   H3967     1.0  0.12680  0.79717  0.43384  1.0000
  C   C2312     1.0  0.09244  0.89940  0.40030  1.0000
  C   C2313     1.0  0.14455  0.94666  0.39196  1.0000
  H   H3968     1.0  0.11838  0.81611  0.35368  1.0000
  C   C2314     1.0  0.23379  0.85011  0.23502  1.0000
  H   H3969     1.0  0.08474  0.88212  0.37449  1.0000
  H   H3970     1.0  0.12234  0.84130  0.33587  1.0000
  H   H3971     1.0  0.12559  0.84784  0.30779  1.0000
  H   H3972     1.0  0.18014  0.77019  0.29517  1.0000
  C   C2315     1.0  0.17258  0.77990  0.29319  1.0000
  C   C2316     1.0  0.18060  0.79858  0.32291  1.0000
  H   H3973     1.0  0.11139  0.87799  0.40833  1.0000
  C   C2317     1.0  0.11715  0.84518  0.31641  1.0000
  C   C2318     1.0  0.19116  0.85123  0.23767  1.0000
  H   H3974     1.0  0.15712  0.81313  0.37677  1.0000
  H   H3975     1.0  0.08411  0.86857  0.42117  1.0000
  H   H3976     1.0  0.15847  0.84554  0.31413  1.0000
  C   C2319     1.0  0.11249  0.73620  0.27823  1.0000
  H   H3977     1.0  0.16096  0.92053  0.39986  1.0000
  H   H3978     1.0  0.13693  0.86872  0.46174  1.0000
  C   C2320     1.0  0.22295  0.85676  0.24400  1.0000
  H   H3979     1.0  0.11602  0.82412  0.39239  1.0000
  C   C2321     1.0  0.12188  0.83518  0.32891  1.0000
  C   C2322     1.0  0.13675  0.87953  0.46077  1.0000
  H   H3980     1.0  0.13098  0.96728  0.38924  1.0000
  H   H3981     1.0  0.07589  0.91414  0.39139  1.0000
  C   C2323     1.0  0.21763  0.87070  0.24001  1.0000
  N   N164      1.0  0.15788  0.95030  0.39093  1.0000
  H   H3982     1.0  0.17954  0.94081  0.38532  1.0000
  C   C2324     1.0  0.10713  0.88995  0.46483  1.0000
  H   H3983     1.0  0.12873  0.89559  0.47179  1.0000
  H   H3984     1.0  0.08552  0.88795  0.47347  1.0000
  S   S668      1.0  0.12303  0.98011  0.36381  1.0000
  H   H3985     1.0  0.17236  0.97734  0.37003  1.0000
  H   H3986     1.0  0.35103  0.74359  0.27836  1.0000
  H   H3987     1.0  0.19466  0.82924  0.23834  1.0000
  H   H3988     1.0  0.24677  0.88314  0.23362  1.0000
  N   N165      1.0  0.35813  0.73695  0.24961  1.0000
  H   H3989     1.0  0.10695  0.74162  0.28661  1.0000
  H   H3990     1.0  0.24989  0.89892  0.23377  1.0000
  C   C2325     1.0  0.36034  0.73678  0.27360  1.0000
  H   H3991     1.0  0.37413  0.74169  0.23180  1.0000
  H   H3992     1.0  0.99900  0.85748  0.38791  1.0000
  C   C2326     1.0  0.37256  0.73886  0.24309  1.0000
  N   N166      1.0  0.11301  0.88390  0.47738  1.0000
  C   C2327     1.0  0.13203  0.74116  0.23070  1.0000
  H   H3993     1.0  0.33210  0.73543  0.24603  1.0000
  H   H3994     1.0  0.18057  0.73555  0.35730  1.0000
  Fe  Fe334     1.0  0.22263  0.82579  0.63800  1.0000
  S   S669      1.0  0.21645  0.80706  0.65174  1.0000
  S   S670      1.0  0.22697  0.84247  0.64476  1.0000
  Fe  Fe335     1.0  0.21805  0.81959  0.61315  1.0000
  S   S671      1.0  0.21143  0.80026  0.62481  1.0000
  S   S672      1.0  0.21825  0.82876  0.59103  1.0000
  Fe  Fe336     1.0  0.19950  0.81228  0.64070  1.0000
  S   S673      1.0  0.17724  0.81376  0.65095  1.0000
  Fe  Fe337     1.0  0.22908  0.79662  0.63474  1.0000
  S   S674      1.0  0.24126  0.77534  0.64112  1.0000
  S   S675      1.0  0.20467  0.83190  0.62825  1.0000
  S   S676      1.0  0.23678  0.81506  0.62175  1.0000
  C   C2328     1.0  0.12924  0.81604  0.64177  1.0000
  C   C2329     1.0  0.29258  0.89495  0.72091  1.0000
  S   S677      1.0  0.17010  0.79315  0.71438  1.0000
  S   S678      1.0  0.11822  0.84162  0.69690  1.0000
  H   H3995     1.0  0.19855  0.85205  0.60076  1.0000
  Fe  Fe338     1.0  0.22826  0.84957  0.71538  1.0000
  S   S679      1.0  0.20590  0.85902  0.72062  1.0000
  S   S680      1.0  0.23424  0.83200  0.70483  1.0000
  H   H3996     1.0  0.18021  0.93541  0.65668  1.0000
  C   C2330     1.0  0.09941  0.81878  0.65439  1.0000
  C   C2331     1.0  0.13035  0.80685  0.67999  1.0000
  Fe  Fe339     1.0  0.21274  0.87811  0.71803  1.0000
  S   S681      1.0  0.19961  0.89729  0.70814  1.0000
  C   C2332     1.0  0.18455  0.89155  0.60500  1.0000
  S   S682      1.0  0.23526  0.86909  0.71097  1.0000
  H   H3997     1.0  0.19834  0.82641  0.53027  1.0000
  H   H3998     1.0  0.11559  0.83842  0.64994  1.0000
  C   C2333     1.0  0.27961  0.79007  0.65871  1.0000
  C   C2334     1.0  0.11257  0.89627  0.71879  1.0000
  H   H3999     1.0  0.19136  0.92754  0.69836  1.0000
  H   H4000     1.0  0.10734  0.90612  0.72186  1.0000
  H   H4001     1.0  0.28918  0.79347  0.65759  1.0000
  S   S683      1.0  0.30522  0.75536  0.62012  1.0000
  H   H4002     1.0  0.12749  0.81700  0.68253  1.0000
  Fe  Fe340     1.0  0.12557  0.82713  0.71492  1.0000
  Fe  Fe341     1.0  0.15163  0.92469  0.62405  1.0000
  S   S684      1.0  0.15311  0.93201  0.60150  1.0000
  Fe  Fe342     1.0  0.16671  0.91174  0.64711  1.0000
  S   S685      1.0  0.14762  0.91597  0.66314  1.0000
  S   S686      1.0  0.18716  0.89972  0.65170  1.0000
  Fe  Fe343     1.0  0.13765  0.90898  0.65066  1.0000
  S   S687      1.0  0.12612  0.89214  0.66005  1.0000
  S   S688      1.0  0.15713  0.90331  0.63549  1.0000
  S   S689      1.0  0.16324  0.93280  0.63409  1.0000
  Fe  Fe344     1.0  0.15515  0.85364  0.56112  1.0000
  S   S690      1.0  0.16904  0.86527  0.54463  1.0000
  S   S691      1.0  0.16261  0.83376  0.57472  1.0000
  Fe  Fe345     1.0  0.12984  0.87520  0.55625  1.0000
  S   S692      1.0  0.14177  0.88864  0.53944  1.0000
  S   S693      1.0  0.10704  0.88234  0.56274  1.0000
  Fe  Fe346     1.0  0.15317  0.86929  0.53233  1.0000
  S   S694      1.0  0.16007  0.86835  0.50989  1.0000
  Fe  Fe347     1.0  0.15629  0.88329  0.55339  1.0000
  S   S695      1.0  0.16707  0.89813  0.55575  1.0000
  S   S696      1.0  0.14016  0.85618  0.54829  1.0000
  S   S697      1.0  0.14347  0.87136  0.57071  1.0000
  Fe  Fe348     1.0  0.06268  0.84786  0.66166  1.0000
  S   S698      1.0  0.04827  0.86832  0.66195  1.0000
  S   S699      1.0  0.06849  0.83228  0.67991  1.0000
  Fe  Fe349     1.0  0.06902  0.85237  0.63114  1.0000
  S   S700      1.0  0.05558  0.87331  0.62870  1.0000
  S   S701      1.0  0.08227  0.84190  0.61447  1.0000
  Fe  Fe350     1.0  0.06466  0.87588  0.64466  1.0000
  S   S702      1.0  0.07172  0.89513  0.64218  1.0000
  Fe  Fe351     1.0  0.04033  0.86386  0.64603  1.0000
  S   S703      1.0  0.01776  0.87019  0.64473  1.0000
  S   S704      1.0  0.07947  0.85574  0.64542  1.0000
  S   S705      1.0  0.05336  0.84265  0.64737  1.0000
  C   C2335     1.0  0.17410  0.86964  0.68428  1.0000
  Fe  Fe352     1.0  0.14337  0.93662  0.64928  1.0000
  C   C2336     1.0  0.11855  0.98038  0.62794  1.0000
  C   C2337     1.0  0.15339  0.86020  0.50130  1.0000
  H   H4003     1.0  0.15023  0.94481  0.69747  1.0000
  H   H4004     1.0  0.19223  0.84180  0.51857  1.0000
  H   H4005     1.0  0.35668  0.80435  0.71140  1.0000
  C   C2338     1.0  0.13878  0.84583  0.50109  1.0000
  C   C2339     1.0  0.14304  0.85307  0.50805  1.0000
  H   H4006     1.0  0.12197  0.97902  0.63745  1.0000
  H   H4007     1.0  0.25712  0.80163  0.68259  1.0000
  H   H4008     1.0  0.13091  0.84018  0.50645  1.0000
  H   H4009     1.0  0.13842  0.85304  0.51866  1.0000
  C   C2340     1.0  0.10013  0.87095  0.57691  1.0000
  C   C2341     1.0  0.08677  0.87500  0.58430  1.0000
  C   C2342     1.0  0.08135  0.86622  0.59605  1.0000
  C   C2343     1.0  0.08913  0.85321  0.60017  1.0000
  C   C2344     1.0  0.10242  0.84909  0.59267  1.0000
  C   C2345     1.0  0.10801  0.85804  0.58118  1.0000
  H   H4010     1.0  0.08067  0.88499  0.58100  1.0000
  H   H4011     1.0  0.07106  0.86945  0.60173  1.0000
  H   H4012     1.0  0.10847  0.83903  0.59584  1.0000
  H   H4013     1.0  0.11837  0.85489  0.57556  1.0000
  C   C2346     1.0  0.11126  0.89313  0.65459  1.0000
  C   C2347     1.0  0.10675  0.88120  0.65656  1.0000
  C   C2348     1.0  0.09459  0.88169  0.65292  1.0000
  C   C2349     1.0  0.08685  0.89414  0.64726  1.0000
  C   C2350     1.0  0.09146  0.90606  0.64516  1.0000
  C   C2351     1.0  0.10366  0.90557  0.64876  1.0000
  H   H4014     1.0  0.11267  0.87155  0.66097  1.0000
  H   H4015     1.0  0.09116  0.87245  0.65461  1.0000
  H   H4016     1.0  0.08554  0.91573  0.64078  1.0000
  H   H4017     1.0  0.10701  0.91483  0.64728  1.0000
  C   C2352     1.0  0.15669  0.92170  0.58958  1.0000
  C   C2353     1.0  0.16246  0.92709  0.57611  1.0000
  C   C2354     1.0  0.16542  0.91969  0.56602  1.0000
  C   C2355     1.0  0.16221  0.90697  0.56907  1.0000
  C   C2356     1.0  0.15628  0.90147  0.58255  1.0000
  C   C2357     1.0  0.15368  0.90877  0.59287  1.0000
  H   H4018     1.0  0.16481  0.93703  0.57346  1.0000
  H   H4019     1.0  0.17012  0.92396  0.55570  1.0000
  H   H4020     1.0  0.15395  0.89154  0.58501  1.0000
  H   H4021     1.0  0.14930  0.90450  0.60327  1.0000
  C   C2358     1.0  0.13287  0.83742  0.65808  1.0000
  H   H4022     1.0  0.26656  0.83024  0.63771  1.0000
  H   H4023     1.0  0.16825  0.87634  0.66513  1.0000
  C   C2359     1.0  0.00931  0.86063  0.63956  1.0000
  C   C2360     1.0  0.01361  0.84651  0.64118  1.0000
  C   C2361     1.0  0.00630  0.83919  0.63745  1.0000
  H   H4024     1.0  0.24367  0.78287  0.66612  1.0000
  H   H4025     1.0  0.13156  0.84805  0.65210  1.0000
  H   H4026     1.0  0.02243  0.84122  0.64555  1.0000
  H   H4027     1.0  0.00963  0.82824  0.63887  1.0000
  H   H4028     1.0  0.24145  0.79605  0.67489  1.0000
  H   H4029     1.0  0.36185  0.78484  0.70175  1.0000
  H   H4030     1.0  0.30008  0.74518  0.59997  1.0000
  H   H4031     1.0  0.01551  0.83836  0.60544  1.0000
  H   H4032     1.0  0.12170  0.89816  0.71068  1.0000
  H   H4033     1.0  0.22808  0.85687  0.58779  1.0000
  C   C2362     1.0  0.10575  0.89199  0.48824  1.0000
  H   H4034     1.0  0.13920  0.80083  0.68456  1.0000
  C   C2363     1.0  0.19557  0.89663  0.69313  1.0000
  C   C2364     1.0  0.18330  0.90479  0.68970  1.0000
  C   C2365     1.0  0.18054  0.90566  0.67710  1.0000
  C   C2366     1.0  0.19002  0.89830  0.66787  1.0000
  C   C2367     1.0  0.20204  0.88971  0.67151  1.0000
  C   C2368     1.0  0.20479  0.88881  0.68415  1.0000
  H   H4035     1.0  0.17600  0.91058  0.69676  1.0000
  H   H4036     1.0  0.17121  0.91221  0.67445  1.0000
  H   H4037     1.0  0.20938  0.88389  0.66446  1.0000
  H   H4038     1.0  0.21427  0.88246  0.68672  1.0000
  H   H4039     1.0  0.13247  0.83814  0.66855  1.0000
  H   H4040     1.0  0.12082  0.86819  0.72418  1.0000
  C   C2369     1.0  0.10361  0.83928  0.69336  1.0000
  C   C2370     1.0  0.09917  0.82711  0.69884  1.0000
  C   C2371     1.0  0.08817  0.82511  0.69489  1.0000
  C   C2372     1.0  0.08160  0.83527  0.68549  1.0000
  C   C2373     1.0  0.08581  0.84757  0.68035  1.0000
  C   C2374     1.0  0.09679  0.84956  0.68428  1.0000
  H   H4041     1.0  0.10434  0.81915  0.70592  1.0000
  H   H4042     1.0  0.08486  0.81562  0.69899  1.0000
  H   H4043     1.0  0.08056  0.85558  0.67338  1.0000
  H   H4044     1.0  0.10007  0.85905  0.68018  1.0000
  H   H4045     1.0  0.19212  0.89165  0.61055  1.0000
  H   H4046     1.0  0.25502  0.82204  0.63457  1.0000
  H   H4047     1.0  0.04279  0.87205  0.60191  1.0000
  C   C2375     1.0  0.20275  0.83009  0.58661  1.0000
  C   C2376     1.0  0.20074  0.83725  0.57366  1.0000
  C   C2377     1.0  0.18831  0.83870  0.57007  1.0000
  C   C2378     1.0  0.17797  0.83267  0.57928  1.0000
  C   C2379     1.0  0.18003  0.82539  0.59218  1.0000
  C   C2380     1.0  0.19230  0.82428  0.59591  1.0000
  H   H4048     1.0  0.20882  0.84167  0.56639  1.0000
  H   H4049     1.0  0.18690  0.84420  0.56007  1.0000
  H   H4050     1.0  0.17208  0.82067  0.59933  1.0000
  H   H4051     1.0  0.19372  0.81878  0.60594  1.0000
  C   C2381     1.0  0.22790  0.83976  0.66181  1.0000
  C   C2382     1.0  0.22857  0.82684  0.67026  1.0000
  C   C2383     1.0  0.23028  0.82464  0.68353  1.0000
  C   C2384     1.0  0.23097  0.83543  0.68856  1.0000
  C   C2385     1.0  0.22965  0.84851  0.68036  1.0000
  C   C2386     1.0  0.22828  0.85063  0.66694  1.0000
  H   H4052     1.0  0.22806  0.81849  0.66648  1.0000
  H   H4053     1.0  0.23122  0.81452  0.68987  1.0000
  H   H4054     1.0  0.23015  0.85690  0.68419  1.0000
  H   H4055     1.0  0.22766  0.86070  0.66048  1.0000
  C   C2387     1.0  0.17525  0.80717  0.66844  1.0000
  C   C2388     1.0  0.16324  0.81237  0.67715  1.0000
  C   C2389     1.0  0.16170  0.80796  0.69120  1.0000
  C   C2390     1.0  0.17210  0.79819  0.69668  1.0000
  C   C2391     1.0  0.18411  0.79281  0.68798  1.0000
  C   C2392     1.0  0.18569  0.79731  0.67384  1.0000
  H   H4056     1.0  0.15522  0.82011  0.67307  1.0000
  H   H4057     1.0  0.15241  0.81220  0.69771  1.0000
  H   H4058     1.0  0.19217  0.78519  0.69215  1.0000
  H   H4059     1.0  0.19488  0.79302  0.66713  1.0000
  C   C2393     1.0  0.25882  0.76981  0.63417  1.0000
  C   C2394     1.0  0.26653  0.77864  0.62467  1.0000
  C   C2395     1.0  0.28076  0.77405  0.62018  1.0000
  C   C2396     1.0  0.28729  0.76061  0.62509  1.0000
  C   C2397     1.0  0.16598  0.94633  0.67845  1.0000
  C   C2398     1.0  0.26533  0.75631  0.63882  1.0000
  H   H4060     1.0  0.26156  0.78903  0.62097  1.0000
  H   H4061     1.0  0.28676  0.78096  0.61305  1.0000
  N   N167      1.0  0.17730  0.85458  0.66727  1.0000
  H   H4062     1.0  0.16171  0.96100  0.64189  1.0000
  H   H4063     1.0  0.11330  0.83261  0.66774  1.0000
  H   H4064     1.0  0.37471  0.81110  0.70890  1.0000
  C   C2399     1.0  0.19327  0.83047  0.72282  1.0000
  H   H4065     1.0  0.19062  0.86271  0.61215  1.0000
  H   H4066     1.0  0.17275  0.93218  0.70266  1.0000
  H   H4067     1.0  0.28879  0.78127  0.64050  1.0000
  H   H4068     1.0  0.26107  0.81715  0.68226  1.0000
  C   C2400     1.0  0.27951  0.75169  0.63424  1.0000
  H   H4069     1.0  0.09005  0.81496  0.66024  1.0000
  N   N168      1.0  0.12416  0.81697  0.65651  1.0000
  H   H4070     1.0  0.27455  0.77428  0.65192  1.0000
  S   S706      1.0  0.13462  0.95612  0.65733  1.0000
  H   H4071     1.0  0.29094  0.76974  0.65609  1.0000
  H   H4072     1.0  0.09289  0.89188  0.72152  1.0000
  C   C2401     1.0  0.19137  0.88727  0.59127  1.0000
  H   H4073     1.0  0.18613  0.87185  0.66377  1.0000
  N   N169      1.0  0.19996  0.87296  0.59207  1.0000
  H   H4074     1.0  0.02730  0.86159  0.59448  1.0000
  C   C2402     1.0  0.13450  0.80768  0.66450  1.0000
  C   C2403     1.0  0.18421  0.80556  0.54857  1.0000
  H   H4075     1.0  0.27508  0.80107  0.63271  1.0000
  C   C2404     1.0  0.19051  0.83607  0.52928  1.0000
  H   H4076     1.0  0.02497  0.87630  0.60973  1.0000
  H   H4077     1.0  0.15951  0.97312  0.60481  1.0000
  H   H4078     1.0  0.25940  0.74943  0.64613  1.0000
  H   H4079     1.0  0.13729  0.86311  0.70271  1.0000
  H   H4080     1.0  0.10659  0.81254  0.67264  1.0000
  H   H4081     1.0  0.17839  0.90214  0.60306  1.0000
  C   C2405     1.0  0.17645  0.86846  0.66942  1.0000
  H   H4082     1.0  0.13671  0.79712  0.66293  1.0000
  C   C2406     1.0  0.18086  0.96303  0.66760  1.0000
  H   H4083     1.0  0.18144  0.83251  0.70747  1.0000
  H   H4084     1.0  0.20958  0.85885  0.57863  1.0000
  C   C2407     1.0  0.11256  0.86910  0.48241  1.0000
  H   H4085     1.0  0.17737  0.88510  0.61154  1.0000
  N   N170      1.0  0.30918  0.74718  0.57850  1.0000
  C   C2408     1.0  0.26465  0.80806  0.67763  1.0000
  C   C2409     1.0  0.11076  0.96914  0.63022  1.0000
  H   H4086     1.0  0.17609  0.80680  0.51052  1.0000
  H   H4087     1.0  0.34589  0.79353  0.72166  1.0000
  H   H4088     1.0  0.16318  0.84694  0.68579  1.0000
  H   H4089     1.0  0.12167  0.82264  0.63570  1.0000
  C   C2410     1.0  0.30787  0.91441  0.72479  1.0000
  H   H4090     1.0  0.27674  0.78556  0.66968  1.0000
  H   H4091     1.0  0.19767  0.89473  0.58491  1.0000
  C   C2411     1.0  0.26593  0.81282  0.66214  1.0000
  C   C2412     1.0  0.27428  0.80802  0.63937  1.0000
  C   C2413     1.0  0.13436  0.98238  0.65728  1.0000
  H   H4092     1.0  0.14955  0.85583  0.66158  1.0000
  H   H4093     1.0  0.17117  0.88056  0.68472  1.0000
  H   H4094     1.0  0.21465  0.87462  0.57270  1.0000
  C   C2414     1.0  0.19090  0.93879  0.67064  1.0000
  H   H4095     1.0  0.09672  0.82987  0.65371  1.0000
  H   H4096     1.0  0.10651  0.90282  0.48423  1.0000
  H   H4097     1.0  0.10461  0.89346  0.50883  1.0000
  H   H4098     1.0  0.15161  0.81437  0.63900  1.0000
  H   H4099     1.0  0.19253  0.82922  0.66119  1.0000
  C   C2415     1.0  0.15558  0.97013  0.64531  1.0000
  C   C2416     1.0  0.14217  0.97038  0.65300  1.0000
  H   H4100     1.0  0.10174  0.81653  0.64415  1.0000
  H   H4101     1.0  0.35707  0.82418  0.72314  1.0000
  H   H4102     1.0  0.11337  0.80057  0.66195  1.0000
  C   C2417     1.0  0.12083  0.83151  0.65801  1.0000
  C   C2418     1.0  0.20564  0.86997  0.57801  1.0000
  H   H4103     1.0  0.25654  0.78232  0.67412  1.0000
  H   H4104     1.0  0.18767  0.84454  0.68390  1.0000
  H   H4105     1.0  0.08595  0.89469  0.69518  1.0000
  H   H4106     1.0  0.28229  0.88805  0.70952  1.0000
  H   H4107     1.0  0.27433  0.81848  0.65848  1.0000
  C   C2419     1.0  0.18040  0.85475  0.65224  1.0000
  C   C2420     1.0  0.17375  0.86772  0.64308  1.0000
  H   H4108     1.0  0.19167  0.85335  0.64780  1.0000
  H   H4109     1.0  0.17743  0.84605  0.65051  1.0000
  H   H4110     1.0  0.17518  0.86569  0.63290  1.0000
  H   H4111     1.0  0.17882  0.87617  0.64170  1.0000
  H   H4112     1.0  0.16258  0.87106  0.64691  1.0000
  H   H4113     1.0  0.19213  0.84234  0.53540  1.0000
  C   C2421     1.0  0.16450  0.84933  0.67456  1.0000
  C   C2422     1.0  0.15091  0.85798  0.67084  1.0000
  H   H4114     1.0  0.25690  0.79256  0.64668  1.0000
  H   H4115     1.0  0.13500  0.95924  0.61675  1.0000
  H   H4116     1.0  0.19883  0.84873  0.66791  1.0000
  H   H4117     1.0  0.24748  0.80718  0.65243  1.0000
  C   C2423     1.0  0.10259  0.89162  0.71360  1.0000
  H   H4118     1.0  0.14987  0.86902  0.66941  1.0000
  H   H4119     1.0  0.31269  0.77480  0.57122  1.0000
  H   H4120     1.0  0.18428  0.82485  0.67900  1.0000
  H   H4121     1.0  0.27475  0.80269  0.68013  1.0000
  H   H4122     1.0  0.16546  0.83929  0.67235  1.0000
  H   H4123     1.0  0.27028  0.82466  0.62221  1.0000
  C   C2424     1.0  0.19203  0.83013  0.67157  1.0000
  H   H4124     1.0  0.11580  0.85684  0.71787  1.0000
  H   H4125     1.0  0.25642  0.82059  0.66049  1.0000
  H   H4126     1.0  0.19146  0.96463  0.66566  1.0000
  H   H4127     1.0  0.16130  0.82040  0.50725  1.0000
  N   N171      1.0  0.17298  0.82284  0.52943  1.0000
  C   C2425     1.0  0.17640  0.82657  0.51407  1.0000
  C   C2426     1.0  0.17571  0.83386  0.53432  1.0000
  C   C2427     1.0  0.15787  0.82286  0.53398  1.0000
  C   C2428     1.0  0.18159  0.80895  0.53405  1.0000
  C   C2429     1.0  0.17252  0.81785  0.50667  1.0000
  H   H4128     1.0  0.19451  0.80695  0.54822  1.0000
  C   C2430     1.0  0.15201  0.81934  0.54938  1.0000
  C   C2431     1.0  0.30621  0.77260  0.56573  1.0000
  H   H4129     1.0  0.17139  0.83733  0.51037  1.0000
  H   H4130     1.0  0.18761  0.82598  0.51008  1.0000
  H   H4131     1.0  0.17326  0.83222  0.54552  1.0000
  H   H4132     1.0  0.16877  0.84378  0.53104  1.0000
  H   H4133     1.0  0.15173  0.83297  0.52994  1.0000
  H   H4134     1.0  0.15535  0.81537  0.52990  1.0000
  H   H4135     1.0  0.17700  0.80087  0.53329  1.0000
  H   H4136     1.0  0.19195  0.80764  0.52712  1.0000
  H   H4137     1.0  0.09854  0.86421  0.70478  1.0000
  H   H4138     1.0  0.12398  0.98269  0.66325  1.0000
  H   H4139     1.0  0.16010  0.95543  0.60909  1.0000
  H   H4140     1.0  0.36426  0.77307  0.71716  1.0000
  C   C2432     1.0  0.99764  0.86733  0.63416  1.0000
  H   H4141     1.0  0.29521  0.73744  0.57464  1.0000
  H   H4142     1.0  0.14071  0.82069  0.55121  1.0000
  H   H4143     1.0  0.15366  0.82613  0.55487  1.0000
  H   H4144     1.0  0.15608  0.80855  0.55383  1.0000
  H   H4145     1.0  0.16306  0.94937  0.66844  1.0000
  S   S707      1.0  0.14584  0.82875  0.71695  1.0000
  H   H4146     1.0  0.30816  0.77875  0.55520  1.0000
  N   N172      1.0  0.10706  0.89271  0.60678  1.0000
  C   C2433     1.0  0.10227  0.87971  0.61404  1.0000
  C   C2434     1.0  0.09444  0.90413  0.60679  1.0000
  C   C2435     1.0  0.11626  0.89468  0.61462  1.0000
  C   C2436     1.0  0.11487  0.89114  0.59264  1.0000
  C   C2437     1.0  0.11362  0.86678  0.61660  1.0000
  C   C2438     1.0  0.08397  0.90322  0.59939  1.0000
  C   C2439     1.0  0.11797  0.90927  0.61271  1.0000
  C   C2440     1.0  0.11877  0.90387  0.58236  1.0000
  H   H4147     1.0  0.09531  0.88083  0.62409  1.0000
  H   H4148     1.0  0.09611  0.87731  0.60828  1.0000
  H   H4149     1.0  0.09701  0.91420  0.60227  1.0000
  H   H4150     1.0  0.08894  0.90481  0.61740  1.0000
  H   H4151     1.0  0.11239  0.89127  0.62574  1.0000
  H   H4152     1.0  0.12677  0.88821  0.61224  1.0000
  H   H4153     1.0  0.12471  0.88353  0.59303  1.0000
  H   H4154     1.0  0.10942  0.88664  0.58791  1.0000
  H   H4155     1.0  0.11986  0.86757  0.62323  1.0000
  H   H4156     1.0  0.10867  0.85807  0.62194  1.0000
  H   H4157     1.0  0.12033  0.86419  0.60697  1.0000
  H   H4158     1.0  0.07868  0.89481  0.60494  1.0000
  H   H4159     1.0  0.07585  0.91273  0.59903  1.0000
  H   H4160     1.0  0.08874  0.90218  0.58876  1.0000
  H   H4161     1.0  0.10835  0.91580  0.61736  1.0000
  H   H4162     1.0  0.12142  0.91410  0.60195  1.0000
  H   H4163     1.0  0.12584  0.90896  0.61815  1.0000
  H   H4164     1.0  0.12877  0.90516  0.58295  1.0000
  H   H4165     1.0  0.11096  0.91338  0.58323  1.0000
  H   H4166     1.0  0.11971  0.90262  0.57193  1.0000
  N   N173      1.0  0.04258  0.84444  0.60205  1.0000
  C   C2441     1.0  0.03095  0.85664  0.60407  1.0000
  C   C2442     1.0  0.03780  0.83547  0.59614  1.0000
  C   C2443     1.0  0.05476  0.84951  0.59224  1.0000
  C   C2444     1.0  0.04597  0.83732  0.61568  1.0000
  H   H4167     1.0  0.17667  0.81302  0.72537  1.0000
  C   C2445     1.0  0.02495  0.83013  0.60481  1.0000
  C   C2446     1.0  0.06478  0.84009  0.58298  1.0000
  C   C2447     1.0  0.05619  0.82348  0.61638  1.0000
  S   S708      1.0  0.13086  0.80443  0.71919  1.0000
  H   H4168     1.0  0.02190  0.85363  0.61173  1.0000
  H   H4169     1.0  0.04595  0.82636  0.59415  1.0000
  H   H4170     1.0  0.03550  0.84102  0.58605  1.0000
  H   H4171     1.0  0.05133  0.85911  0.58503  1.0000
  H   H4172     1.0  0.06095  0.85222  0.59776  1.0000
  H   H4173     1.0  0.05038  0.84375  0.61938  1.0000
  H   H4174     1.0  0.03650  0.83569  0.62344  1.0000
  H   H4175     1.0  0.16718  0.86575  0.48215  1.0000
  H   H4176     1.0  0.19236  0.94629  0.64847  1.0000
  H   H4177     1.0  0.18132  0.84807  0.71141  1.0000
  H   H4178     1.0  0.02316  0.82286  0.59990  1.0000
  H   H4179     1.0  0.09066  0.87271  0.49352  1.0000
  H   H4180     1.0  0.38032  0.81608  0.72119  1.0000
  H   H4181     1.0  0.07401  0.84439  0.57782  1.0000
  H   H4182     1.0  0.06006  0.83960  0.57492  1.0000
  H   H4183     1.0  0.06841  0.82967  0.58853  1.0000
  H   H4184     1.0  0.05251  0.81586  0.61366  1.0000
  H   H4185     1.0  0.05746  0.81942  0.62702  1.0000
  H   H4186     1.0  0.06650  0.82443  0.61012  1.0000
  S   S709      1.0  0.13136  0.92997  0.63836  1.0000
  H   H4187     1.0  0.16570  0.86495  0.69119  1.0000
  H   H4188     1.0  0.14223  0.85551  0.67935  1.0000
  C   C2448     1.0  0.19590  0.87499  0.56809  1.0000
  C   C2449     1.0  0.17836  0.86261  0.59861  1.0000
  H   H4189     1.0  0.18298  0.88914  0.58600  1.0000
  H   H4190     1.0  0.20085  0.87059  0.55893  1.0000
  H   H4191     1.0  0.19401  0.88621  0.56451  1.0000
  H   H4192     1.0  0.18599  0.87190  0.57234  1.0000
  H   H4193     1.0  0.17981  0.85604  0.59141  1.0000
  H   H4194     1.0  0.17247  0.87285  0.59486  1.0000
  H   H4195     1.0  0.17167  0.85858  0.60833  1.0000
  N   N174      1.0  0.17970  0.94944  0.67698  1.0000
  C   C2450     1.0  0.11116  0.81162  0.66190  1.0000
  H   H4196     1.0  0.20630  0.80127  0.69944  1.0000
  C   C2451     1.0  0.20075  0.80995  0.70444  1.0000
  C   C2452     1.0  0.18920  0.84500  0.67290  1.0000
  H   H4197     1.0  0.20209  0.82458  0.67399  1.0000
  C   C2453     1.0  0.28354  0.77829  0.65126  1.0000
  C   C2454     1.0  0.36544  0.78335  0.71118  1.0000
  H   H4198     1.0  0.11917  0.87126  0.69101  1.0000
  H   H4199     1.0  0.27734  0.76182  0.59702  1.0000
  H   H4200     1.0  0.21722  0.88066  0.59219  1.0000
  H   H4201     1.0  0.17178  0.97699  0.68200  1.0000
  H   H4202     1.0  0.16676  0.93514  0.68161  1.0000
  H   H4203     1.0  0.18270  0.93726  0.71094  1.0000
  H   H4204     1.0  0.14324  0.83196  0.65379  1.0000
  C   C2455     1.0  0.18265  0.94912  0.69036  1.0000
  H   H4205     1.0  0.08285  0.88023  0.69176  1.0000
  H   H4206     1.0  0.27990  0.87949  0.72688  1.0000
  H   H4207     1.0  0.20850  0.87340  0.60861  1.0000
  N   N175      1.0  0.26868  0.80203  0.65409  1.0000
  C   C2456     1.0  0.24910  0.78946  0.66834  1.0000
  H   H4208     1.0  0.14300  0.96397  0.62706  1.0000
  C   C2457     1.0  0.19015  0.93738  0.65660  1.0000
  C   C2458     1.0  0.35674  0.79461  0.71891  1.0000
  N   N176      1.0  0.10762  0.87796  0.70971  1.0000
  H   H4209     1.0  0.18369  0.86532  0.68810  1.0000
  H   H4210     1.0  0.19297  0.95127  0.68868  1.0000
  H   H4211     1.0  0.12188  0.80147  0.68502  1.0000
  H   H4212     1.0  0.28493  0.80928  0.63789  1.0000
  C   C2459     1.0  0.19224  0.86245  0.60129  1.0000
  N   N177      1.0  0.19580  0.81526  0.72827  1.0000
  C   C2460     1.0  0.26594  0.82201  0.63330  1.0000
  C   C2461     1.0  0.25561  0.79802  0.65481  1.0000
  H   H4213     1.0  0.27999  0.74568  0.59306  1.0000
  C   C2462     1.0  0.32918  0.75356  0.58389  1.0000
  H   H4214     1.0  0.13040  0.80546  0.64072  1.0000
  H   H4215     1.0  0.18450  0.79460  0.55302  1.0000
  C   C2463     1.0  0.34798  0.82009  0.72900  1.0000
  H   H4216     1.0  0.20872  0.79681  0.72174  1.0000
  H   H4217     1.0  0.39133  0.80374  0.71169  1.0000
  C   C2464     1.0  0.21197  0.87219  0.59789  1.0000
  Fe  Fe353     1.0  0.38393  0.73672  0.71369  1.0000
  H   H4218     1.0  0.12172  0.88782  0.50000  1.0000
  C   C2465     1.0  0.14008  0.96714  0.61704  1.0000
  H   H4219     1.0  0.36387  0.84488  0.72851  1.0000
  C   C2466     1.0  0.32323  0.74264  0.58175  1.0000
  H   H4220     1.0  0.21911  0.85000  0.60466  1.0000
  H   H4221     1.0  0.28445  0.74130  0.63804  1.0000
  C   C2467     1.0  0.14290  0.82028  0.63421  1.0000
  H   H4222     1.0  0.14461  0.81043  0.66092  1.0000
  H   H4223     1.0  0.17551  0.95721  0.69536  1.0000
  H   H4224     1.0  0.11002  0.87639  0.50654  1.0000
  Fe  Fe354     1.0  0.15022  0.80608  0.72319  1.0000
  H   H4225     1.0  0.17154  0.98145  0.63627  1.0000
  H   H4226     1.0  0.30506  0.73709  0.67854  1.0000
  H   H4227     1.0  0.23137  0.85968  0.60246  1.0000
  H   H4228     1.0  0.32224  0.75924  0.59159  1.0000
  C   C2468     1.0  0.22315  0.85888  0.59809  1.0000
  C   C2469     1.0  0.18228  0.93569  0.70103  1.0000
  H   H4229     1.0  0.33232  0.76058  0.57415  1.0000
  H   H4230     1.0  0.31791  0.91567  0.72544  1.0000
  H   H4231     1.0  0.14188  0.83134  0.63286  1.0000
  H   H4232     1.0  0.33383  0.74327  0.70101  1.0000
  H   H4233     1.0  0.38297  0.78611  0.72608  1.0000
  H   H4234     1.0  0.14567  0.81827  0.62380  1.0000
  H   H4235     1.0  0.11796  0.88859  0.69033  1.0000
  H   H4236     1.0  0.09459  0.89234  0.49123  1.0000
  H   H4237     1.0  0.03626  0.86397  0.61926  1.0000
  H   H4238     1.0  0.21534  0.81131  0.71422  1.0000
  H   H4239     1.0  0.33868  0.74845  0.58773  1.0000
  S   S710      1.0  0.35977  0.74703  0.67471  1.0000
  H   H4240     1.0  0.28176  0.76051  0.57952  1.0000
  H   H4241     1.0  0.30230  0.88779  0.71740  1.0000
  C   C2470     1.0  0.34910  0.73914  0.65775  1.0000
  C   C2471     1.0  0.09582  0.87480  0.70633  1.0000
  H   H4242     1.0  0.17643  0.81117  0.55587  1.0000
  H   H4243     1.0  0.31940  0.75523  0.55798  1.0000
  H   H4244     1.0  0.17113  0.83704  0.72323  1.0000
  H   H4245     1.0  0.17744  0.82022  0.49568  1.0000
  H   H4246     1.0  0.10098  0.97116  0.63784  1.0000
  H   H4247     1.0  0.14472  0.95738  0.68371  1.0000
  H   H4248     1.0  0.15516  0.96088  0.69251  1.0000
  H   H4249     1.0  0.30005  0.92330  0.72787  1.0000
  H   H4250     1.0  0.34157  0.82015  0.72214  1.0000
  H   H4251     1.0  0.20261  0.83336  0.71554  1.0000
  C   C2472     1.0  0.09081  0.88421  0.69367  1.0000
  H   H4252     1.0  0.30165  0.75666  0.55999  1.0000
  C   C2473     1.0  0.16111  0.98175  0.64209  1.0000
  H   H4253     1.0  0.17915  0.96341  0.65753  1.0000
  H   H4254     1.0  0.30862  0.91455  0.71402  1.0000
  H   H4255     1.0  0.19816  0.92843  0.65378  1.0000
  H   H4256     1.0  0.29528  0.77638  0.57038  1.0000
  H   H4257     1.0  0.30068  0.76200  0.59146  1.0000
  H   H4258     1.0  0.02619  0.82455  0.61516  1.0000
  C   C2474     1.0  0.09834  0.86557  0.48765  1.0000
  C   C2475     1.0  0.13404  0.87433  0.69948  1.0000
  H   H4259     1.0  0.15141  0.96555  0.59625  1.0000
  H   H4260     1.0  0.08665  0.87527  0.71488  1.0000
  C   C2476     1.0  0.11098  0.88697  0.50155  1.0000
  C   C2477     1.0  0.15910  0.86035  0.48744  1.0000
  H   H4261     1.0  0.19092  0.92854  0.67725  1.0000
  S   S711      1.0  0.39161  0.75229  0.71931  1.0000
  C   C2478     1.0  0.37590  0.79569  0.72842  1.0000
  C   C2479     1.0  0.15359  0.95278  0.68866  1.0000
  H   H4262     1.0  0.20123  0.94061  0.66960  1.0000
  C   C2480     1.0  0.03415  0.86777  0.60896  1.0000
  H   H4263     1.0  0.14110  0.87758  0.68973  1.0000
  H   H4264     1.0  0.20286  0.81954  0.69740  1.0000
  C   C2481     1.0  0.15455  0.85343  0.48038  1.0000
  C   C2482     1.0  0.30930  0.75744  0.56517  1.0000
  C   C2483     1.0  0.20549  0.80789  0.71762  1.0000
  C   C2484     1.0  0.29890  0.75250  0.59025  1.0000
  C   C2485     1.0  0.17089  0.97571  0.67219  1.0000
  H   H4265     1.0  0.34202  0.74895  0.65720  1.0000
  H   H4266     1.0  0.16013  0.97594  0.67238  1.0000
  C   C2486     1.0  0.28367  0.75529  0.58974  1.0000
  C   C2487     1.0  0.18110  0.83720  0.71580  1.0000
  H   H4267     1.0  0.11669  0.95908  0.63458  1.0000
  H   H4268     1.0  0.09996  0.89978  0.70479  1.0000
  H   H4269     1.0  0.37647  0.78363  0.70806  1.0000
  C   C2488     1.0  0.14436  0.84614  0.48717  1.0000
  C   C2489     1.0  0.38056  0.80739  0.71696  1.0000
  H   H4270     1.0  0.29270  0.90453  0.71305  1.0000
  C   C2490     1.0  0.11925  0.87833  0.69720  1.0000
  H   H4271     1.0  0.13544  0.87910  0.70699  1.0000
  H   H4272     1.0  0.18981  0.80998  0.70614  1.0000
  H   H4273     1.0  0.09908  0.88451  0.68434  1.0000
  H   H4274     1.0  0.10821  0.96871  0.62081  1.0000
  H   H4275     1.0  0.11852  0.86406  0.49038  1.0000
  C   C2491     1.0  0.28059  0.88951  0.72000  1.0000
  C   C2492     1.0  0.15346  0.96556  0.60605  1.0000
  H   H4276     1.0  0.09929  0.85557  0.49492  1.0000
  N   N178      1.0  0.13048  0.98101  0.61578  1.0000
  Fe  Fe355     1.0  0.37058  0.73547  0.69171  1.0000
  C   C2493     1.0  0.11201  0.86671  0.72121  1.0000
  H   H4277     1.0  0.27057  0.89677  0.72197  1.0000
  H   H4278     1.0  0.12397  0.97542  0.60055  1.0000
  H   H4279     1.0  0.13319  0.87908  0.48194  1.0000
  S   S712      1.0  0.36194  0.74007  0.71247  1.0000
  C   C2494     1.0  0.35939  0.73595  0.66505  1.0000
  H   H4280     1.0  0.27986  0.91783  0.72913  1.0000
  H   H4281     1.0  0.17343  0.98489  0.66458  1.0000
  H   H4282     1.0  0.11568  0.88904  0.72788  1.0000
  H   H4283     1.0  0.33105  0.73819  0.57353  1.0000
  H   H4284     1.0  0.31624  0.73828  0.69326  1.0000
  H   H4285     1.0  0.40304  0.76892  0.72839  1.0000
  C   C2495     1.0  0.12504  0.98470  0.60300  1.0000
  H   H4286     1.0  0.15055  0.77038  0.72826  1.0000
  C   C2496     1.0  0.99449  0.84585  0.63228  1.0000
  H   H4287     1.0  0.44221  0.78962  0.76701  1.0000
  H   H4288     1.0  0.45288  0.86752  0.87192  1.0000
  H   H4289     1.0  0.07480  0.75211  0.79701  1.0000
  S   S713      1.0  0.23057  0.84397  0.73690  1.0000
  H   H4290     1.0  0.43561  0.77483  0.78797  1.0000
  H   H4291     1.0  0.06328  0.77155  0.81667  1.0000
  Fe  Fe356     1.0  0.12222  0.80554  0.74108  1.0000
  H   H4292     1.0  0.47028  0.86826  0.81505  1.0000
  S   S714      1.0  0.10985  0.78964  0.75152  1.0000
  H   H4293     1.0  0.45395  0.85071  0.90980  1.0000
  H   H4294     1.0  0.29382  0.79975  0.96679  1.0000
  H   H4295     1.0  0.32620  0.89416  0.95096  1.0000
  S   S715      1.0  0.14215  0.80567  0.74543  1.0000
  Fe  Fe357     1.0  0.38819  0.77992  0.78045  1.0000
  S   S716      1.0  0.40042  0.79461  0.76604  1.0000
  S   S717      1.0  0.39004  0.75859  0.77825  1.0000
  Fe  Fe358     1.0  0.37175  0.80042  0.79761  1.0000
  S   S718      1.0  0.38223  0.81699  0.78441  1.0000
  S   S719      1.0  0.35525  0.80654  0.81502  1.0000
  Fe  Fe359     1.0  0.38013  0.80954  0.76727  1.0000
  S   S720      1.0  0.37410  0.82253  0.74813  1.0000
  Fe  Fe360     1.0  0.40139  0.80067  0.78474  1.0000
  S   S721      1.0  0.42050  0.80535  0.78702  1.0000
  S   S722      1.0  0.36777  0.79452  0.78042  1.0000
  S   S723      1.0  0.39103  0.78446  0.79916  1.0000
  Fe  Fe361     1.0  0.28691  0.88387  0.78956  1.0000
  S   S724      1.0  0.29249  0.88678  0.80787  1.0000
  S   S725      1.0  0.26545  0.88662  0.78609  1.0000
  Fe  Fe362     1.0  0.31635  0.87875  0.77401  1.0000
  S   S726      1.0  0.32483  0.88088  0.79043  1.0000
  S   S727      1.0  0.32804  0.87611  0.75312  1.0000
  Fe  Fe363     1.0  0.30982  0.86874  0.80443  1.0000
  S   S728      1.0  0.31921  0.85299  0.82063  1.0000
  Fe  Fe364     1.0  0.30733  0.89880  0.79298  1.0000
  S   S729      1.0  0.31302  0.91799  0.79370  1.0000
  S   S730      1.0  0.30307  0.86470  0.78760  1.0000
  S   S731      1.0  0.30004  0.89778  0.77509  1.0000
  Fe  Fe365     1.0  0.31048  0.77414  0.87508  1.0000
  S   S732      1.0  0.31141  0.79322  0.88025  1.0000
  C   C2497     1.0  0.49078  0.83364  0.88576  1.0000
  Fe  Fe366     1.0  0.28279  0.77254  0.89432  1.0000
  S   S733      1.0  0.28136  0.79166  0.90116  1.0000
  C   C2498     1.0  0.25418  0.74080  0.90077  1.0000
  Fe  Fe367     1.0  0.28929  0.79995  0.87895  1.0000
  S   S734      1.0  0.27989  0.82076  0.86786  1.0000
  Fe  Fe368     1.0  0.30368  0.78351  0.90185  1.0000
  S   S735      1.0  0.31585  0.78325  0.91686  1.0000
  S   S736      1.0  0.28891  0.78159  0.87215  1.0000
  S   S737      1.0  0.30452  0.76370  0.89684  1.0000
  C   C2499     1.0  0.38890  0.87919  0.87450  1.0000
  S   S738      1.0  0.19469  0.84347  0.75911  1.0000
  C   C2500     1.0  0.17341  0.85519  0.74594  1.0000
  H   H4296     1.0  0.17396  0.74153  0.84089  1.0000
  Fe  Fe369     1.0  0.43279  0.84038  0.83956  1.0000
  S   S739      1.0  0.44317  0.83519  0.85715  1.0000
  S   S740      1.0  0.41831  0.82841  0.83798  1.0000
  Fe  Fe370     1.0  0.44077  0.86762  0.82884  1.0000
  S   S741      1.0  0.45146  0.86512  0.84542  1.0000
  S   S742      1.0  0.44105  0.88528  0.81101  1.0000
  Fe  Fe371     1.0  0.46053  0.84393  0.84230  1.0000
  H   H4297     1.0  0.37212  0.86800  0.85729  1.0000
  Fe  Fe372     1.0  0.43363  0.85671  0.85921  1.0000
  S   S743      1.0  0.42455  0.86368  0.87899  1.0000
  S   S744      1.0  0.45107  0.84693  0.82444  1.0000
  S   S745      1.0  0.42197  0.86142  0.84286  1.0000
  Fe  Fe373     1.0  0.33530  0.84035  0.93933  1.0000
  S   S746      1.0  0.32991  0.85751  0.95007  1.0000
  S   S747      1.0  0.31648  0.83407  0.93828  1.0000
  Fe  Fe374     1.0  0.36555  0.84013  0.93363  1.0000
  S   S748      1.0  0.36253  0.85728  0.94399  1.0000
  S   S749      1.0  0.38580  0.82858  0.92348  1.0000
  Fe  Fe375     1.0  0.34742  0.84662  0.96029  1.0000
  Fe  Fe376     1.0  0.34524  0.86675  0.93307  1.0000
  S   S750      1.0  0.33732  0.88876  0.92404  1.0000
  S   S751      1.0  0.35178  0.82863  0.95076  1.0000
  S   S752      1.0  0.34938  0.85048  0.92147  1.0000
  Fe  Fe377     1.0  0.34496  0.93784  0.84326  1.0000
  S   S753      1.0  0.34534  0.94854  0.85907  1.0000
  S   S754      1.0  0.32772  0.92791  0.84465  1.0000
  Fe  Fe378     1.0  0.37422  0.93931  0.82831  1.0000
  S   S755      1.0  0.37734  0.95002  0.84259  1.0000
  S   S756      1.0  0.38914  0.93433  0.80931  1.0000
  Fe  Fe379     1.0  0.36646  0.93511  0.85887  1.0000
  S   S757      1.0  0.37536  0.92265  0.87691  1.0000
  Fe  Fe380     1.0  0.35613  0.96280  0.84165  1.0000
  H   H4298     1.0  0.46625  0.81828  0.89125  1.0000
  S   S758      1.0  0.36521  0.92345  0.84448  1.0000
  S   S759      1.0  0.35383  0.95303  0.82593  1.0000
  C   C2501     1.0  0.38236  0.88393  0.84484  1.0000
  Fe  Fe381     1.0  0.12183  0.73946  0.81561  1.0000
  H   H4299     1.0  0.45480  0.82509  0.91413  1.0000
  H   H4300     1.0  0.17825  0.76229  0.76196  1.0000
  H   H4301     1.0  0.32706  0.82630  0.81230  1.0000
  C   C2502     1.0  0.38018  0.87276  0.85790  1.0000
  H   H4302     1.0  0.32565  0.78867  0.97990  1.0000
  H   H4303     1.0  0.13875  0.73798  0.75478  1.0000
  H   H4304     1.0  0.28601  0.83174  0.79781  1.0000
  N   N179      1.0  0.37653  0.87703  0.87129  1.0000
  H   H4305     1.0  0.05346  0.74212  0.82546  1.0000
  C   C2503     1.0  0.34816  0.89774  0.91081  1.0000
  C   C2504     1.0  0.34230  0.90877  0.90160  1.0000
  C   C2505     1.0  0.35059  0.91640  0.89110  1.0000
  C   C2506     1.0  0.36476  0.91331  0.89005  1.0000
  C   C2507     1.0  0.37063  0.90240  0.89940  1.0000
  C   C2508     1.0  0.36237  0.89445  0.90963  1.0000
  H   H4306     1.0  0.33130  0.91138  0.90252  1.0000
  H   H4307     1.0  0.34600  0.92479  0.88395  1.0000
  H   H4308     1.0  0.38160  0.90000  0.89861  1.0000
  H   H4309     1.0  0.36696  0.88600  0.91675  1.0000
  C   C2509     1.0  0.42634  0.89864  0.81123  1.0000
  C   C2510     1.0  0.42522  0.90842  0.79925  1.0000
  C   C2511     1.0  0.41377  0.91928  0.79891  1.0000
  C   C2512     1.0  0.40339  0.92060  0.81059  1.0000
  C   C2513     1.0  0.40442  0.91084  0.82267  1.0000
  C   C2514     1.0  0.41590  0.89980  0.82296  1.0000
  H   H4310     1.0  0.43325  0.90760  0.79017  1.0000
  H   H4311     1.0  0.41303  0.92678  0.78957  1.0000
  H   H4312     1.0  0.39647  0.91187  0.83176  1.0000
  H   H4313     1.0  0.41685  0.89238  0.83229  1.0000
  C   C2515     1.0  0.41429  0.85366  0.89169  1.0000
  C   C2516     1.0  0.41596  0.83992  0.89188  1.0000
  C   C2517     1.0  0.40734  0.83223  0.90188  1.0000
  C   C2518     1.0  0.39676  0.83834  0.91144  1.0000
  C   C2519     1.0  0.39506  0.85210  0.91122  1.0000
  C   C2520     1.0  0.40399  0.85967  0.90151  1.0000
  H   H4314     1.0  0.42386  0.83520  0.88435  1.0000
  H   H4315     1.0  0.40866  0.82159  0.90202  1.0000
  H   H4316     1.0  0.38696  0.85686  0.91860  1.0000
  H   H4317     1.0  0.40270  0.87030  0.90141  1.0000
  H   H4318     1.0  0.28926  0.98509  0.85122  1.0000
  C   C2521     1.0  0.10096  0.86461  0.73445  1.0000
  C   C2522     1.0  0.26755  0.86203  0.76102  1.0000
  H   H4319     1.0  0.34833  0.89474  0.80378  1.0000
  H   H4320     1.0  0.27629  0.90551  0.76001  1.0000
  H   H4321     1.0  0.09732  0.73671  0.81291  1.0000
  H   H4322     1.0  0.29916  0.82490  0.82463  1.0000
  H   H4323     1.0  0.29963  0.80134  0.84427  1.0000
  H   H4324     1.0  0.29236  0.74183  0.86127  1.0000
  H   H4325     1.0  0.33554  0.82093  0.79642  1.0000
  H   H4326     1.0  0.31409  0.81283  0.82797  1.0000
  H   H4327     1.0  0.34982  0.75977  0.83698  1.0000
  C   C2523     1.0  0.31600  0.79793  0.92189  1.0000
  C   C2524     1.0  0.32858  0.80051  0.92175  1.0000
  C   C2525     1.0  0.32896  0.81170  0.92649  1.0000
  C   C2526     1.0  0.31671  0.82011  0.93183  1.0000
  C   C2527     1.0  0.30414  0.81736  0.93222  1.0000
  C   C2528     1.0  0.30377  0.80644  0.92712  1.0000
  H   H4328     1.0  0.33808  0.79381  0.91795  1.0000
  H   H4329     1.0  0.33870  0.81365  0.92623  1.0000
  H   H4330     1.0  0.29462  0.82372  0.93649  1.0000
  H   H4331     1.0  0.29403  0.80431  0.92761  1.0000
  H   H4332     1.0  0.44787  0.87347  0.88763  1.0000
  C   C2529     1.0  0.26291  0.74485  0.87261  1.0000
  C   C2530     1.0  0.26603  0.75285  0.87965  1.0000
  C   C2531     1.0  0.47406  0.88535  0.82008  1.0000
  H   H4333     1.0  0.27177  0.76056  0.87414  1.0000
  C   C2532     1.0  0.31743  0.92026  0.80792  1.0000
  C   C2533     1.0  0.31502  0.91155  0.82067  1.0000
  C   C2534     1.0  0.31821  0.91403  0.83184  1.0000
  C   C2535     1.0  0.32424  0.92495  0.83027  1.0000
  C   C2536     1.0  0.32696  0.93345  0.81745  1.0000
  C   C2537     1.0  0.32334  0.93125  0.80640  1.0000
  H   H4334     1.0  0.31037  0.90313  0.82200  1.0000
  H   H4335     1.0  0.31598  0.90746  0.84174  1.0000
  H   H4336     1.0  0.33163  0.94186  0.81607  1.0000
  H   H4337     1.0  0.32518  0.93806  0.79658  1.0000
  C   C2538     1.0  0.30803  0.84433  0.83366  1.0000
  C   C2539     1.0  0.29380  0.84828  0.83496  1.0000
  C   C2540     1.0  0.28520  0.84092  0.84545  1.0000
  C   C2541     1.0  0.29083  0.82944  0.85441  1.0000
  C   C2542     1.0  0.30506  0.82546  0.85293  1.0000
  C   C2543     1.0  0.31359  0.83308  0.84279  1.0000
  H   H4338     1.0  0.28942  0.85704  0.82798  1.0000
  H   H4339     1.0  0.27418  0.84411  0.84661  1.0000
  H   H4340     1.0  0.30951  0.81672  0.85979  1.0000
  H   H4341     1.0  0.32456  0.83020  0.84193  1.0000
  C   C2544     1.0  0.26205  0.87940  0.77425  1.0000
  C   C2545     1.0  0.25078  0.88600  0.76817  1.0000
  H   H4342     1.0  0.37657  0.84426  0.89208  1.0000
  H   H4343     1.0  0.38002  0.89431  0.84661  1.0000
  H   H4344     1.0  0.31411  0.82502  0.78964  1.0000
  C   C2546     1.0  0.27028  0.86723  0.77079  1.0000
  H   H4345     1.0  0.24430  0.89537  0.77085  1.0000
  H   H4346     1.0  0.30496  0.83437  0.80246  1.0000
  H   H4347     1.0  0.27890  0.86197  0.77546  1.0000
  C   C2547     1.0  0.41957  0.81216  0.80102  1.0000
  C   C2548     1.0  0.42997  0.81841  0.80077  1.0000
  C   C2549     1.0  0.42967  0.82359  0.81193  1.0000
  C   C2550     1.0  0.41911  0.82230  0.82355  1.0000
  C   C2551     1.0  0.40875  0.81599  0.82381  1.0000
  C   C2552     1.0  0.40886  0.81110  0.81255  1.0000
  H   H4348     1.0  0.43830  0.81924  0.79190  1.0000
  H   H4349     1.0  0.43772  0.82840  0.81160  1.0000
  H   H4350     1.0  0.40066  0.81476  0.83284  1.0000
  H   H4351     1.0  0.40088  0.80618  0.81294  1.0000
  C   C2553     1.0  0.36106  0.83715  0.75011  1.0000
  C   C2554     1.0  0.35359  0.83946  0.76296  1.0000
  C   C2555     1.0  0.34325  0.85137  0.76405  1.0000
  C   C2556     1.0  0.34051  0.86093  0.75230  1.0000
  C   C2557     1.0  0.46370  0.82460  0.88164  1.0000
  H   H4352     1.0  0.31948  0.91950  0.94292  1.0000
  H   H4353     1.0  0.35580  0.83211  0.77201  1.0000
  H   H4354     1.0  0.33748  0.85325  0.77391  1.0000
  H   H4355     1.0  0.48167  0.86392  0.82606  1.0000
  H   H4356     1.0  0.41762  0.76474  0.76847  1.0000
  C   C2558     1.0  0.34806  0.79390  0.82729  1.0000
  C   C2559     1.0  0.33685  0.79810  0.83732  1.0000
  C   C2560     1.0  0.33006  0.78867  0.84691  1.0000
  H   H4357     1.0  0.46961  0.84313  0.86971  1.0000
  C   C2561     1.0  0.29678  0.81072  0.80523  1.0000
  H   H4358     1.0  0.31016  0.74417  0.87917  1.0000
  H   H4359     1.0  0.33320  0.80874  0.83749  1.0000
  H   H4360     1.0  0.32097  0.79218  0.85406  1.0000
  H   H4361     1.0  0.34580  0.86583  0.73044  1.0000
  C   C2562     1.0  0.30207  0.73981  0.87806  1.0000
  H   H4362     1.0  0.30014  0.80924  0.79457  1.0000
  H   H4363     1.0  0.39316  0.88173  0.83901  1.0000
  H   H4364     1.0  0.28504  0.81132  0.83803  1.0000
  C   C2563     1.0  0.30336  0.81157  0.97399  1.0000
  H   H4365     1.0  0.30991  0.87268  0.73521  1.0000
  H   H4366     1.0  0.39133  0.85039  0.88203  1.0000
  C   C2564     1.0  0.15420  0.84488  0.74903  1.0000
  C   C2565     1.0  0.15982  0.83386  0.75835  1.0000
  C   C2566     1.0  0.17208  0.83364  0.76167  1.0000
  C   C2567     1.0  0.17896  0.84425  0.75539  1.0000
  C   C2568     1.0  0.36904  0.82948  0.82930  1.0000
  H   H4367     1.0  0.15449  0.82570  0.76332  1.0000
  H   H4368     1.0  0.17625  0.82521  0.76908  1.0000
  H   H4369     1.0  0.48084  0.85980  0.85079  1.0000
  H   H4370     1.0  0.36367  0.85288  0.78967  1.0000
  H   H4371     1.0  0.28053  0.82544  0.81590  1.0000
  C   C2569     1.0  0.28406  0.82265  0.80583  1.0000
  H   H4372     1.0  0.18986  0.78892  0.73312  1.0000
  H   H4373     1.0  0.34870  0.83673  0.81601  1.0000
  C   C2570     1.0  0.10985  0.76876  0.79577  1.0000
  C   C2571     1.0  0.11056  0.78248  0.79132  1.0000
  C   C2572     1.0  0.11093  0.78897  0.77763  1.0000
  C   C2573     1.0  0.10997  0.78187  0.76856  1.0000
  C   C2574     1.0  0.10887  0.76829  0.77314  1.0000
  C   C2575     1.0  0.10922  0.76163  0.78660  1.0000
  H   H4374     1.0  0.11096  0.78805  0.79843  1.0000
  H   H4375     1.0  0.11161  0.79952  0.77417  1.0000
  H   H4376     1.0  0.10791  0.76285  0.76618  1.0000
  H   H4377     1.0  0.10849  0.75113  0.78998  1.0000
  H   H4378     1.0  0.47715  0.85871  0.87629  1.0000
  C   C2576     1.0  0.32746  0.79906  0.97548  1.0000
  C   C2577     1.0  0.30116  0.74447  0.86305  1.0000
  H   H4379     1.0  0.27003  0.90579  0.73891  1.0000
  H   H4380     1.0  0.15655  0.86425  0.73587  1.0000
  H   H4381     1.0  0.31084  0.74056  0.85615  1.0000
  H   H4382     1.0  0.37089  0.78223  0.75595  1.0000
  C   C2578     1.0  0.42756  0.75731  0.76922  1.0000
  C   C2579     1.0  0.25655  0.86886  0.75463  1.0000
  H   H4383     1.0  0.47157  0.82061  0.87318  1.0000
  H   H4384     1.0  0.23968  0.88627  0.75342  1.0000
  Fe  Fe382     1.0  0.20856  0.85470  0.74185  1.0000
  C   C2580     1.0  0.24808  0.88082  0.75836  1.0000
  H   H4385     1.0  0.43833  0.78048  0.75715  1.0000
  H   H4386     1.0  0.13983  0.77481  0.75142  1.0000
  H   H4387     1.0  0.43479  0.76003  0.75938  1.0000
  H   H4388     1.0  0.17286  0.79357  0.74274  1.0000
  N   N180      1.0  0.43267  0.75825  0.78099  1.0000
  C   C2581     1.0  0.27823  0.91360  0.75082  1.0000
  C   C2582     1.0  0.48663  0.87326  0.79162  1.0000
  C   C2583     1.0  0.34101  0.90315  0.97167  1.0000
  C   C2584     1.0  0.35745  0.85439  0.82465  1.0000
  H   H4389     1.0  0.18780  0.73737  0.81137  1.0000
  H   H4390     1.0  0.31842  0.90364  0.96384  1.0000
  H   H4391     1.0  0.29108  0.88632  0.75545  1.0000
  H   H4392     1.0  0.34960  0.82256  0.83544  1.0000
  N   N181      1.0  0.49132  0.86919  0.80481  1.0000
  N   N182      1.0  0.37116  0.90826  0.79570  1.0000
  C   C2585     1.0  0.38508  0.91101  0.78801  1.0000
  C   C2586     1.0  0.36057  0.92081  0.79148  1.0000
  C   C2587     1.0  0.36941  0.89620  0.79161  1.0000
  C   C2588     1.0  0.37084  0.90518  0.81067  1.0000
  C   C2589     1.0  0.39754  0.89900  0.78983  1.0000
  C   C2590     1.0  0.36078  0.93381  0.79552  1.0000
  C   C2591     1.0  0.35462  0.89471  0.79338  1.0000
  C   C2592     1.0  0.35710  0.90330  0.82056  1.0000
  H   H4393     1.0  0.38545  0.91442  0.77690  1.0000
  H   H4394     1.0  0.38719  0.91945  0.79100  1.0000
  H   H4395     1.0  0.34999  0.91929  0.79567  1.0000
  H   H4396     1.0  0.36167  0.92317  0.78025  1.0000
  H   H4397     1.0  0.37420  0.89645  0.78063  1.0000
  H   H4398     1.0  0.37491  0.88651  0.79722  1.0000
  H   H4399     1.0  0.37842  0.89565  0.81347  1.0000
  H   H4400     1.0  0.37444  0.91294  0.81338  1.0000
  H   H4401     1.0  0.40697  0.90220  0.78318  1.0000
  H   H4402     1.0  0.39914  0.89621  0.80035  1.0000
  H   H4403     1.0  0.39688  0.88994  0.78677  1.0000
  H   H4404     1.0  0.35211  0.94205  0.79248  1.0000
  H   H4405     1.0  0.35933  0.93241  0.80665  1.0000
  H   H4406     1.0  0.37027  0.93754  0.79022  1.0000
  C   C2593     1.0  0.32277  0.97840  0.81602  1.0000
  H   H4407     1.0  0.35505  0.88485  0.79110  1.0000
  H   H4408     1.0  0.34922  0.90271  0.78604  1.0000
  H   H4409     1.0  0.35639  0.89249  0.82334  1.0000
  H   H4410     1.0  0.34805  0.90955  0.81662  1.0000
  H   H4411     1.0  0.35619  0.90674  0.82995  1.0000
  C   C2594     1.0  0.18000  0.75858  0.75256  1.0000
  C   C2595     1.0  0.45498  0.74976  0.79043  1.0000
  H   H4412     1.0  0.44612  0.73826  0.78280  1.0000
  H   H4413     1.0  0.43265  0.75551  0.80931  1.0000
  H   H4414     1.0  0.37452  0.88271  0.94755  1.0000
  H   H4415     1.0  0.47977  0.84607  0.81290  1.0000
  C   C2596     1.0  0.37965  0.84523  0.80979  1.0000
  S   S760      1.0  0.10904  0.76075  0.81293  1.0000
  H   H4416     1.0  0.35239  0.78680  0.76136  1.0000
  H   H4417     1.0  0.32271  0.82619  0.96445  1.0000
  H   H4418     1.0  0.47890  0.84065  0.90396  1.0000
  H   H4419     1.0  0.34549  0.87465  0.97679  1.0000
  C   C2597     1.0  0.35281  0.89197  0.95210  1.0000
  C   C2598     1.0  0.32951  0.91451  0.94576  1.0000
  H   H4420     1.0  0.33258  0.97851  0.81817  1.0000
  C   C2599     1.0  0.44709  0.83326  0.90945  1.0000
  H   H4421     1.0  0.30610  0.78929  0.97592  1.0000
  H   H4422     1.0  0.31420  0.89286  0.73094  1.0000
  H   H4423     1.0  0.36343  0.86687  0.83471  1.0000
  H   H4424     1.0  0.08362  0.75084  0.82903  1.0000
  H   H4425     1.0  0.07584  0.73900  0.85197  1.0000
  C   C2600     1.0  0.34615  0.77050  0.83700  1.0000
  H   H4426     1.0  0.06057  0.73745  0.80950  1.0000
  S   S761      1.0  0.25461  0.86259  0.74133  1.0000
  H   H4427     1.0  0.30558  0.81630  0.96295  1.0000
  H   H4428     1.0  0.47075  0.86262  0.89263  1.0000
  C   C2601     1.0  0.43273  0.77297  0.77937  1.0000
  H   H4429     1.0  0.32197  0.95914  0.82937  1.0000
  H   H4430     1.0  0.47669  0.89388  0.81172  1.0000
  H   H4431     1.0  0.29236  0.74510  0.88392  1.0000
  H   H4432     1.0  0.46081  0.87954  0.87402  1.0000
  C   C2602     1.0  0.36107  0.85668  0.83709  1.0000
  C   C2603     1.0  0.36113  0.78010  0.75579  1.0000
  C   C2604     1.0  0.34788  0.85847  0.73953  1.0000
  C   C2605     1.0  0.29554  0.80518  0.83488  1.0000
  H   H4433     1.0  0.38976  0.86460  0.85727  1.0000
  C   C2606     1.0  0.47920  0.87106  0.81662  1.0000
  C   C2607     1.0  0.30474  0.81425  0.82421  1.0000
  C   C2608     1.0  0.32646  0.82762  0.80163  1.0000
  C   C2609     1.0  0.42268  0.75367  0.79394  1.0000
  H   H4434     1.0  0.32714  0.83824  0.79645  1.0000
  H   H4435     1.0  0.29314  0.80143  0.81117  1.0000
  H   H4436     1.0  0.40419  0.89125  0.86902  1.0000
  C   C2610     1.0  0.38041  0.85121  0.88249  1.0000
  H   H4437     1.0  0.39692  0.86970  0.87518  1.0000
  C   C2611     1.0  0.16096  0.85560  0.74293  1.0000
  C   C2612     1.0  0.31295  0.82509  0.80051  1.0000
  C   C2613     1.0  0.33727  0.88056  0.97139  1.0000
  N   N183      1.0  0.30861  0.81243  0.80974  1.0000
  H   H4438     1.0  0.27420  0.85281  0.75817  1.0000
  H   H4439     1.0  0.17019  0.76078  0.73641  1.0000
  H   H4440     1.0  0.31356  0.97619  0.86668  1.0000
  H   H4441     1.0  0.37577  0.88401  0.83815  1.0000
  H   H4442     1.0  0.28718  0.91737  0.75076  1.0000
  S   S762      1.0  0.14328  0.73562  0.81832  1.0000
  N   N184      1.0  0.21920  0.85410  0.78434  1.0000
  C   C2614     1.0  0.22698  0.85041  0.77091  1.0000
  C   C2615     1.0  0.20641  0.86479  0.78198  1.0000
  C   C2616     1.0  0.21508  0.84193  0.79462  1.0000
  C   C2617     1.0  0.22833  0.85924  0.78969  1.0000
  C   C2618     1.0  0.23983  0.83867  0.77129  1.0000
  C   C2619     1.0  0.20859  0.87927  0.77507  1.0000
  C   C2620     1.0  0.20669  0.83451  0.79028  1.0000
  C   C2621     1.0  0.22184  0.86402  0.80323  1.0000
  H   H4443     1.0  0.22019  0.84776  0.76599  1.0000
  H   H4444     1.0  0.23048  0.85931  0.76362  1.0000
  H   H4445     1.0  0.19855  0.86548  0.79161  1.0000
  H   H4446     1.0  0.20124  0.86196  0.77551  1.0000
  H   H4447     1.0  0.22422  0.83434  0.79759  1.0000
  H   H4448     1.0  0.20874  0.84494  0.80425  1.0000
  H   H4449     1.0  0.23758  0.85119  0.79157  1.0000
  H   H4450     1.0  0.23271  0.86748  0.78202  1.0000
  H   H4451     1.0  0.24430  0.83680  0.76086  1.0000
  H   H4452     1.0  0.24798  0.84129  0.77432  1.0000
  H   H4453     1.0  0.23741  0.82901  0.77783  1.0000
  H   H4454     1.0  0.21669  0.87946  0.76562  1.0000
  H   H4455     1.0  0.19891  0.88578  0.77229  1.0000
  H   H4456     1.0  0.21114  0.88400  0.78201  1.0000
  H   H4457     1.0  0.20395  0.82600  0.79875  1.0000
  H   H4458     1.0  0.21259  0.83000  0.78139  1.0000
  H   H4459     1.0  0.19692  0.84130  0.78805  1.0000
  H   H4460     1.0  0.22402  0.85559  0.81198  1.0000
  H   H4461     1.0  0.21060  0.86798  0.80486  1.0000
  H   H4462     1.0  0.22620  0.87254  0.80325  1.0000
  C   C2622     1.0  0.07482  0.75441  0.80674  1.0000
  H   H4463     1.0  0.44313  0.82954  0.90272  1.0000
  C   C2623     1.0  0.33184  0.79996  0.96000  1.0000
  H   H4464     1.0  0.39898  0.84972  0.80909  1.0000
  H   H4465     1.0  0.45336  0.75056  0.77010  1.0000
  H   H4466     1.0  0.06539  0.75354  0.83358  1.0000
  C   C2624     1.0  0.38567  0.74602  0.76048  1.0000
  H   H4467     1.0  0.45207  0.84527  0.87757  1.0000
  H   H4468     1.0  0.32955  0.80179  0.81065  1.0000
  H   H4469     1.0  0.44338  0.85345  0.89817  1.0000
  H   H4470     1.0  0.45311  0.75991  0.79262  1.0000
  C   C2625     1.0  0.42251  0.75834  0.80672  1.0000
  C   C2626     1.0  0.18238  0.81076  0.73348  1.0000
  C   C2627     1.0  0.49012  0.84446  0.80619  1.0000
  H   H4471     1.0  0.15467  0.77790  0.76559  1.0000
  H   H4472     1.0  0.21862  0.81536  0.74737  1.0000
  H   H4473     1.0  0.30996  0.78349  0.81365  1.0000
  H   H4474     1.0  0.36134  0.77679  0.81913  1.0000
  H   H4475     1.0  0.09300  0.73552  0.79165  1.0000
  H   H4476     1.0  0.39126  0.84212  0.82570  1.0000
  H   H4477     1.0  0.48982  0.83001  0.87718  1.0000
  H   H4478     1.0  0.32407  0.80009  0.79677  1.0000
  H   H4479     1.0  0.32375  0.79840  0.95598  1.0000
  H   H4480     1.0  0.30651  0.96756  0.82382  1.0000
  H   H4481     1.0  0.42130  0.74406  0.76055  1.0000
  C   C2628     1.0  0.44217  0.77923  0.76636  1.0000
  H   H4482     1.0  0.08423  0.75836  0.80474  1.0000
  H   H4483     1.0  0.13343  0.75992  0.75666  1.0000
  H   H4484     1.0  0.47700  0.88984  0.77736  1.0000
  H   H4485     1.0  0.32794  0.77870  0.81281  1.0000
  C   C2629     1.0  0.30639  0.96151  0.85215  1.0000
  C   C2630     1.0  0.21564  0.81712  0.73756  1.0000
  H   H4486     1.0  0.18820  0.76316  0.74497  1.0000
  H   H4487     1.0  0.45385  0.82267  0.88134  1.0000
  H   H4488     1.0  0.32556  0.97418  0.80674  1.0000
  H   H4489     1.0  0.43818  0.83570  0.91786  1.0000
  C   C2631     1.0  0.16694  0.76293  0.74681  1.0000
  H   H4490     1.0  0.41842  0.76947  0.80573  1.0000
  H   H4491     1.0  0.47912  0.86737  0.79197  1.0000
  C   C2632     1.0  0.07492  0.74588  0.83075  1.0000
  H   H4492     1.0  0.37965  0.84729  0.87399  1.0000
  C   C2633     1.0  0.46804  0.85900  0.88489  1.0000
  S   S763      1.0  0.11497  0.82830  0.73643  1.0000
  H   H4493     1.0  0.37640  0.82973  0.83498  1.0000
  H   H4494     1.0  0.38584  0.83618  0.80549  1.0000
  H   H4495     1.0  0.41193  0.75735  0.79248  1.0000
  H   H4496     1.0  0.17855  0.86351  0.74117  1.0000
  C   C2634     1.0  0.14241  0.76407  0.75029  1.0000
  H   H4497     1.0  0.29474  0.79618  0.83194  1.0000
  H   H4498     1.0  0.09282  0.86044  0.73320  1.0000
  C   C2635     1.0  0.46246  0.84009  0.87952  1.0000
  H   H4499     1.0  0.31481  0.88315  0.97734  1.0000
  C   C2636     1.0  0.45662  0.87037  0.87938  1.0000
  C   C2637     1.0  0.32060  0.80055  0.80772  1.0000
  C   C2638     1.0  0.14955  0.77045  0.77357  1.0000
  H   H4500     1.0  0.16368  0.77420  0.74498  1.0000
  C   C2639     1.0  0.37155  0.86576  0.88255  1.0000
  C   C2640     1.0  0.36514  0.88962  0.87206  1.0000
  C   C2641     1.0  0.06277  0.73617  0.81962  1.0000
  C   C2642     1.0  0.35252  0.89018  0.86678  1.0000
  C   C2643     1.0  0.39636  0.88997  0.86442  1.0000
  H   H4501     1.0  0.37045  0.86787  0.89272  1.0000
  H   H4502     1.0  0.36114  0.86514  0.88241  1.0000
  H   H4503     1.0  0.36873  0.89904  0.86664  1.0000
  H   H4504     1.0  0.36129  0.89084  0.88276  1.0000
  H   H4505     1.0  0.38611  0.88186  0.88464  1.0000
  H   H4506     1.0  0.35512  0.89019  0.85580  1.0000
  H   H4507     1.0  0.34717  0.88191  0.87254  1.0000
  H   H4508     1.0  0.34499  0.89990  0.86806  1.0000
  H   H4509     1.0  0.38967  0.90017  0.86215  1.0000
  H   H4510     1.0  0.40213  0.88652  0.85493  1.0000
  C   C2644     1.0  0.47709  0.83615  0.89632  1.0000
  H   H4511     1.0  0.36574  0.87423  0.96326  1.0000
  H   H4512     1.0  0.40160  0.77240  0.75119  1.0000
  H   H4513     1.0  0.31711  0.78541  0.82685  1.0000
  H   H4514     1.0  0.35206  0.85661  0.84580  1.0000
  C   C2645     1.0  0.36627  0.88440  0.95670  1.0000
  N   N185      1.0  0.36618  0.84236  0.81871  1.0000
  H   H4515     1.0  0.29712  0.94397  0.85864  1.0000
  H   H4516     1.0  0.37799  0.85367  0.80093  1.0000
  C   C2646     1.0  0.39727  0.76457  0.75026  1.0000
  C   C2647     1.0  0.29804  0.79875  0.97573  1.0000
  C   C2648     1.0  0.29023  0.88492  0.74560  1.0000
  S   S764      1.0  0.32658  0.76320  0.85986  1.0000
  H   H4517     1.0  0.19512  0.81611  0.74885  1.0000
  C   C2649     1.0  0.31846  0.78637  0.81580  1.0000
  H   H4518     1.0  0.36956  0.89061  0.96169  1.0000
  H   H4519     1.0  0.29940  0.75573  0.86021  1.0000
  H   H4520     1.0  0.37430  0.82066  0.82433  1.0000
  C   C2650     1.0  0.31878  0.97969  0.84426  1.0000
  H   H4521     1.0  0.25088  0.73908  0.91172  1.0000
  H   H4522     1.0  0.46267  0.88764  0.82312  1.0000
  H   H4523     1.0  0.30362  0.86558  0.75256  1.0000
  H   H4524     1.0  0.21412  0.82816  0.73326  1.0000
  H   H4525     1.0  0.33237  0.92176  0.94982  1.0000
  H   H4526     1.0  0.38143  0.73674  0.74648  1.0000
  C   C2651     1.0  0.39104  0.75631  0.76190  1.0000
  S   S765      1.0  0.26692  0.75943  0.90324  1.0000
  H   H4527     1.0  0.42444  0.74237  0.79668  1.0000
  H   H4528     1.0  0.42215  0.77931  0.77962  1.0000
  C   C2652     1.0  0.45229  0.84632  0.90201  1.0000
  H   H4529     1.0  0.35142  0.88635  0.94518  1.0000
  H   H4530     1.0  0.31640  0.95444  0.85344  1.0000
  N   N186      1.0  0.46492  0.84503  0.89065  1.0000
  H   H4531     1.0  0.35768  0.86394  0.81673  1.0000
  H   H4532     1.0  0.38456  0.85976  0.81838  1.0000
  C   C2653     1.0  0.38892  0.84941  0.81636  1.0000
  H   H4533     1.0  0.34790  0.84787  0.79343  1.0000
  S   S766      1.0  0.48322  0.83456  0.84233  1.0000
  H   H4534     1.0  0.34644  0.85372  0.82773  1.0000
  H   H4535     1.0  0.36986  0.84918  0.84061  1.0000
  C   C2654     1.0  0.15275  0.75636  0.77005  1.0000
  H   H4536     1.0  0.05250  0.76342  0.81196  1.0000
  C   C2655     1.0  0.31466  0.96920  0.82777  1.0000
  H   H4537     1.0  0.09641  0.87400  0.73847  1.0000
  N   N187      1.0  0.30441  0.83985  0.89030  1.0000
  C   C2656     1.0  0.31252  0.85019  0.88891  1.0000
  C   C2657     1.0  0.29947  0.84259  0.87744  1.0000
  C   C2658     1.0  0.31312  0.82560  0.89248  1.0000
  C   C2659     1.0  0.29249  0.84098  0.90236  1.0000
  C   C2660     1.0  0.31981  0.84795  0.90055  1.0000
  C   C2661     1.0  0.28908  0.85616  0.87425  1.0000
  C   C2662     1.0  0.32664  0.82289  0.88181  1.0000
  C   C2663     1.0  0.28207  0.83221  0.90442  1.0000
  H   H4538     1.0  0.32037  0.85088  0.87919  1.0000
  H   H4539     1.0  0.30574  0.86054  0.88839  1.0000
  H   H4540     1.0  0.29475  0.83428  0.87757  1.0000
  H   H4541     1.0  0.30822  0.84266  0.86846  1.0000
  H   H4542     1.0  0.31573  0.82265  0.90258  1.0000
  H   H4543     1.0  0.30737  0.81808  0.89261  1.0000
  H   H4544     1.0  0.29621  0.83802  0.91192  1.0000
  H   H4545     1.0  0.28670  0.85171  0.90190  1.0000
  H   H4546     1.0  0.31239  0.84874  0.91036  1.0000
  H   H4547     1.0  0.32740  0.83812  0.90176  1.0000
  H   H4548     1.0  0.32556  0.85606  0.89827  1.0000
  H   H4549     1.0  0.29351  0.86506  0.87266  1.0000
  H   H4550     1.0  0.28626  0.85678  0.86461  1.0000
  H   H4551     1.0  0.27941  0.85690  0.88213  1.0000
  H   H4552     1.0  0.32480  0.82410  0.87160  1.0000
  H   H4553     1.0  0.33207  0.81213  0.88480  1.0000
  H   H4554     1.0  0.33369  0.82928  0.88129  1.0000
  H   H4555     1.0  0.27669  0.83522  0.89595  1.0000
  H   H4556     1.0  0.27409  0.83362  0.91380  1.0000
  H   H4557     1.0  0.28687  0.82120  0.90581  1.0000
  H   H4558     1.0  0.15326  0.76939  0.78283  1.0000
  H   H4559     1.0  0.27546  0.81962  0.80397  1.0000
  H   H4560     1.0  0.22440  0.81160  0.73085  1.0000
  C   C2664     1.0  0.35270  0.78008  0.82697  1.0000
  H   H4561     1.0  0.35035  0.83368  0.84549  1.0000
  C   C2665     1.0  0.33485  0.77484  0.84707  1.0000
  C   C2666     1.0  0.26195  0.75064  0.89382  1.0000
  H   H4562     1.0  0.34630  0.91135  0.96519  1.0000
  N   N188      1.0  0.33999  0.89415  0.96312  1.0000
  H   H4563     1.0  0.36461  0.83055  0.80548  1.0000
  N   N189      1.0  0.15527  0.75629  0.75521  1.0000
  H   H4564     1.0  0.35992  0.81646  0.84763  1.0000
  C   C2667     1.0  0.35853  0.83947  0.80991  1.0000
  C   C2668     1.0  0.35464  0.85103  0.79795  1.0000
  C   C2669     1.0  0.35639  0.82554  0.83998  1.0000
  H   H4565     1.0  0.34865  0.86056  0.80125  1.0000
  H   H4566     1.0  0.33730  0.87405  0.96461  1.0000
  C   C2670     1.0  0.44677  0.74908  0.78055  1.0000
  C   C2671     1.0  0.35809  0.84661  0.73844  1.0000
  H   H4567     1.0  0.17545  0.81663  0.74112  1.0000
  Fe  Fe383     1.0  0.13576  0.82846  0.73877  1.0000
  H   H4568     1.0  0.29215  0.73934  0.90615  1.0000
  H   H4569     1.0  0.14380  0.75187  0.77600  1.0000
  H   H4570     1.0  0.29435  0.81903  0.97826  1.0000
  H   H4571     1.0  0.27971  0.88340  0.74733  1.0000
  H   H4572     1.0  0.38094  0.73951  0.76945  1.0000
  H   H4573     1.0  0.46612  0.74730  0.78573  1.0000
  C   C2672     1.0  0.20247  0.81193  0.74020  1.0000
  H   H4574     1.0  0.41544  0.75341  0.81553  1.0000
  C   C2673     1.0  0.49132  0.85405  0.84999  1.0000
  C   C2674     1.0  0.39207  0.75280  0.73587  1.0000
  H   H4575     1.0  0.28812  0.97937  0.83753  1.0000
  S   S767      1.0  0.13825  0.84600  0.74562  1.0000
  Fe  Fe384     1.0  0.23571  0.86423  0.73331  1.0000
  H   H4576     1.0  0.33696  0.91262  0.93620  1.0000
  H   H4577     1.0  0.48933  0.84518  0.79568  1.0000
  H   H4578     1.0  0.20543  0.80076  0.74400  1.0000
  H   H4579     1.0  0.29524  0.86492  0.74031  1.0000
  C   C2675     1.0  0.06248  0.76644  0.80905  1.0000
  H   H4580     1.0  0.45294  0.77335  0.76520  1.0000
  H   H4581     1.0  0.47531  0.82608  0.90218  1.0000
  H   H4582     1.0  0.16136  0.74959  0.77469  1.0000
  C   C2676     1.0  0.32811  0.90111  0.95625  1.0000
  N   N190      1.0  0.07515  0.74177  0.81798  1.0000
  C   C2677     1.0  0.39802  0.76262  0.73734  1.0000
  H   H4583     1.0  0.26641  0.74639  0.86169  1.0000
  H   H4584     1.0  0.13272  0.77035  0.73309  1.0000
  H   H4585     1.0  0.47753  0.88547  0.82912  1.0000
  C   C2678     1.0  0.15899  0.74172  0.75368  1.0000
  H   H4586     1.0  0.35490  0.90182  0.94560  1.0000
  H   H4587     1.0  0.30590  0.90098  0.74459  1.0000
  H   H4588     1.0  0.18673  0.79270  0.74983  1.0000
  H   H4589     1.0  0.46926  0.89071  0.79454  1.0000
  H   H4590     1.0  0.06257  0.77423  0.79941  1.0000
  H   H4591     1.0  0.36108  0.76950  0.76159  1.0000
  H   H4592     1.0  0.32860  0.97199  0.84455  1.0000
  H   H4593     1.0  0.34163  0.80313  0.74356  1.0000
  H   H4594     1.0  0.10586  0.85697  0.74237  1.0000
  H   H4595     1.0  0.31436  0.84441  0.97696  1.0000
  H   H4596     1.0  0.30156  0.94918  0.84068  1.0000
  H   H4597     1.0  0.26914  0.92219  0.75180  1.0000
  H   H4598     1.0  0.33471  0.80966  0.95428  1.0000
  S   S768      1.0  0.21360  0.87464  0.74004  1.0000
  H   H4599     1.0  0.33054  0.90844  0.97629  1.0000
  H   H4600     1.0  0.28659  0.95880  0.85054  1.0000
  N   N191      1.0  0.36113  0.79468  0.73141  1.0000
  H   H4601     1.0  0.13834  0.77479  0.77554  1.0000
  C   C2679     1.0  0.18330  0.79557  0.74014  1.0000
  N   N192      1.0  0.30865  0.97388  0.84104  1.0000
  C   C2680     1.0  0.30040  0.87145  0.74298  1.0000
  C   C2681     1.0  0.38599  0.74439  0.74749  1.0000
  H   H4602     1.0  0.30143  0.96435  0.86213  1.0000
  H   H4603     1.0  0.18391  0.74741  0.75457  1.0000
  C   C2682     1.0  0.29736  0.95307  0.85018  1.0000
  C   C2683     1.0  0.47932  0.88823  0.78747  1.0000
  H   H4604     1.0  0.41770  0.73972  0.77859  1.0000
  H   H4605     1.0  0.37852  0.79666  0.73764  1.0000
  H   H4606     1.0  0.34105  0.79176  0.95776  1.0000
  H   H4607     1.0  0.45300  0.74223  0.80013  1.0000
  H   H4608     1.0  0.16273  0.74105  0.74281  1.0000
  C   C2684     1.0  0.30520  0.90085  0.73424  1.0000
  H   H4609     1.0  0.34961  0.77906  0.74220  1.0000
  C   C2685     1.0  0.35973  0.78130  0.74122  1.0000
  C   C2686     1.0  0.14290  0.76470  0.73532  1.0000
  H   H4610     1.0  0.48570  0.89546  0.78640  1.0000
  C   C2687     1.0  0.31996  0.82315  0.97568  1.0000
  C   C2688     1.0  0.27980  0.90881  0.73772  1.0000
  H   H4611     1.0  0.35596  0.80735  0.74612  1.0000
  H   H4612     1.0  0.14491  0.75448  0.73316  1.0000
  H   H4613     1.0  0.36755  0.77269  0.73743  1.0000
  N   N193      1.0  0.29197  0.89739  0.73460  1.0000
  H   H4614     1.0  0.16771  0.73579  0.75854  1.0000
  C   C2689     1.0  0.42539  0.74324  0.76952  1.0000
  C   C2690     1.0  0.35164  0.80593  0.73816  1.0000
  H   H4615     1.0  0.30034  0.83847  0.97598  1.0000
  H   H4616     1.0  0.34175  0.82734  0.73558  1.0000
  C   C2691     1.0  0.31423  0.98470  0.85768  1.0000
  H   H4617     1.0  0.32947  0.82211  0.97916  1.0000
  H   H4618     1.0  0.33656  0.79915  0.97904  1.0000
  C   C2692     1.0  0.29496  0.98370  0.84082  1.0000
  H   H4619     1.0  0.36811  0.85127  0.97930  1.0000
  H   H4620     1.0  0.43512  0.73542  0.76875  1.0000
  H   H4621     1.0  0.19120  0.83589  0.73117  1.0000
  N   N194      1.0  0.31532  0.80988  0.98020  1.0000
  Fe  Fe385     1.0  0.71064  0.18895  0.09354  1.0000
  S   S769      1.0  0.71053  0.17426  0.08122  1.0000
  Fe  Fe386     1.0  0.71738  0.18595  0.12078  1.0000
  S   S770      1.0  0.71215  0.20834  0.11979  1.0000
  S   S771      1.0  0.72641  0.17087  0.13760  1.0000
  Fe  Fe387     1.0  0.69422  0.20845  0.11188  1.0000
  H   H4622     1.0  0.73079  0.14586  0.15745  1.0000
  Fe  Fe388     1.0  0.72357  0.21011  0.09808  1.0000
  S   S772      1.0  0.69835  0.18585  0.11486  1.0000
  S   S773      1.0  0.73018  0.18748  0.09962  1.0000
  Fe  Fe389     1.0  0.69338  0.11758  0.19069  1.0000
  S   S774      1.0  0.69846  0.12210  0.20814  1.0000
  S   S775      1.0  0.68608  0.13342  0.17347  1.0000
  Fe  Fe390     1.0  0.69492  0.08798  0.20316  1.0000
  S   S776      1.0  0.69084  0.06869  0.20105  1.0000
  H   H4623     1.0  0.63221  0.16172  0.13939  1.0000
  S   S777      1.0  0.67741  0.10617  0.20368  1.0000
  S   S778      1.0  0.71070  0.09925  0.18903  1.0000
  C   C2693     1.0  0.65260  0.09099  0.15826  1.0000
  H   H4624     1.0  0.83946  0.19862  0.17687  1.0000
  Fe  Fe391     1.0  0.61251  0.19602  0.19011  1.0000
  S   S779      1.0  0.60381  0.19457  0.17307  1.0000
  Fe  Fe392     1.0  0.63941  0.19908  0.19324  1.0000
  S   S780      1.0  0.63143  0.18076  0.19502  1.0000
  H   H4625     1.0  0.61451  0.11989  0.02301  1.0000
  C   C2694     1.0  0.65168  0.09087  0.17322  1.0000
  H   H4626     1.0  0.65324  0.17787  0.17032  1.0000
  Fe  Fe393     1.0  0.65520  0.15734  0.05504  1.0000
  S   S781      1.0  0.64068  0.16180  0.04121  1.0000
  S   S782      1.0  0.65737  0.17434  0.06325  1.0000
  Fe  Fe394     1.0  0.66194  0.12712  0.05610  1.0000
  S   S783      1.0  0.64805  0.12876  0.04245  1.0000
  S   S784      1.0  0.67535  0.10846  0.06639  1.0000
  Fe  Fe395     1.0  0.65646  0.14691  0.02968  1.0000
  S   S785      1.0  0.66109  0.15353  0.00643  1.0000
  Fe  Fe396     1.0  0.63318  0.14358  0.05466  1.0000
  S   S786      1.0  0.61069  0.14315  0.06083  1.0000
  S   S787      1.0  0.67174  0.14412  0.04240  1.0000
  S   S788      1.0  0.64628  0.14025  0.06945  1.0000
  Fe  Fe397     1.0  0.56606  0.15624  0.12887  1.0000
  S   S789      1.0  0.58085  0.14065  0.14023  1.0000
  S   S790      1.0  0.57588  0.17019  0.11061  1.0000
  Fe  Fe398     1.0  0.54073  0.14752  0.14882  1.0000
  S   S791      1.0  0.55392  0.13124  0.16171  1.0000
  S   S792      1.0  0.51749  0.15016  0.15682  1.0000
  Fe  Fe399     1.0  0.56624  0.14677  0.15880  1.0000
  S   S793      1.0  0.57350  0.14865  0.17657  1.0000
  Fe  Fe400     1.0  0.56736  0.12679  0.14192  1.0000
  S   S794      1.0  0.57600  0.10648  0.13606  1.0000
  S   S795      1.0  0.55211  0.16346  0.14742  1.0000
  S   S796      1.0  0.55345  0.14194  0.12914  1.0000
  Fe  Fe401     1.0  0.66684  0.05411  0.14409  1.0000
  S   S797      1.0  0.65553  0.04058  0.16145  1.0000
  S   S798      1.0  0.68213  0.06560  0.14453  1.0000
  Fe  Fe402     1.0  0.65020  0.05350  0.12456  1.0000
  S   S799      1.0  0.63724  0.04017  0.14039  1.0000
  S   S800      1.0  0.64656  0.06093  0.10330  1.0000
  Fe  Fe403     1.0  0.63667  0.05349  0.15416  1.0000
  S   S801      1.0  0.61864  0.06394  0.16820  1.0000
  Fe  Fe404     1.0  0.65716  0.02827  0.14617  1.0000
  S   S802      1.0  0.66454  0.00512  0.15028  1.0000
  S   S803      1.0  0.64782  0.06774  0.13781  1.0000
  S   S804      1.0  0.67023  0.04086  0.12931  1.0000
  C   C2695     1.0  0.88134  0.21398  0.21552  1.0000
  S   S805      1.0  0.67301  0.21948  0.12041  1.0000
  C   C2696     1.0  0.66479  0.20622  0.16654  1.0000
  H   H4627     1.0  0.66815  0.18423  0.11039  1.0000
  C   C2697     1.0  0.50582  0.14717  0.14904  1.0000
  H   H4628     1.0  0.66199  0.17632  0.13436  1.0000
  H   H4629     1.0  0.65048  0.10150  0.17406  1.0000
  H   H4630     1.0  0.69716  0.18080  0.19951  1.0000
  H   H4631     1.0  0.87002  0.19237  0.16928  1.0000
  C   C2698     1.0  0.50884  0.14746  0.13513  1.0000
  S   S806      1.0  0.70509  0.21186  0.08985  1.0000
  H   H4632     1.0  0.50166  0.10520  0.14283  1.0000
  H   H4633     1.0  0.51850  0.14960  0.12884  1.0000
  C   C2699     1.0  0.58787  0.09492  0.14512  1.0000
  C   C2700     1.0  0.59565  0.08326  0.14031  1.0000
  C   C2701     1.0  0.60539  0.07394  0.14716  1.0000
  C   C2702     1.0  0.60690  0.07591  0.15924  1.0000
  C   C2703     1.0  0.59888  0.08743  0.16426  1.0000
  C   C2704     1.0  0.58955  0.09707  0.15706  1.0000
  H   H4634     1.0  0.59412  0.08136  0.13131  1.0000
  H   H4635     1.0  0.61145  0.06501  0.14331  1.0000
  H   H4636     1.0  0.59991  0.08892  0.17368  1.0000
  H   H4637     1.0  0.58349  0.10601  0.16089  1.0000
  H   H4638     1.0  0.63226  0.11963  0.01487  1.0000
  H   H4639     1.0  0.64271  0.15459  0.21468  1.0000
  H   H4640     1.0  0.59871  0.13346  0.04269  1.0000
  C   C2705     1.0  0.65669  0.14662  0.99494  1.0000
  C   C2706     1.0  0.65470  0.13336  0.99831  1.0000
  C   C2707     1.0  0.65139  0.12819  0.98887  1.0000
  S   S807      1.0  0.63184  0.19959  0.21521  1.0000
  H   H4641     1.0  0.73675  0.19899  0.15874  1.0000
  H   H4642     1.0  0.65587  0.12702  0.00814  1.0000
  H   H4643     1.0  0.64989  0.11790  0.99158  1.0000
  C   C2708     1.0  0.66762  0.09499  0.07644  1.0000
  C   C2709     1.0  0.67033  0.08876  0.08936  1.0000
  C   C2710     1.0  0.66402  0.07819  0.09764  1.0000
  C   C2711     1.0  0.65517  0.07365  0.09293  1.0000
  C   C2712     1.0  0.65284  0.07955  0.07984  1.0000
  C   C2713     1.0  0.65903  0.09021  0.07162  1.0000
  H   H4644     1.0  0.67716  0.09226  0.09305  1.0000
  H   H4645     1.0  0.66601  0.07358  0.10767  1.0000
  H   H4646     1.0  0.64612  0.07596  0.07610  1.0000
  H   H4647     1.0  0.65718  0.09475  0.06154  1.0000
  C   C2714     1.0  0.60131  0.15053  0.07482  1.0000
  C   C2715     1.0  0.60541  0.16075  0.07785  1.0000
  C   C2716     1.0  0.59754  0.16676  0.08884  1.0000
  C   C2717     1.0  0.58585  0.16223  0.09715  1.0000
  C   C2718     1.0  0.58204  0.15168  0.09438  1.0000
  C   C2719     1.0  0.58959  0.14603  0.08309  1.0000
  H   H4648     1.0  0.61446  0.16425  0.07155  1.0000
  H   H4649     1.0  0.60053  0.17492  0.09094  1.0000
  H   H4650     1.0  0.57301  0.14817  0.10069  1.0000
  H   H4651     1.0  0.58637  0.13813  0.08080  1.0000
  H   H4652     1.0  0.84587  0.22655  0.16868  1.0000
  C   C2720     1.0  0.55912  0.19564  0.18194  1.0000
  H   H4653     1.0  0.61436  0.20735  0.14296  1.0000
  C   C2721     1.0  0.65807  0.99320  0.14605  1.0000
  C   C2722     1.0  0.64563  0.99682  0.14194  1.0000
  C   C2723     1.0  0.86757  0.21994  0.14748  1.0000
  H   H4654     1.0  0.54344  0.17901  0.20149  1.0000
  H   H4655     1.0  0.87665  0.22647  0.15996  1.0000
  H   H4656     1.0  0.63942  0.00702  0.14180  1.0000
  H   H4657     1.0  0.52633  0.12244  0.14707  1.0000
  C   C2724     1.0  0.59725  0.18052  0.17374  1.0000
  C   C2725     1.0  0.59387  0.17946  0.16207  1.0000
  C   C2726     1.0  0.58720  0.16930  0.16261  1.0000
  C   C2727     1.0  0.58374  0.16019  0.17488  1.0000
  C   C2728     1.0  0.58756  0.16096  0.18642  1.0000
  C   C2729     1.0  0.59434  0.17105  0.18586  1.0000
  H   H4658     1.0  0.59605  0.18677  0.15267  1.0000
  H   H4659     1.0  0.58436  0.16878  0.15364  1.0000
  H   H4660     1.0  0.58497  0.15393  0.19594  1.0000
  H   H4661     1.0  0.59689  0.17176  0.19491  1.0000
  C   C2730     1.0  0.67008  0.21487  0.13818  1.0000
  H   H4662     1.0  0.71495  0.13096  0.17178  1.0000
  H   H4663     1.0  0.68793  0.16258  0.11449  1.0000
  C   C2731     1.0  0.68868  0.06790  0.18521  1.0000
  C   C2732     1.0  0.69150  0.07797  0.17356  1.0000
  C   C2733     1.0  0.68965  0.07704  0.16109  1.0000
  C   C2734     1.0  0.68466  0.06624  0.16026  1.0000
  C   C2735     1.0  0.68178  0.05624  0.17191  1.0000
  C   C2736     1.0  0.68388  0.05702  0.18431  1.0000
  H   H4664     1.0  0.69524  0.08637  0.17415  1.0000
  H   H4665     1.0  0.69197  0.08476  0.15210  1.0000
  H   H4666     1.0  0.67810  0.04779  0.17133  1.0000
  H   H4667     1.0  0.89448  0.20453  0.17474  1.0000
  C   C2737     1.0  0.65454  0.17798  0.15944  1.0000
  H   H4668     1.0  0.62276  0.18522  0.14580  1.0000
  C   C2738     1.0  0.76220  0.20943  0.14512  1.0000
  C   C2739     1.0  0.74443  0.23058  0.09984  1.0000
  C   C2740     1.0  0.69501  0.17327  0.07824  1.0000
  C   C2741     1.0  0.69493  0.16267  0.07253  1.0000
  C   C2742     1.0  0.68312  0.16236  0.06869  1.0000
  C   C2743     1.0  0.67135  0.17278  0.07041  1.0000
  C   C2744     1.0  0.67123  0.18303  0.07673  1.0000
  C   C2745     1.0  0.68300  0.18326  0.08068  1.0000
  H   H4669     1.0  0.70416  0.15486  0.07070  1.0000
  H   H4670     1.0  0.68330  0.15439  0.06390  1.0000
  H   H4671     1.0  0.66217  0.19113  0.07806  1.0000
  H   H4672     1.0  0.68296  0.19148  0.08506  1.0000
  H   H4673     1.0  0.64396  0.06740  0.17414  1.0000
  H   H4674     1.0  0.63052  0.18450  0.12891  1.0000
  H   H4675     1.0  0.67609  0.21382  0.03383  1.0000
  C   C2746     1.0  0.53321  0.11695  0.12157  1.0000
  C   C2747     1.0  0.71511  0.16085  0.14837  1.0000
  C   C2748     1.0  0.70121  0.16465  0.14803  1.0000
  C   C2749     1.0  0.69240  0.15612  0.15583  1.0000
  C   C2750     1.0  0.69734  0.14398  0.16433  1.0000
  C   C2751     1.0  0.71111  0.14037  0.16517  1.0000
  C   C2752     1.0  0.72004  0.14880  0.15709  1.0000
  H   H4676     1.0  0.69721  0.17420  0.14185  1.0000
  H   H4677     1.0  0.68173  0.15892  0.15531  1.0000
  H   H4678     1.0  0.67660  0.17117  0.18005  1.0000
  C   C2753     1.0  0.69299  0.17515  0.19464  1.0000
  H   H4679     1.0  0.70320  0.14835  0.20828  1.0000
  H   H4680     1.0  0.62661  0.11617  0.03302  1.0000
  H   H4681     1.0  0.62010  0.17750  0.01862  1.0000
  H   H4682     1.0  0.66745  0.19975  0.04231  1.0000
  N   N195      1.0  0.53506  0.10132  0.14527  1.0000
  C   C2754     1.0  0.54520  0.08971  0.15178  1.0000
  C   C2755     1.0  0.53346  0.11330  0.15132  1.0000
  C   C2756     1.0  0.54125  0.10465  0.13024  1.0000
  C   C2757     1.0  0.52177  0.09688  0.14792  1.0000
  C   C2758     1.0  0.55013  0.07692  0.14566  1.0000
  H   H4683     1.0  0.54166  0.18574  0.16433  1.0000
  H   H4684     1.0  0.50173  0.14539  0.11852  1.0000
  Fe  Fe405     1.0  0.68399  0.10901  0.22102  1.0000
  H   H4685     1.0  0.55456  0.09307  0.15144  1.0000
  H   H4686     1.0  0.55586  0.06856  0.15247  1.0000
  H   H4687     1.0  0.85099  0.19161  0.16331  1.0000
  H   H4688     1.0  0.54342  0.11645  0.14860  1.0000
  H   H4689     1.0  0.55171  0.10648  0.12852  1.0000
  H   H4690     1.0  0.54261  0.09596  0.12551  1.0000
  H   H4691     1.0  0.52254  0.09048  0.14074  1.0000
  H   H4692     1.0  0.51979  0.09028  0.15826  1.0000
  H   H4693     1.0  0.55745  0.07867  0.13570  1.0000
  S   S808      1.0  0.70006  0.08960  0.22202  1.0000
  H   H4694     1.0  0.54149  0.07334  0.14465  1.0000
  H   H4695     1.0  0.77540  0.19727  0.11891  1.0000
  H   H4696     1.0  0.65075  0.22931  0.14143  1.0000
  H   H4697     1.0  0.66188  0.08479  0.19650  1.0000
  N   N196      1.0  0.86457  0.21245  0.17368  1.0000
  H   H4698     1.0  0.85775  0.22761  0.14794  1.0000
  H   H4699     1.0  0.58967  0.15280  0.01696  1.0000
  H   H4700     1.0  0.56609  0.20357  0.19521  1.0000
  C   C2759     1.0  0.84860  0.20014  0.16856  1.0000
  H   H4701     1.0  0.68615  0.19636  0.00421  1.0000
  N   N197      1.0  0.69535  0.18708  0.03048  1.0000
  C   C2760     1.0  0.70778  0.17636  0.03390  1.0000
  H   H4702     1.0  0.76789  0.21499  0.13560  1.0000
  H   H4703     1.0  0.68105  0.17402  0.04056  1.0000
  C   C2761     1.0  0.69973  0.19640  0.01703  1.0000
  C   C2762     1.0  0.71895  0.18153  0.03677  1.0000
  C   C2763     1.0  0.55755  0.19687  0.15437  1.0000
  H   H4704     1.0  0.60290  0.14007  0.99574  1.0000
  H   H4705     1.0  0.89022  0.19770  0.19246  1.0000
  H   H4706     1.0  0.70466  0.16846  0.04299  1.0000
  H   H4707     1.0  0.53036  0.20031  0.19410  1.0000
  H   H4708     1.0  0.64652  0.99975  0.10567  1.0000
  H   H4709     1.0  0.71298  0.17082  0.02552  1.0000
  H   H4710     1.0  0.52726  0.17364  0.19064  1.0000
  C   C2764     1.0  0.88657  0.20006  0.18290  1.0000
  H   H4711     1.0  0.52423  0.22123  0.18042  1.0000
  H   H4712     1.0  0.70843  0.19081  0.01022  1.0000
  H   H4713     1.0  0.71563  0.18440  0.04683  1.0000
  H   H4714     1.0  0.69741  0.00971  0.11457  1.0000
  C   C2765     1.0  0.67586  0.18195  0.22124  1.0000
  C   C2766     1.0  0.52853  0.11097  0.16692  1.0000
  C   C2767     1.0  0.85211  0.22373  0.17640  1.0000
  S   S809      1.0  0.60266  0.23216  0.21856  1.0000
  H   H4715     1.0  0.76546  0.20204  0.09875  1.0000
  H   H4716     1.0  0.76067  0.21045  0.11896  1.0000
  C   C2768     1.0  0.64115  0.98720  0.13811  1.0000
  H   H4717     1.0  0.54780  0.20684  0.19824  1.0000
  H   H4718     1.0  0.54083  0.08619  0.16277  1.0000
  H   H4719     1.0  0.67530  0.19244  0.21494  1.0000
  H   H4720     1.0  0.68981  0.15116  0.10371  1.0000
  H   H4721     1.0  0.67438  0.15488  0.11593  1.0000
  H   H4722     1.0  0.67798  0.99193  0.10234  1.0000
  H   H4723     1.0  0.70485  0.13084  0.09432  1.0000
  H   H4724     1.0  0.64605  0.22163  0.16657  1.0000
  H   H4725     1.0  0.66328  0.19331  0.13107  1.0000
  H   H4726     1.0  0.69877  0.11559  0.09934  1.0000
  C   C2769     1.0  0.49927  0.14515  0.12930  1.0000
  C   C2770     1.0  0.63297  0.18228  0.13906  1.0000
  H   H4727     1.0  0.69632  0.17358  0.01077  1.0000
  H   H4728     1.0  0.62374  0.21210  0.15243  1.0000
  C   C2771     1.0  0.73650  0.23161  0.11283  1.0000
  S   S810      1.0  0.73522  0.10032  0.21245  1.0000
  H   H4729     1.0  0.67921  0.20912  0.01427  1.0000
  C   C2772     1.0  0.65805  0.22118  0.14620  1.0000
  H   H4730     1.0  0.63155  0.99014  0.13487  1.0000
  C   C2773     1.0  0.65663  0.18686  0.13059  1.0000
  C   C2774     1.0  0.63655  0.20537  0.13358  1.0000
  C   C2775     1.0  0.62290  0.21210  0.14213  1.0000
  C   C2776     1.0  0.65736  0.18809  0.11543  1.0000
  H   H4731     1.0  0.64405  0.21174  0.13200  1.0000
  H   H4732     1.0  0.63455  0.20660  0.12340  1.0000
  H   H4733     1.0  0.68738  0.13047  0.10411  1.0000
  H   H4734     1.0  0.69695  0.20101  0.04166  1.0000
  H   H4735     1.0  0.65447  0.19882  0.11009  1.0000
  H   H4736     1.0  0.65107  0.18191  0.11393  1.0000
  H   H4737     1.0  0.54160  0.21847  0.17210  1.0000
  H   H4738     1.0  0.65109  0.08325  0.21308  1.0000
  C   C2777     1.0  0.68875  0.20359  0.00854  1.0000
  H   H4739     1.0  0.75132  0.21497  0.14715  1.0000
  C   C2778     1.0  0.70503  0.16920  0.18392  1.0000
  H   H4740     1.0  0.64330  0.09728  0.15464  1.0000
  C   C2779     1.0  0.73726  0.10899  0.22384  1.0000
  C   C2780     1.0  0.64437  0.14880  0.22455  1.0000
  H   H4741     1.0  0.70138  0.16520  0.17717  1.0000
  H   H4742     1.0  0.66490  0.17994  0.15433  1.0000
  H   H4743     1.0  0.74993  0.19751  0.10902  1.0000
  C   C2781     1.0  0.53237  0.21429  0.17454  1.0000
  H   H4744     1.0  0.68879  0.19948  0.13833  1.0000
  H   H4745     1.0  0.54203  0.16439  0.18025  1.0000
  H   H4746     1.0  0.52554  0.12091  0.17000  1.0000
  N   N198      1.0  0.54778  0.19016  0.18052  1.0000
  C   C2782     1.0  0.65548  0.15457  0.98196  1.0000
  H   H4747     1.0  0.70172  0.16152  0.21622  1.0000
  C   C2783     1.0  0.65538  0.21682  0.16040  1.0000
  C   C2784     1.0  0.53393  0.19968  0.18320  1.0000
  C   C2785     1.0  0.67699  0.20023  0.15855  1.0000
  C   C2786     1.0  0.68122  0.15636  0.19868  1.0000
  H   H4748     1.0  0.63171  0.16170  0.01675  1.0000
  N   N199      1.0  0.64247  0.19066  0.13932  1.0000
  H   H4749     1.0  0.55772  0.17044  0.19084  1.0000
  H   H4750     1.0  0.70957  0.15652  0.12188  1.0000
  H   H4751     1.0  0.52341  0.11512  0.12106  1.0000
  C   C2787     1.0  0.55103  0.18689  0.16665  1.0000
  H   H4752     1.0  0.88602  0.19030  0.18119  1.0000
  N   N200      1.0  0.64077  0.08435  0.18357  1.0000
  C   C2788     1.0  0.62695  0.09017  0.17994  1.0000
  C   C2789     1.0  0.64458  0.06932  0.18384  1.0000
  C   C2790     1.0  0.63992  0.08699  0.19723  1.0000
  C   C2791     1.0  0.62185  0.10575  0.17798  1.0000
  C   C2792     1.0  0.63575  0.06052  0.19525  1.0000
  C   C2793     1.0  0.65294  0.08067  0.20305  1.0000
  H   H4753     1.0  0.62683  0.08729  0.17054  1.0000
  H   H4754     1.0  0.61885  0.08577  0.18793  1.0000
  H   H4755     1.0  0.65541  0.06495  0.18462  1.0000
  H   H4756     1.0  0.66201  0.08550  0.17518  1.0000
  H   H4757     1.0  0.63784  0.09809  0.19674  1.0000
  H   H4758     1.0  0.63114  0.08340  0.20490  1.0000
  H   H4759     1.0  0.61973  0.10917  0.18761  1.0000
  H   H4760     1.0  0.62903  0.11132  0.17002  1.0000
  H   H4761     1.0  0.61197  0.10875  0.17466  1.0000
  H   H4762     1.0  0.62479  0.06358  0.19473  1.0000
  H   H4763     1.0  0.63939  0.04983  0.19397  1.0000
  H   H4764     1.0  0.63674  0.06050  0.20549  1.0000
  H   H4765     1.0  0.68208  0.14164  0.22626  1.0000
  H   H4766     1.0  0.53855  0.15911  0.19820  1.0000
  H   H4767     1.0  0.50262  0.10939  0.15769  1.0000
  H   H4768     1.0  0.86362  0.22620  0.20792  1.0000
  H   H4769     1.0  0.53691  0.10462  0.17204  1.0000
  N   N201      1.0  0.66853  0.01331  0.10160  1.0000
  C   C2794     1.0  0.68254  0.01452  0.10199  1.0000
  C   C2795     1.0  0.66719  0.01831  0.08701  1.0000
  C   C2796     1.0  0.66798  0.99847  0.10638  1.0000
  C   C2797     1.0  0.65793  0.02174  0.11092  1.0000
  C   C2798     1.0  0.68703  0.00811  0.11561  1.0000
  C   C2799     1.0  0.66718  0.03348  0.08094  1.0000
  H   H4770     1.0  0.51946  0.10635  0.17071  1.0000
  C   C2800     1.0  0.64273  0.02402  0.11052  1.0000
  H   H4771     1.0  0.69065  0.00978  0.09410  1.0000
  H   H4772     1.0  0.68318  0.02536  0.09965  1.0000
  H   H4773     1.0  0.65769  0.01671  0.08551  1.0000
  H   H4774     1.0  0.67564  0.01226  0.08039  1.0000
  C   C2801     1.0  0.65497  0.13697  0.22559  1.0000
  H   H4775     1.0  0.66643  0.99538  0.11762  1.0000
  H   H4776     1.0  0.65855  0.01714  0.12168  1.0000
  H   H4777     1.0  0.66016  0.03190  0.10931  1.0000
  H   H4778     1.0  0.68017  0.01305  0.12387  1.0000
  H   H4779     1.0  0.53152  0.12653  0.12492  1.0000
  S   S811      1.0  0.89326  0.22146  0.20211  1.0000
  H   H4780     1.0  0.66561  0.03606  0.07041  1.0000
  H   H4781     1.0  0.65865  0.04019  0.08670  1.0000
  H   H4782     1.0  0.67706  0.03594  0.08026  1.0000
  H   H4783     1.0  0.65573  0.06943  0.20469  1.0000
  H   H4784     1.0  0.68908  0.18761  0.05174  1.0000
  H   H4785     1.0  0.58978  0.15114  0.04135  1.0000
  H   H4786     1.0  0.63786  0.01613  0.11818  1.0000
  H   H4787     1.0  0.64100  0.02452  0.10048  1.0000
  H   H4788     1.0  0.63710  0.03407  0.11291  1.0000
  N   N202      1.0  0.75748  0.19235  0.13437  1.0000
  C   C2802     1.0  0.74226  0.19847  0.13691  1.0000
  C   C2803     1.0  0.76407  0.19921  0.12036  1.0000
  C   C2804     1.0  0.76387  0.19446  0.14462  1.0000
  C   C2805     1.0  0.75958  0.17730  0.13553  1.0000
  C   C2806     1.0  0.73396  0.19474  0.15159  1.0000
  C   C2807     1.0  0.76109  0.19554  0.10840  1.0000
  H   H4789     1.0  0.76663  0.20975  0.15346  1.0000
  C   C2808     1.0  0.77463  0.16923  0.13291  1.0000
  H   H4790     1.0  0.74020  0.20972  0.13405  1.0000
  H   H4791     1.0  0.73744  0.19549  0.13030  1.0000
  H   H4792     1.0  0.55149  0.20743  0.15340  1.0000
  H   H4793     1.0  0.55828  0.19362  0.14491  1.0000
  H   H4794     1.0  0.70385  0.20447  0.01851  1.0000
  H   H4795     1.0  0.77511  0.19005  0.14253  1.0000
  H   H4796     1.0  0.75470  0.17238  0.14588  1.0000
  H   H4797     1.0  0.75413  0.17513  0.12890  1.0000
  H   H4798     1.0  0.72290  0.19925  0.15176  1.0000
  H   H4799     1.0  0.73491  0.18364  0.15533  1.0000
  H   H4800     1.0  0.65943  0.99396  0.09153  1.0000
  H   H4801     1.0  0.55843  0.17690  0.16644  1.0000
  H   H4802     1.0  0.72827  0.17319  0.03724  1.0000
  C   C2809     1.0  0.84223  0.22100  0.19039  1.0000
  C   C2810     1.0  0.67565  0.20467  0.04211  1.0000
  C   C2811     1.0  0.59177  0.14193  0.03724  1.0000
  H   H4803     1.0  0.63061  0.22375  0.22260  1.0000
  H   H4804     1.0  0.77830  0.16532  0.14253  1.0000
  H   H4805     1.0  0.78178  0.17518  0.12546  1.0000
  H   H4806     1.0  0.77535  0.16049  0.12851  1.0000
  N   N203      1.0  0.61995  0.11054  0.10211  1.0000
  C   C2812     1.0  0.61802  0.11721  0.08791  1.0000
  C   C2813     1.0  0.60934  0.11872  0.11168  1.0000
  C   C2814     1.0  0.61805  0.09615  0.10608  1.0000
  C   C2815     1.0  0.63432  0.11024  0.10269  1.0000
  C   C2816     1.0  0.62729  0.10992  0.07658  1.0000
  C   C2817     1.0  0.61212  0.13248  0.11149  1.0000
  C   C2818     1.0  0.60479  0.09427  0.10373  1.0000
  C   C2819     1.0  0.63808  0.10384  0.11664  1.0000
  H   H4807     1.0  0.60719  0.11876  0.08726  1.0000
  H   H4808     1.0  0.62007  0.12757  0.08499  1.0000
  H   H4809     1.0  0.60791  0.11287  0.12239  1.0000
  H   H4810     1.0  0.59900  0.12099  0.10939  1.0000
  H   H4811     1.0  0.62687  0.08930  0.10070  1.0000
  H   H4812     1.0  0.61804  0.09185  0.11704  1.0000
  H   H4813     1.0  0.64193  0.10421  0.09554  1.0000
  H   H4814     1.0  0.63676  0.12049  0.09888  1.0000
  H   H4815     1.0  0.63786  0.11145  0.07434  1.0000
  H   H4816     1.0  0.62733  0.09898  0.07886  1.0000
  H   H4817     1.0  0.62351  0.11455  0.06708  1.0000
  H   H4818     1.0  0.60285  0.13850  0.11718  1.0000
  H   H4819     1.0  0.62063  0.13102  0.11652  1.0000
  H   H4820     1.0  0.61436  0.13877  0.10112  1.0000
  H   H4821     1.0  0.60430  0.08340  0.10750  1.0000
  H   H4822     1.0  0.60463  0.09679  0.09280  1.0000
  H   H4823     1.0  0.59551  0.10035  0.10936  1.0000
  H   H4824     1.0  0.64272  0.09283  0.11739  1.0000
  H   H4825     1.0  0.62922  0.10503  0.12534  1.0000
  H   H4826     1.0  0.64560  0.10887  0.11786  1.0000
  N   N204      1.0  0.70451  0.13191  0.12174  1.0000
  C   C2820     1.0  0.71011  0.12531  0.13441  1.0000
  C   C2821     1.0  0.71496  0.13930  0.11167  1.0000
  C   C2822     1.0  0.70317  0.12068  0.11612  1.0000
  C   C2823     1.0  0.69071  0.14126  0.12556  1.0000
  C   C2824     1.0  0.70176  0.11592  0.14566  1.0000
  C   C2825     1.0  0.71873  0.14999  0.11668  1.0000
  C   C2826     1.0  0.69828  0.12492  0.10270  1.0000
  C   C2827     1.0  0.68573  0.15296  0.11411  1.0000
  H   H4827     1.0  0.72079  0.11921  0.13182  1.0000
  H   H4828     1.0  0.71084  0.13314  0.13935  1.0000
  H   H4829     1.0  0.71170  0.14459  0.10203  1.0000
  H   H4830     1.0  0.72470  0.13191  0.10859  1.0000
  H   H4831     1.0  0.71317  0.11316  0.11456  1.0000
  H   H4832     1.0  0.69569  0.11490  0.12344  1.0000
  H   H4833     1.0  0.68258  0.13532  0.13017  1.0000
  H   H4834     1.0  0.69085  0.14627  0.13359  1.0000
  H   H4835     1.0  0.69076  0.12088  0.14841  1.0000
  H   H4836     1.0  0.70290  0.10614  0.14286  1.0000
  H   H4837     1.0  0.70581  0.11331  0.15501  1.0000
  H   H4838     1.0  0.72588  0.14513  0.12364  1.0000
  H   H4839     1.0  0.72409  0.15669  0.10786  1.0000
  C   C2828     1.0  0.64332  0.18947  0.15377  1.0000
  C   C2829     1.0  0.63736  0.16677  0.14390  1.0000
  H   H4840     1.0  0.64530  0.19890  0.15489  1.0000
  C   C2830     1.0  0.50854  0.10822  0.14732  1.0000
  H   H4841     1.0  0.65406  0.16780  0.15880  1.0000
  H   H4842     1.0  0.63432  0.16377  0.15516  1.0000
  H   H4843     1.0  0.68174  0.04917  0.19326  1.0000
  H   H4844     1.0  0.56902  0.18815  0.18018  1.0000
  H   H4845     1.0  0.55781  0.18996  0.20409  1.0000
  H   H4846     1.0  0.64844  0.16264  0.14045  1.0000
  C   C2831     1.0  0.54724  0.17705  0.19104  1.0000
  C   C2832     1.0  0.53817  0.16825  0.18978  1.0000
  H   H4847     1.0  0.67558  0.18699  0.02724  1.0000
  H   H4848     1.0  0.65462  0.08059  0.15656  1.0000
  H   H4849     1.0  0.66142  0.09539  0.15176  1.0000
  H   H4850     1.0  0.71288  0.16116  0.18856  1.0000
  Fe  Fe406     1.0  0.61297  0.21365  0.20917  1.0000
  H   H4851     1.0  0.84574  0.20954  0.16108  1.0000
  C   C2833     1.0  0.86100  0.19923  0.17444  1.0000
  C   C2834     1.0  0.68488  0.17979  0.03019  1.0000
  S   S812      1.0  0.62129  0.21434  0.18682  1.0000
  H   H4852     1.0  0.66672  0.16571  0.22085  1.0000
  H   H4853     1.0  0.63333  0.18843  0.16097  1.0000
  H   H4854     1.0  0.61995  0.22293  0.13700  1.0000
  S   S813      1.0  0.66139  0.19998  0.18411  1.0000
  C   C2835     1.0  0.67955  0.20445  0.14440  1.0000
  C   C2836     1.0  0.69000  0.16959  0.02071  1.0000
  H   H4855     1.0  0.51009  0.11822  0.14114  1.0000
  H   H4856     1.0  0.68433  0.19207  0.16324  1.0000
  H   H4857     1.0  0.62347  0.17200  0.00313  1.0000
  C   C2837     1.0  0.62204  0.16841  0.01430  1.0000
  H   H4858     1.0  0.62675  0.15061  0.99809  1.0000
  H   H4859     1.0  0.75697  0.09606  0.22625  1.0000
  C   C2838     1.0  0.69545  0.15579  0.21390  1.0000
  Fe  Fe407     1.0  0.71435  0.10263  0.20804  1.0000
  H   H4860     1.0  0.61860  0.14188  0.98388  1.0000
  C   C2839     1.0  0.87254  0.21025  0.18441  1.0000
  C   C2840     1.0  0.62383  0.12263  0.02342  1.0000
  H   H4861     1.0  0.72195  0.19020  0.02871  1.0000
  H   H4862     1.0  0.63231  0.14009  0.01898  1.0000
  C   C2841     1.0  0.61573  0.15014  0.00155  1.0000
  H   H4863     1.0  0.60996  0.16011  0.99666  1.0000
  C   C2842     1.0  0.60976  0.16147  0.02056  1.0000
  C   C2843     1.0  0.61389  0.13954  0.99493  1.0000
  H   H4864     1.0  0.60060  0.16901  0.01755  1.0000
  H   H4865     1.0  0.66170  0.16939  0.19388  1.0000
  N   N205      1.0  0.61130  0.14808  0.01684  1.0000
  C   C2844     1.0  0.67176  0.16402  0.18874  1.0000
  H   H4866     1.0  0.66949  0.15655  0.18446  1.0000
  C   C2845     1.0  0.62205  0.13770  0.02359  1.0000
  H   H4867     1.0  0.60800  0.16023  0.03176  1.0000
  H   H4868     1.0  0.62040  0.13832  0.03434  1.0000
  C   C2846     1.0  0.68979  0.19483  0.04176  1.0000
  H   H4869     1.0  0.69022  0.14986  0.19309  1.0000
  H   H4870     1.0  0.68575  0.18311  0.18909  1.0000
  H   H4871     1.0  0.66615  0.17948  0.20712  1.0000
  N   N206      1.0  0.68570  0.16502  0.20521  1.0000
  S   S814      1.0  0.60221  0.19686  0.21194  1.0000
  H   H4872     1.0  0.75984  0.18888  0.15502  1.0000
  C   C2847     1.0  0.85789  0.21241  0.22678  1.0000
  H   H4873     1.0  0.52596  0.19555  0.18149  1.0000
  H   H4874     1.0  0.71014  0.17743  0.17728  1.0000
  Fe  Fe408     1.0  0.62190  0.18286  0.21652  1.0000
  H   H4875     1.0  0.56085  0.20488  0.17410  1.0000
  H   H4876     1.0  0.68775  0.99698  0.11869  1.0000
  H   H4877     1.0  0.66138  0.13361  0.21654  1.0000
  H   H4878     1.0  0.85861  0.19371  0.18524  1.0000
  C   C2848     1.0  0.59741  0.14455  0.02172  1.0000
  H   H4879     1.0  0.67564  0.14913  0.20652  1.0000
  H   H4880     1.0  0.59725  0.13541  0.01849  1.0000
  H   H4881     1.0  0.56821  0.19655  0.15465  1.0000
  C   C2849     1.0  0.87357  0.21708  0.16008  1.0000
  H   H4882     1.0  0.53938  0.11852  0.11097  1.0000
  H   H4883     1.0  0.86655  0.20643  0.19468  1.0000
  H   H4884     1.0  0.76593  0.18483  0.10768  1.0000
  H   H4885     1.0  0.58178  0.13897  0.03964  1.0000
  H   H4886     1.0  0.61912  0.12906  0.99890  1.0000
  H   H4887     1.0  0.67250  0.20838  0.05173  1.0000
  S   S815      1.0  0.73945  0.22321  0.08920  1.0000
  H   H4888     1.0  0.83961  0.21095  0.19288  1.0000
  C   C2850     1.0  0.65702  0.99383  0.10255  1.0000
  H   H4889     1.0  0.88327  0.20934  0.15811  1.0000
  H   H4890     1.0  0.69603  0.15984  0.02559  1.0000
  C   C2851     1.0  0.55737  0.19914  0.19575  1.0000
  H   H4891     1.0  0.87486  0.22423  0.13842  1.0000
  H   H4892     1.0  0.68103  0.16725  0.01877  1.0000
  C   C2852     1.0  0.67317  0.17264  0.21360  1.0000
  H   H4893     1.0  0.89685  0.20025  0.22575  1.0000
  H   H4894     1.0  0.52937  0.21490  0.16500  1.0000
  C   C2853     1.0  0.86728  0.21830  0.21593  1.0000
  H   H4895     1.0  0.85535  0.23322  0.17559  1.0000
  H   H4896     1.0  0.86645  0.21045  0.14560  1.0000
  C   C2854     1.0  0.88596  0.20367  0.22603  1.0000
  H   H4897     1.0  0.69294  0.21118  0.99979  1.0000
  H   H4898     1.0  0.72688  0.22843  0.11628  1.0000
  H   H4899     1.0  0.87449  0.22005  0.18480  1.0000
  H   H4900     1.0  0.83250  0.22886  0.19033  1.0000
  H   H4901     1.0  0.68591  0.17833  0.22414  1.0000
  H   H4902     1.0  0.84649  0.22188  0.19859  1.0000
  C   C2855     1.0  0.62465  0.23060  0.22919  1.0000
  C   C2856     1.0  0.74906  0.10455  0.22931  1.0000
  H   H4903     1.0  0.84701  0.21581  0.22704  1.0000
  C   C2857     1.0  0.72715  0.12002  0.22781  1.0000
  H   H4904     1.0  0.71813  0.12361  0.22358  1.0000
  C   C2858     1.0  0.68879  0.14750  0.22755  1.0000
  H   H4905     1.0  0.76287  0.23459  0.08529  1.0000
  Fe  Fe409     1.0  0.75703  0.12709  0.26773  1.0000
  S   S816      1.0  0.77805  0.11343  0.26867  1.0000
  S   S817      1.0  0.74051  0.12903  0.25637  1.0000
  Fe  Fe410     1.0  0.75848  0.14305  0.28763  1.0000
  S   S818      1.0  0.77913  0.13073  0.29046  1.0000
  S   S819      1.0  0.74931  0.16212  0.29599  1.0000
  Fe  Fe411     1.0  0.78450  0.13245  0.26798  1.0000
  S   S820      1.0  0.80414  0.13917  0.25637  1.0000
  Fe  Fe412     1.0  0.77143  0.11264  0.29120  1.0000
  S   S821      1.0  0.77666  0.09419  0.30767  1.0000
  S   S822      1.0  0.76428  0.14617  0.26498  1.0000
  S   S823      1.0  0.74991  0.12483  0.29050  1.0000
  H   H4906     1.0  0.67951  0.12682  0.25718  1.0000
  H   H4907     1.0  0.87701  0.14529  0.32542  1.0000
  H   H4908     1.0  0.82543  0.00979  0.32232  1.0000
  H   H4909     1.0  0.88869  0.14481  0.33491  1.0000
  Fe  Fe413     1.0  0.85687  0.18209  0.26993  1.0000
  S   S824      1.0  0.86520  0.15952  0.27255  1.0000
  S   S825      1.0  0.85019  0.19610  0.25127  1.0000
  Fe  Fe414     1.0  0.85284  0.18151  0.29967  1.0000
  S   S826      1.0  0.86050  0.15904  0.30497  1.0000
  S   S827      1.0  0.84537  0.19250  0.31673  1.0000
  Fe  Fe415     1.0  0.87695  0.16240  0.28625  1.0000
  S   S828      1.0  0.89780  0.14943  0.28857  1.0000
  Fe  Fe416     1.0  0.84818  0.15801  0.29113  1.0000
  S   S829      1.0  0.83523  0.14245  0.29854  1.0000
  S   S830      1.0  0.87023  0.18523  0.28187  1.0000
  S   S831      1.0  0.83888  0.18018  0.28759  1.0000
  H   H4910     1.0  0.98411  0.09379  0.36598  1.0000
  H   H4911     1.0  0.82455  0.02212  0.30656  1.0000
  Fe  Fe417     1.0  0.77256  0.20213  0.34100  1.0000
  S   S832      1.0  0.75126  0.19850  0.34765  1.0000
  H   H4912     1.0  0.91974  0.09116  0.39631  1.0000
  Fe  Fe418     1.0  0.78029  0.18703  0.36780  1.0000
  S   S833      1.0  0.75966  0.18181  0.37700  1.0000
  S   S834      1.0  0.79979  0.18090  0.37558  1.0000
  Fe  Fe419     1.0  0.76127  0.17735  0.35682  1.0000
  S   S835      1.0  0.75633  0.15851  0.35485  1.0000
  Fe  Fe420     1.0  0.75111  0.20343  0.36715  1.0000
  S   S836      1.0  0.73192  0.21532  0.37877  1.0000
  S   S837      1.0  0.78259  0.18053  0.34851  1.0000
  S   S838      1.0  0.77163  0.20908  0.35968  1.0000
  Fe  Fe421     1.0  0.93777  0.12750  0.37248  1.0000
  S   S839      1.0  0.95502  0.11128  0.36486  1.0000
  S   S840      1.0  0.93056  0.12410  0.39514  1.0000
  Fe  Fe422     1.0  0.93487  0.14275  0.34406  1.0000
  S   S841      1.0  0.95213  0.12767  0.33421  1.0000
  S   S842      1.0  0.92177  0.16081  0.33265  1.0000
  Fe  Fe423     1.0  0.94232  0.11207  0.35050  1.0000
  S   S843      1.0  0.93871  0.09228  0.34907  1.0000
  Fe  Fe424     1.0  0.96317  0.12849  0.34964  1.0000
  C   C2859     1.0  0.97976  0.11005  0.38405  1.0000
  S   S844      1.0  0.92442  0.12710  0.35929  1.0000
  S   S845      1.0  0.94656  0.14480  0.35829  1.0000
  Fe  Fe425     1.0  0.84488  0.07524  0.33405  1.0000
  S   S846      1.0  0.86710  0.06489  0.33143  1.0000
  S   S847      1.0  0.83778  0.08343  0.31431  1.0000
  Fe  Fe426     1.0  0.84210  0.07321  0.36438  1.0000
  S   S848      1.0  0.86406  0.06204  0.36390  1.0000
  S   S849      1.0  0.82796  0.08387  0.38091  1.0000
  Fe  Fe427     1.0  0.86899  0.07751  0.34469  1.0000
  S   S850      1.0  0.88045  0.09435  0.33975  1.0000
  Fe  Fe428     1.0  0.86012  0.05021  0.35069  1.0000
  S   S851      1.0  0.84720  0.08888  0.34572  1.0000
  S   S852      1.0  0.83763  0.06026  0.35275  1.0000
  Fe  Fe429     1.0  0.84856  0.11161  0.43138  1.0000
  S   S853      1.0  0.84215  0.13151  0.41768  1.0000
  S   S854      1.0  0.85639  0.09240  0.42327  1.0000
  Fe  Fe430     1.0  0.84460  0.12492  0.45544  1.0000
  S   S855      1.0  0.83767  0.14593  0.44350  1.0000
  Fe  Fe431     1.0  0.82558  0.13618  0.43574  1.0000
  S   S856      1.0  0.80359  0.14470  0.43409  1.0000
  Fe  Fe432     1.0  0.85491  0.13925  0.42654  1.0000
  S   S857      1.0  0.86830  0.15299  0.41215  1.0000
  S   S858      1.0  0.83106  0.11556  0.44902  1.0000
  S   S859      1.0  0.86275  0.11890  0.43897  1.0000
  H   H4913     1.0  0.59182  0.17916  0.28905  1.0000
  C   C2860     1.0  0.85979  0.01593  0.35009  1.0000
  H   H4914     1.0  0.72484  0.20791  0.33306  1.0000
  C   C2861     1.0  0.84077  0.00474  0.36123  1.0000
  C   C2862     1.0  0.84749  0.01517  0.35971  1.0000
  H   H4915     1.0  0.83137  0.00413  0.36886  1.0000
  H   H4916     1.0  0.84332  0.02243  0.36624  1.0000
  C   C2863     1.0  0.83596  0.08639  0.39254  1.0000
  C   C2864     1.0  0.82970  0.09696  0.39959  1.0000
  C   C2865     1.0  0.83593  0.09904  0.40893  1.0000
  C   C2866     1.0  0.84823  0.09029  0.41158  1.0000
  C   C2867     1.0  0.85436  0.07963  0.40468  1.0000
  C   C2868     1.0  0.84836  0.07781  0.39507  1.0000
  H   H4917     1.0  0.81996  0.10346  0.39792  1.0000
  H   H4918     1.0  0.83103  0.10720  0.41432  1.0000
  H   H4919     1.0  0.86375  0.07269  0.40682  1.0000
  H   H4920     1.0  0.85311  0.06945  0.38997  1.0000
  H   H4921     1.0  0.86372  0.18735  0.35309  1.0000
  H   H4922     1.0  0.70900  0.08164  0.25118  1.0000
  H   H4923     1.0  0.86242  0.98878  0.33661  1.0000
  H   H4924     1.0  0.97553  0.14624  0.36367  1.0000
  C   C2869     1.0  0.72298  0.23058  0.37001  1.0000
  C   C2870     1.0  0.91336  0.13230  0.39977  1.0000
  C   C2871     1.0  0.90534  0.12705  0.41219  1.0000
  C   C2872     1.0  0.89147  0.13330  0.41595  1.0000
  C   C2873     1.0  0.88564  0.14501  0.40747  1.0000
  C   C2874     1.0  0.89372  0.15038  0.39511  1.0000
  C   C2875     1.0  0.90753  0.14390  0.39113  1.0000
  H   H4925     1.0  0.90984  0.11804  0.41883  1.0000
  H   H4926     1.0  0.88541  0.12924  0.42553  1.0000
  H   H4927     1.0  0.88928  0.15951  0.38856  1.0000
  H   H4928     1.0  0.91373  0.14801  0.38152  1.0000
  C   C2876     1.0  0.92259  0.09283  0.34632  1.0000
  C   C2877     1.0  0.91406  0.10520  0.34170  1.0000
  C   C2878     1.0  0.90126  0.10542  0.33958  1.0000
  C   C2879     1.0  0.89679  0.09332  0.34225  1.0000
  C   C2880     1.0  0.90524  0.08094  0.34700  1.0000
  C   C2881     1.0  0.91815  0.08071  0.34894  1.0000
  H   H4929     1.0  0.91744  0.11457  0.33951  1.0000
  H   H4930     1.0  0.89481  0.11503  0.33583  1.0000
  H   H4931     1.0  0.90186  0.07157  0.34909  1.0000
  H   H4932     1.0  0.92472  0.07111  0.35252  1.0000
  C   C2882     1.0  0.80002  0.17182  0.39234  1.0000
  C   C2883     1.0  0.78885  0.16655  0.40077  1.0000
  C   C2884     1.0  0.78990  0.15839  0.41370  1.0000
  C   C2885     1.0  0.80215  0.15535  0.41813  1.0000
  C   C2886     1.0  0.81326  0.16072  0.40972  1.0000
  C   C2887     1.0  0.81216  0.16899  0.39690  1.0000
  H   H4933     1.0  0.77948  0.16864  0.39728  1.0000
  H   H4934     1.0  0.78127  0.15427  0.42019  1.0000
  H   H4935     1.0  0.82265  0.15864  0.41315  1.0000
  H   H4936     1.0  0.82081  0.17308  0.39042  1.0000
  N   N207      1.0  0.89199  0.10196  0.39081  1.0000
  H   H4937     1.0  0.88321  0.10841  0.36717  1.0000
  H   H4938     1.0  0.86773  0.10256  0.37390  1.0000
  C   C2888     1.0  0.59188  0.20842  0.24907  1.0000
  H   H4939     1.0  0.78241  0.17768  0.29905  1.0000
  C   C2889     1.0  0.91525  0.15745  0.32040  1.0000
  C   C2890     1.0  0.91852  0.14443  0.31772  1.0000
  C   C2891     1.0  0.91317  0.14203  0.30791  1.0000
  C   C2892     1.0  0.90427  0.15256  0.30097  1.0000
  C   C2893     1.0  0.90078  0.16550  0.30386  1.0000
  C   C2894     1.0  0.90639  0.16797  0.31342  1.0000
  H   H4940     1.0  0.92535  0.13625  0.32304  1.0000
  H   H4941     1.0  0.91595  0.13200  0.30570  1.0000
  H   H4942     1.0  0.89402  0.17370  0.29847  1.0000
  H   H4943     1.0  0.90392  0.17808  0.31537  1.0000
  C   C2895     1.0  0.82790  0.19979  0.31747  1.0000
  C   C2896     1.0  0.81870  0.19947  0.33007  1.0000
  C   C2897     1.0  0.80456  0.20352  0.33073  1.0000
  C   C2898     1.0  0.79958  0.20812  0.31880  1.0000
  C   C2899     1.0  0.80882  0.20922  0.30618  1.0000
  C   C2900     1.0  0.82299  0.20501  0.30552  1.0000
  H   H4944     1.0  0.82244  0.19562  0.33934  1.0000
  H   H4945     1.0  0.79753  0.20291  0.34052  1.0000
  C   C2901     1.0  0.88443  0.16524  0.35023  1.0000
  H   H4946     1.0  0.92745  0.09103  0.37887  1.0000
  H   H4947     1.0  0.87027  0.10206  0.39513  1.0000
  H   H4948     1.0  0.80952  0.06107  0.30854  1.0000
  H   H4949     1.0  0.81298  0.04494  0.30366  1.0000
  H   H4950     1.0  0.70847  0.21949  0.33210  1.0000
  H   H4951     1.0  0.72661  0.08121  0.24316  1.0000
  C   C2902     1.0  0.63766  0.14499  0.24908  1.0000
  C   C2903     1.0  0.64837  0.13343  0.25010  1.0000
  H   H4952     1.0  0.63086  0.14789  0.25821  1.0000
  H   H4953     1.0  0.64984  0.12752  0.26001  1.0000
  C   C2904     1.0  0.79359  0.09120  0.30968  1.0000
  C   C2905     1.0  0.79685  0.08480  0.32237  1.0000
  C   C2906     1.0  0.81028  0.08275  0.32409  1.0000
  C   C2907     1.0  0.82061  0.08653  0.31297  1.0000
  C   C2908     1.0  0.81734  0.09285  0.30031  1.0000
  C   C2909     1.0  0.80386  0.09530  0.29871  1.0000
  H   H4954     1.0  0.78889  0.08173  0.33093  1.0000
  H   H4955     1.0  0.81264  0.07822  0.33397  1.0000
  H   H4956     1.0  0.82524  0.09595  0.29169  1.0000
  H   H4957     1.0  0.80145  0.10018  0.28888  1.0000
  C   C2910     1.0  0.81434  0.13883  0.26732  1.0000
  C   C2911     1.0  0.81333  0.13001  0.28006  1.0000
  C   C2912     1.0  0.82015  0.13087  0.28944  1.0000
  C   C2913     1.0  0.82814  0.14052  0.28608  1.0000
  C   C2914     1.0  0.82991  0.14880  0.27303  1.0000
  C   C2915     1.0  0.82305  0.14791  0.26363  1.0000
  H   H4958     1.0  0.80736  0.12241  0.28264  1.0000
  H   H4959     1.0  0.81917  0.12405  0.29930  1.0000
  H   H4960     1.0  0.72197  0.20852  0.35687  1.0000
  C   C2916     1.0  0.85640  0.22605  0.26013  1.0000
  C   C2917     1.0  0.75093  0.16098  0.31248  1.0000
  C   C2918     1.0  0.75325  0.17217  0.31560  1.0000
  C   C2919     1.0  0.75515  0.17137  0.32851  1.0000
  C   C2920     1.0  0.75396  0.15963  0.33863  1.0000
  C   C2921     1.0  0.75109  0.14861  0.33570  1.0000
  C   C2922     1.0  0.74984  0.14918  0.32255  1.0000
  H   H4961     1.0  0.75374  0.18144  0.30796  1.0000
  H   H4962     1.0  0.75749  0.17987  0.33060  1.0000
  H   H4963     1.0  0.74998  0.13958  0.34355  1.0000
  H   H4964     1.0  0.74779  0.14060  0.32024  1.0000
  H   H4965     1.0  0.68737  0.22630  0.34397  1.0000
  C   C2923     1.0  0.87653  0.19794  0.23707  1.0000
  H   H4966     1.0  0.88771  0.10415  0.46561  1.0000
  H   H4967     1.0  0.87494  0.98615  0.36388  1.0000
  H   H4968     1.0  0.67808  0.11413  0.27247  1.0000
  C   C2924     1.0  0.88341  0.12624  0.45924  1.0000
  H   H4969     1.0  0.83624  0.15616  0.27031  1.0000
  H   H4970     1.0  0.87815  0.16803  0.32556  1.0000
  C   C2925     1.0  0.89583  0.98671  0.35491  1.0000
  H   H4971     1.0  0.89208  0.16802  0.34077  1.0000
  H   H4972     1.0  0.64126  0.22839  0.23863  1.0000
  H   H4973     1.0  0.97333  0.10317  0.38410  1.0000
  C   C2926     1.0  0.70681  0.19142  0.34950  1.0000
  C   C2927     1.0  0.68347  0.21682  0.34777  1.0000
  C   C2928     1.0  0.88415  0.14995  0.44835  1.0000
  H   H4974     1.0  0.98549  0.08468  0.39695  1.0000
  C   C2929     1.0  0.63559  0.15270  0.23635  1.0000
  C   C2930     1.0  0.90416  0.13497  0.45660  1.0000
  H   H4975     1.0  0.90028  0.14642  0.35046  1.0000
  H   H4976     1.0  0.70147  0.18458  0.37588  1.0000
  S   S860      1.0  0.84703  0.11910  0.47732  1.0000
  H   H4977     1.0  0.90978  0.11825  0.44564  1.0000
  H   H4978     1.0  0.69913  0.18491  0.35313  1.0000
  H   H4979     1.0  0.89697  0.99558  0.35801  1.0000
  H   H4980     1.0  0.92297  0.12707  0.44297  1.0000
  C   C2931     1.0  0.86024  0.16174  0.35869  1.0000
  H   H4981     1.0  0.82407  0.15461  0.25369  1.0000
  H   H4982     1.0  0.88923  0.15843  0.44687  1.0000
  H   H4983     1.0  0.72934  0.18694  0.34721  1.0000
  C   C2932     1.0  0.91173  0.12847  0.44424  1.0000
  H   H4984     1.0  0.72138  0.17332  0.35774  1.0000
  H   H4985     1.0  0.89818  0.12062  0.38875  1.0000
  H   H4986     1.0  0.90802  0.12824  0.46559  1.0000
  H   H4987     1.0  0.97995  0.11749  0.37417  1.0000
  H   H4988     1.0  0.70718  0.19574  0.39199  1.0000
  C   C2933     1.0  0.60517  0.21306  0.26730  1.0000
  C   C2934     1.0  0.98663  0.14381  0.36168  1.0000
  H   H4989     1.0  0.59381  0.21508  0.27028  1.0000
  C   C2935     1.0  0.87663  0.12622  0.38926  1.0000
  C   C2936     1.0  0.79635  0.15717  0.46625  1.0000
  H   H4990     1.0  0.59131  0.21949  0.24710  1.0000
  C   C2937     1.0  0.68863  0.20818  0.36055  1.0000
  H   H4991     1.0  0.87577  0.23210  0.25329  1.0000
  H   H4992     1.0  0.67210  0.22009  0.35054  1.0000
  H   H4993     1.0  0.68229  0.20043  0.36546  1.0000
  H   H4994     1.0  0.72645  0.10920  0.28530  1.0000
  H   H4995     1.0  0.68777  0.12700  0.26977  1.0000
  H   H4996     1.0  0.62090  0.21576  0.27614  1.0000
  H   H4997     1.0  0.63200  0.18560  0.24349  1.0000
  H   H4998     1.0  0.89744  0.15327  0.47364  1.0000
  C   C2938     1.0  0.71704  0.21617  0.33737  1.0000
  H   H4999     1.0  0.68581  0.21528  0.36756  1.0000
  C   C2939     1.0  0.75053  0.11081  0.23899  1.0000
  H   H5000     1.0  0.87190  0.22435  0.24219  1.0000
  H   H5001     1.0  0.87951  0.11286  0.47944  1.0000
  H   H5002     1.0  0.79459  0.13823  0.46375  1.0000
  H   H5003     1.0  0.78678  0.16039  0.47360  1.0000
  H   H5004     1.0  0.88012  0.19016  0.24528  1.0000
  H   H5005     1.0  0.86424  0.16024  0.45963  1.0000
  C   C2940     1.0  0.80110  0.14156  0.46833  1.0000
  C   C2941     1.0  0.86856  0.15600  0.45035  1.0000
  H   H5006     1.0  0.58377  0.20576  0.25801  1.0000
  H   H5007     1.0  0.68591  0.21117  0.33959  1.0000
  C   C2942     1.0  0.72110  0.18166  0.34856  1.0000
  S   S861      1.0  0.62163  0.16681  0.23577  1.0000
  H   H5008     1.0  0.90908  0.13507  0.43469  1.0000
  H   H5009     1.0  0.80023  0.11617  0.46638  1.0000
  C   C2943     1.0  0.85833  0.99596  0.34321  1.0000
  N   N208      1.0  0.61123  0.19971  0.26284  1.0000
  H   H5010     1.0  0.62956  0.20708  0.25164  1.0000
  C   C2944     1.0  0.60791  0.18777  0.27402  1.0000
  C   C2945     1.0  0.63488  0.18547  0.25290  1.0000
  H   H5011     1.0  0.87740  0.13702  0.38580  1.0000
  C   C2946     1.0  0.59264  0.18823  0.28063  1.0000
  H   H5012     1.0  0.88431  0.17209  0.35673  1.0000
  C   C2947     1.0  0.89388  0.08391  0.41310  1.0000
  H   H5013     1.0  0.60726  0.18964  0.24920  1.0000
  H   H5014     1.0  0.61183  0.17817  0.27021  1.0000
  H   H5015     1.0  0.61320  0.18636  0.28231  1.0000
  H   H5016     1.0  0.64595  0.18565  0.25010  1.0000
  H   H5017     1.0  0.63387  0.17572  0.26020  1.0000
  H   H5018     1.0  0.72204  0.22488  0.33489  1.0000
  H   H5019     1.0  0.98751  0.15550  0.37532  1.0000
  H   H5020     1.0  0.88624  0.12392  0.44896  1.0000
  H   H5021     1.0  0.58757  0.19725  0.28517  1.0000
  H   H5022     1.0  0.86839  0.20262  0.33183  1.0000
  H   H5023     1.0  0.86125  0.16542  0.33211  1.0000
  H   H5024     1.0  0.76771  0.21034  0.28084  1.0000
  H   H5025     1.0  0.88377  0.09060  0.37012  1.0000
  H   H5026     1.0  0.88120  0.08639  0.39298  1.0000
  H   H5027     1.0  0.81363  0.02544  0.32259  1.0000
  N   N209      1.0  0.88099  0.11402  0.29354  1.0000
  C   C2948     1.0  0.88498  0.12305  0.27981  1.0000
  C   C2949     1.0  0.89004  0.11451  0.30230  1.0000
  C   C2950     1.0  0.86615  0.11978  0.29954  1.0000
  C   C2951     1.0  0.88284  0.09994  0.29137  1.0000
  C   C2952     1.0  0.87597  0.12518  0.26961  1.0000
  C   C2953     1.0  0.90560  0.10949  0.29721  1.0000
  C   C2954     1.0  0.86121  0.11615  0.31512  1.0000
  C   C2955     1.0  0.88054  0.08858  0.30409  1.0000
  H   H5028     1.0  0.88484  0.13331  0.28099  1.0000
  H   H5029     1.0  0.89568  0.11902  0.27461  1.0000
  H   H5030     1.0  0.88744  0.10852  0.31273  1.0000
  H   H5031     1.0  0.88828  0.12509  0.30364  1.0000
  H   H5032     1.0  0.86395  0.13110  0.29688  1.0000
  H   H5033     1.0  0.85912  0.11678  0.29516  1.0000
  H   H5034     1.0  0.87550  0.09995  0.28545  1.0000
  H   H5035     1.0  0.89305  0.09654  0.28484  1.0000
  H   H5036     1.0  0.86500  0.12957  0.27355  1.0000
  H   H5037     1.0  0.87953  0.13257  0.26029  1.0000
  H   H5038     1.0  0.87695  0.11568  0.26638  1.0000
  H   H5039     1.0  0.90981  0.11663  0.28804  1.0000
  H   H5040     1.0  0.91088  0.10913  0.30520  1.0000
  H   H5041     1.0  0.90825  0.09907  0.29535  1.0000
  H   H5042     1.0  0.86305  0.10509  0.31928  1.0000
  H   H5043     1.0  0.84997  0.12019  0.31782  1.0000
  H   H5044     1.0  0.86593  0.12100  0.32025  1.0000
  H   H5045     1.0  0.86951  0.08819  0.30746  1.0000
  H   H5046     1.0  0.88427  0.08938  0.31262  1.0000
  H   H5047     1.0  0.88656  0.07865  0.30163  1.0000
  C   C2956     1.0  0.82575  0.14614  0.37411  1.0000
  C   C2957     1.0  0.84040  0.11901  0.35882  1.0000
  C   C2958     1.0  0.83350  0.13558  0.38433  1.0000
  H   H5048     1.0  0.84321  0.13964  0.35296  1.0000
  H   H5049     1.0  0.83221  0.15365  0.36887  1.0000
  H   H5050     1.0  0.83350  0.11320  0.35774  1.0000
  H   H5051     1.0  0.84199  0.11561  0.36932  1.0000
  H   H5052     1.0  0.85050  0.11608  0.35191  1.0000
  H   H5053     1.0  0.82752  0.12799  0.39080  1.0000
  H   H5054     1.0  0.83515  0.14098  0.39125  1.0000
  H   H5055     1.0  0.84377  0.13052  0.37927  1.0000
  H   H5056     1.0  0.78007  0.15640  0.29589  1.0000
  H   H5057     1.0  0.81826  0.05933  0.29175  1.0000
  H   H5058     1.0  0.79359  0.19641  0.29267  1.0000
  C   C2959     1.0  0.78749  0.16194  0.28820  1.0000
  C   C2960     1.0  0.60648  0.20010  0.25032  1.0000
  H   H5059     1.0  0.77155  0.18011  0.28785  1.0000
  H   H5060     1.0  0.90593  0.09758  0.37212  1.0000
  H   H5061     1.0  0.88543  0.07928  0.41340  1.0000
  C   C2961     1.0  0.87760  0.14756  0.33494  1.0000
  H   H5062     1.0  0.71768  0.18905  0.37143  1.0000
  C   C2962     1.0  0.62665  0.19794  0.25906  1.0000
  C   C2963     1.0  0.90520  0.09434  0.38328  1.0000
  C   C2964     1.0  0.86246  0.20237  0.23746  1.0000
  C   C2965     1.0  0.70187  0.20145  0.38361  1.0000
  H   H5063     1.0  0.85177  0.15914  0.38050  1.0000
  C   C2966     1.0  0.91846  0.09603  0.38582  1.0000
  H   H5064     1.0  0.89752  0.11143  0.47175  1.0000
  H   H5065     1.0  0.85088  0.23267  0.26741  1.0000
  C   C2967     1.0  0.87154  0.16285  0.33458  1.0000
  H   H5066     1.0  0.86282  0.14854  0.45046  1.0000
  H   H5067     1.0  0.87199  0.14084  0.34339  1.0000
  H   H5068     1.0  0.86912  0.12492  0.38430  1.0000
  H   H5069     1.0  0.87315  0.18998  0.32214  1.0000
  H   H5070     1.0  0.90549  0.08326  0.38561  1.0000
  S   S862      1.0  0.67019  0.11463  0.24027  1.0000
  H   H5071     1.0  0.85319  0.17612  0.37249  1.0000
  H   H5072     1.0  0.87201  0.12875  0.46149  1.0000
  H   H5073     1.0  0.87262  0.12447  0.40040  1.0000
  H   H5074     1.0  0.77758  0.13058  0.47780  1.0000
  H   H5075     1.0  0.73371  0.09826  0.27366  1.0000
  H   H5076     1.0  0.88397  0.14327  0.35979  1.0000
  C   C2968     1.0  0.89093  0.11702  0.38529  1.0000
  H   H5077     1.0  0.88395  0.19015  0.33299  1.0000
  H   H5078     1.0  0.83012  0.20573  0.29576  1.0000
  H   H5079     1.0  0.86254  0.15054  0.36048  1.0000
  H   H5080     1.0  0.75948  0.10709  0.24337  1.0000
  C   C2969     1.0  0.74024  0.12166  0.24315  1.0000
  N   N210      1.0  0.79482  0.12879  0.33240  1.0000
  C   C2970     1.0  0.79005  0.14213  0.32319  1.0000
  C   C2971     1.0  0.79174  0.11776  0.32780  1.0000
  C   C2972     1.0  0.81014  0.12680  0.33083  1.0000
  C   C2973     1.0  0.78726  0.12958  0.34681  1.0000
  C   C2974     1.0  0.79285  0.15476  0.32587  1.0000
  C   C2975     1.0  0.77646  0.11888  0.32852  1.0000
  C   C2976     1.0  0.81888  0.11218  0.33212  1.0000
  C   C2977     1.0  0.78882  0.11618  0.35750  1.0000
  H   H5081     1.0  0.79493  0.14163  0.31238  1.0000
  H   H5082     1.0  0.77884  0.14435  0.32394  1.0000
  H   H5083     1.0  0.79540  0.10756  0.33387  1.0000
  H   H5084     1.0  0.79737  0.11746  0.31710  1.0000
  H   H5085     1.0  0.81490  0.13217  0.32061  1.0000
  H   H5086     1.0  0.81233  0.13143  0.33808  1.0000
  H   H5087     1.0  0.79053  0.13690  0.35046  1.0000
  H   H5088     1.0  0.77608  0.13374  0.34738  1.0000
  H   H5089     1.0  0.80391  0.15399  0.32491  1.0000
  H   H5090     1.0  0.78935  0.16381  0.31825  1.0000
  H   H5091     1.0  0.78686  0.15683  0.33591  1.0000
  H   H5092     1.0  0.77526  0.10937  0.32682  1.0000
  H   H5093     1.0  0.76979  0.12012  0.33856  1.0000
  H   H5094     1.0  0.77268  0.12716  0.32040  1.0000
  H   H5095     1.0  0.81965  0.10822  0.32312  1.0000
  H   H5096     1.0  0.81511  0.10505  0.34145  1.0000
  H   H5097     1.0  0.82948  0.11234  0.33211  1.0000
  H   H5098     1.0  0.78451  0.10855  0.35554  1.0000
  H   H5099     1.0  0.78291  0.11827  0.36760  1.0000
  H   H5100     1.0  0.79959  0.11182  0.35836  1.0000
  N   N211      1.0  0.79057  0.18684  0.27817  1.0000
  C   C2978     1.0  0.78851  0.19917  0.28392  1.0000
  C   C2979     1.0  0.80572  0.18044  0.27572  1.0000
  C   C2980     1.0  0.78535  0.19143  0.26526  1.0000
  C   C2981     1.0  0.81521  0.18922  0.26526  1.0000
  C   C2982     1.0  0.78745  0.18054  0.25708  1.0000
  H   H5101     1.0  0.79338  0.20711  0.27627  1.0000
  H   H5102     1.0  0.80803  0.17092  0.27216  1.0000
  H   H5103     1.0  0.80927  0.17735  0.28544  1.0000
  H   H5104     1.0  0.77408  0.19562  0.26751  1.0000
  H   H5105     1.0  0.78946  0.20020  0.25831  1.0000
  H   H5106     1.0  0.77346  0.21514  0.29294  1.0000
  H   H5107     1.0  0.81244  0.19267  0.25522  1.0000
  H   H5108     1.0  0.81558  0.19801  0.26896  1.0000
  H   H5109     1.0  0.82584  0.18293  0.26359  1.0000
  H   H5110     1.0  0.77887  0.17515  0.26083  1.0000
  H   H5111     1.0  0.79729  0.17297  0.25699  1.0000
  H   H5112     1.0  0.78779  0.18553  0.24622  1.0000
  N   N212      1.0  0.70706  0.10117  0.26713  1.0000
  C   C2983     1.0  0.71230  0.10960  0.27333  1.0000
  C   C2984     1.0  0.69807  0.11095  0.25796  1.0000
  C   C2985     1.0  0.71931  0.09287  0.25900  1.0000
  C   C2986     1.0  0.69924  0.09209  0.27858  1.0000
  C   C2987     1.0  0.84627  0.99492  0.35318  1.0000
  C   C2988     1.0  0.68519  0.12015  0.26498  1.0000
  H   H5113     1.0  0.68282  0.15408  0.23483  1.0000
  C   C2989     1.0  0.69169  0.08349  0.27470  1.0000
  H   H5114     1.0  0.71605  0.11807  0.26542  1.0000
  H   H5115     1.0  0.70394  0.11456  0.28085  1.0000
  H   H5116     1.0  0.69440  0.10571  0.25231  1.0000
  H   H5117     1.0  0.70410  0.11769  0.24987  1.0000
  H   H5118     1.0  0.72727  0.09891  0.25380  1.0000
  H   H5119     1.0  0.72435  0.08383  0.26578  1.0000
  H   H5120     1.0  0.70627  0.08469  0.28481  1.0000
  H   H5121     1.0  0.69169  0.09791  0.28598  1.0000
  C   C2990     1.0  0.88305  0.14153  0.47321  1.0000
  C   C2991     1.0  0.72868  0.12636  0.23734  1.0000
  C   C2992     1.0  0.86742  0.23208  0.24861  1.0000
  H   H5122     1.0  0.72128  0.09345  0.28914  1.0000
  H   H5123     1.0  0.69067  0.20273  0.38797  1.0000
  N   N213      1.0  0.70371  0.20142  0.35849  1.0000
  H   H5124     1.0  0.98810  0.09424  0.40682  1.0000
  C   C2993     1.0  0.88728  0.11302  0.46968  1.0000
  H   H5125     1.0  0.84894  0.22346  0.25605  1.0000
  H   H5126     1.0  0.69851  0.07351  0.27322  1.0000
  H   H5127     1.0  0.68735  0.08854  0.26563  1.0000
  H   H5128     1.0  0.68264  0.08163  0.28303  1.0000
  N   N214      1.0  0.83232  0.04097  0.32019  1.0000
  C   C2994     1.0  0.84411  0.04348  0.32417  1.0000
  C   C2995     1.0  0.81955  0.04477  0.33079  1.0000
  C   C2996     1.0  0.83117  0.05009  0.30642  1.0000
  C   C2997     1.0  0.83553  0.02618  0.31958  1.0000
  C   C2998     1.0  0.85822  0.04102  0.31424  1.0000
  C   C2999     1.0  0.81904  0.03585  0.34523  1.0000
  C   C3000     1.0  0.81712  0.05388  0.30256  1.0000
  C   C3001     1.0  0.82407  0.02081  0.31754  1.0000
  H   H5129     1.0  0.84185  0.05414  0.32544  1.0000
  H   H5130     1.0  0.84563  0.03697  0.33414  1.0000
  H   H5131     1.0  0.81009  0.04466  0.32799  1.0000
  H   H5132     1.0  0.81816  0.05543  0.33159  1.0000
  H   H5133     1.0  0.83364  0.06003  0.30552  1.0000
  H   H5134     1.0  0.83887  0.04555  0.29818  1.0000
  H   H5135     1.0  0.84439  0.02396  0.31106  1.0000
  H   H5136     1.0  0.83921  0.01945  0.32870  1.0000
  H   H5137     1.0  0.86584  0.04348  0.31824  1.0000
  H   H5138     1.0  0.86206  0.03021  0.31350  1.0000
  H   H5139     1.0  0.85814  0.04769  0.30403  1.0000
  H   H5140     1.0  0.82030  0.02495  0.34544  1.0000
  H   H5141     1.0  0.82670  0.03711  0.35000  1.0000
  H   H5142     1.0  0.80883  0.03914  0.35177  1.0000
  S   S863      1.0  0.86927  0.02806  0.34877  1.0000
  H   H5143     1.0  0.81643  0.15181  0.38005  1.0000
  C   C3002     1.0  0.77347  0.20630  0.28904  1.0000
  H   H5144     1.0  0.89257  0.99049  0.34510  1.0000
  H   H5145     1.0  0.58704  0.18759  0.27338  1.0000
  C   C3003     1.0  0.72406  0.10196  0.28076  1.0000
  H   H5146     1.0  0.90382  0.07776  0.40861  1.0000
  H   H5147     1.0  0.60752  0.22157  0.25863  1.0000
  C   C3004     1.0  0.89159  0.09904  0.40579  1.0000
  C   C3005     1.0  0.83468  0.13449  0.35465  1.0000
  H   H5148     1.0  0.83128  0.15946  0.33932  1.0000
  H   H5149     1.0  0.72074  0.13481  0.24043  1.0000
  H   H5150     1.0  0.81510  0.17113  0.33978  1.0000
  H   H5151     1.0  0.78799  0.15983  0.27831  1.0000
  C   C3006     1.0  0.89057  0.15059  0.35720  1.0000
  H   H5152     1.0  0.61327  0.20471  0.24095  1.0000
  C   C3007     1.0  0.78251  0.17716  0.28858  1.0000
  H   H5153     1.0  0.91893  0.10682  0.38374  1.0000
  H   H5154     1.0  0.89423  0.11943  0.37401  1.0000
  H   H5155     1.0  0.79209  0.14415  0.37489  1.0000
  H   H5156     1.0  0.81155  0.13932  0.46173  1.0000
  N   N215      1.0  0.82197  0.14084  0.36404  1.0000
  H   H5157     1.0  0.89393  0.08318  0.42384  1.0000
  H   H5158     1.0  0.87449  0.00700  0.33412  1.0000
  H   H5159     1.0  0.79759  0.15758  0.29100  1.0000
  H   H5160     1.0  0.81829  0.12167  0.37744  1.0000
  H   H5161     1.0  0.83274  0.13593  0.34437  1.0000
  C   C3008     1.0  0.82181  0.16366  0.34629  1.0000
  C   C3009     1.0  0.86509  0.00636  0.34175  1.0000
  C   C3010     1.0  0.87324  0.19169  0.33207  1.0000
  C   C3011     1.0  0.61005  0.21479  0.27919  1.0000
  H   H5162     1.0  0.80953  0.14927  0.34896  1.0000
  C   C3012     1.0  0.81390  0.15279  0.35556  1.0000
  C   C3013     1.0  0.81293  0.13080  0.37108  1.0000
  C   C3014     1.0  0.88022  0.09750  0.38895  1.0000
  H   H5163     1.0  0.85425  0.18546  0.34232  1.0000
  C   C3015     1.0  0.87878  0.09995  0.37418  1.0000
  C   C3016     1.0  0.71688  0.08776  0.24764  1.0000
  H   H5164     1.0  0.82423  0.16955  0.35227  1.0000
  H   H5165     1.0  0.79388  0.12753  0.38535  1.0000
  N   N216      1.0  0.88869  0.13817  0.45936  1.0000
  C   C3017     1.0  0.99286  0.09043  0.39729  1.0000
  H   H5166     1.0  0.80495  0.15840  0.36209  1.0000
  H   H5167     1.0  0.80504  0.21301  0.29694  1.0000
  H   H5168     1.0  0.89928  0.10341  0.40770  1.0000
  H   H5169     1.0  0.81045  0.12693  0.36342  1.0000
  S   S864      1.0  0.78188  0.21161  0.31973  1.0000
  C   C3018     1.0  0.79919  0.13606  0.38050  1.0000
  H   H5170     1.0  0.80068  0.13961  0.38890  1.0000
  H   H5171     1.0  0.63079  0.19694  0.26805  1.0000
  H   H5172     1.0  0.70586  0.19660  0.33896  1.0000
  H   H5173     1.0  0.86666  0.16451  0.44157  1.0000
  H   H5174     1.0  0.84995  0.16497  0.35612  1.0000
  H   H5175     1.0  0.89330  0.15069  0.36665  1.0000
  H   H5176     1.0  0.76792  0.19962  0.29766  1.0000
  H   H5177     1.0  0.88151  0.10412  0.41135  1.0000
  H   H5178     1.0  0.88739  0.14691  0.43836  1.0000
  H   H5179     1.0  0.72349  0.17682  0.33973  1.0000
  H   H5180     1.0  0.86828  0.16308  0.37566  1.0000
  H   H5181     1.0  0.79433  0.16142  0.45588  1.0000
  C   C3019     1.0  0.86480  0.18307  0.34417  1.0000
  C   C3020     1.0  0.65699  0.12932  0.23840  1.0000
  C   C3021     1.0  0.85844  0.16533  0.37250  1.0000
  H   H5182     1.0  0.96117  0.12305  0.39318  1.0000
  S   S865      1.0  0.98617  0.12761  0.34487  1.0000
  N   N217      1.0  0.87054  0.16788  0.34705  1.0000
  H   H5183     1.0  0.90794  0.14438  0.45480  1.0000
  H   H5184     1.0  0.70695  0.22144  0.35675  1.0000
  H   H5185     1.0  0.70449  0.21155  0.38009  1.0000
  H   H5186     1.0  0.81871  0.11793  0.47740  1.0000
  H   H5187     1.0  0.71420  0.09633  0.23921  1.0000
  H   H5188     1.0  0.60854  0.20652  0.28829  1.0000
  H   H5189     1.0  0.80452  0.16175  0.46680  1.0000
  H   H5190     1.0  0.86150  0.21632  0.26598  1.0000
  H   H5191     1.0  0.60393  0.22449  0.28217  1.0000
  C   C3022     1.0  0.71239  0.21196  0.35297  1.0000
  C   C3023     1.0  0.70647  0.19343  0.37218  1.0000
  H   H5192     1.0  0.88207  0.16367  0.46799  1.0000
  H   H5193     1.0  0.80756  0.10106  0.47690  1.0000
  H   H5194     1.0  0.73719  0.23026  0.35066  1.0000
  C   C3024     1.0  0.80101  0.11144  0.47704  1.0000
  H   H5195     1.0  0.58943  0.20664  0.24015  1.0000
  H   H5196     1.0  0.97629  0.12641  0.39503  1.0000
  H   H5197     1.0  0.69698  0.14007  0.23229  1.0000
  H   H5198     1.0  0.84173  0.14879  0.47375  1.0000
  H   H5199     1.0  0.97007  0.11146  0.40546  1.0000
  C   C3025     1.0  0.97157  0.11810  0.39519  1.0000
  C   C3026     1.0  0.88627  0.15434  0.47494  1.0000
  H   H5200     1.0  0.89189  0.23256  0.23167  1.0000
  H   H5201     1.0  0.87177  0.14268  0.47615  1.0000
  C   C3027     1.0  0.63072  0.23339  0.23819  1.0000
  C   C3028     1.0  0.99419  0.13534  0.35265  1.0000
  H   H5202     1.0  0.70697  0.23377  0.38776  1.0000
  N   N218      1.0  0.99413  0.10217  0.38527  1.0000
  C   C3029     1.0  0.99345  0.14904  0.36828  1.0000
  C   C3030     1.0  0.99424  0.08830  0.36832  1.0000
  H   H5203     1.0  0.99325  0.07896  0.37629  1.0000
  H   H5204     1.0  0.66800  0.18228  0.23088  1.0000
  H   H5205     1.0  0.87490  0.98776  0.62111  1.0000
  H   H5206     1.0  0.81109  0.21626  0.54008  1.0000
  H   H5207     1.0  0.82434  0.01927  0.61142  1.0000
  Fe  Fe433     1.0  0.81575  0.12595  0.69640  1.0000
  S   S866      1.0  0.79316  0.13358  0.70421  1.0000
  S   S867      1.0  0.82363  0.11932  0.67635  1.0000
  Fe  Fe434     1.0  0.79929  0.15039  0.70879  1.0000
  S   S868      1.0  0.78965  0.17267  0.70565  1.0000
  H   H5208     1.0  0.89945  0.10316  0.60297  1.0000
  S   S869      1.0  0.82142  0.14403  0.69896  1.0000
  H   H5209     1.0  0.78702  0.12752  0.50148  1.0000
  H   H5210     1.0  0.85790  0.17081  0.66510  1.0000
  C   C3031     1.0  0.82699  0.17694  0.53667  1.0000
  C   C3032     1.0  0.77497  0.13604  0.48611  1.0000
  C   C3033     1.0  0.82694  0.18208  0.67899  1.0000
  S   S870      1.0  0.89862  0.17801  0.71106  1.0000
  H   H5211     1.0  0.83931  0.19797  0.53383  1.0000
  C   C3034     1.0  0.86165  0.12361  0.63857  1.0000
  H   H5212     1.0  0.83690  0.17685  0.65908  1.0000
  Fe  Fe435     1.0  0.79738  0.12180  0.72454  1.0000
  H   H5213     1.0  0.88416  0.19741  0.62428  1.0000
  S   S871      1.0  0.86283  0.20055  0.70802  1.0000
  H   H5214     1.0  0.82098  0.21534  0.69386  1.0000
  C   C3035     1.0  0.83115  0.17235  0.66917  1.0000
  S   S872      1.0  0.79694  0.19668  0.64265  1.0000
  C   C3036     1.0  0.84504  0.17156  0.69188  1.0000
  C   C3037     1.0  0.82702  0.15923  0.72702  1.0000
  H   H5215     1.0  0.92080  0.19867  0.62765  1.0000
  H   H5216     1.0  0.83859  0.00956  0.61845  1.0000
  H   H5217     1.0  0.83415  0.21431  0.55590  1.0000
  S   S873      1.0  0.92310  0.13062  0.65424  1.0000
  Fe  Fe436     1.0  0.92392  0.14479  0.61578  1.0000
  S   S874      1.0  0.90432  0.14537  0.63136  1.0000
  S   S875      1.0  0.92446  0.15576  0.59400  1.0000
  Fe  Fe437     1.0  0.91472  0.15176  0.64375  1.0000
  S   S876      1.0  0.90184  0.16965  0.65279  1.0000
  Fe  Fe438     1.0  0.91404  0.12413  0.64058  1.0000
  S   S877      1.0  0.89872  0.11078  0.65004  1.0000
  S   S878      1.0  0.93378  0.15312  0.62731  1.0000
  S   S879      1.0  0.93314  0.12292  0.62389  1.0000
  Fe  Fe439     1.0  0.86460  0.12253  0.55604  1.0000
  S   S880      1.0  0.87698  0.13280  0.53683  1.0000
  S   S881      1.0  0.86971  0.09977  0.56054  1.0000
  Fe  Fe440     1.0  0.84938  0.14894  0.56480  1.0000
  S   S882      1.0  0.86032  0.16136  0.54604  1.0000
  S   S883      1.0  0.83461  0.15752  0.58235  1.0000
  Fe  Fe441     1.0  0.85704  0.14757  0.53464  1.0000
  S   S884      1.0  0.85037  0.15654  0.51446  1.0000
  Fe  Fe442     1.0  0.87904  0.14532  0.55009  1.0000
  S   S885      1.0  0.89931  0.15024  0.54790  1.0000
  S   S886      1.0  0.84436  0.13645  0.55321  1.0000
  S   S887      1.0  0.86834  0.13381  0.56946  1.0000
  Fe  Fe443     1.0  0.85218  0.05123  0.65781  1.0000
  S   S888      1.0  0.87288  0.03726  0.65264  1.0000
  S   S889      1.0  0.84306  0.05595  0.67869  1.0000
  Fe  Fe444     1.0  0.84875  0.05933  0.62895  1.0000
  S   S890      1.0  0.86919  0.04652  0.62130  1.0000
  S   S891      1.0  0.83456  0.07331  0.61582  1.0000
  Fe  Fe445     1.0  0.86324  0.03043  0.63960  1.0000
  S   S892      1.0  0.86950  0.00917  0.63502  1.0000
  Fe  Fe446     1.0  0.87704  0.05435  0.63481  1.0000
  S   S893      1.0  0.89695  0.06158  0.62699  1.0000
  S   S894      1.0  0.84210  0.04290  0.64646  1.0000
  S   S895      1.0  0.85706  0.06864  0.64075  1.0000
  C   C3038     1.0  0.91772  0.10835  0.58935  1.0000
  C   C3039     1.0  0.85901  0.99845  0.63509  1.0000
  C   C3040     1.0  0.84559  0.99935  0.64290  1.0000
  S   S896      1.0  0.81961  0.11295  0.71644  1.0000
  C   C3041     1.0  0.83000  0.11968  0.62868  1.0000
  H   H5218     1.0  0.92523  0.18086  0.63398  1.0000
  H   H5219     1.0  0.82352  0.12545  0.62122  1.0000
  H   H5220     1.0  0.84123  0.00692  0.64906  1.0000
  H   H5221     1.0  0.81117  0.21058  0.56300  1.0000
  H   H5222     1.0  0.81230  0.17813  0.55531  1.0000
  C   C3042     1.0  0.83566  0.01541  0.60875  1.0000
  C   C3043     1.0  0.85940  0.09252  0.57552  1.0000
  C   C3044     1.0  0.86354  0.07873  0.58123  1.0000
  C   C3045     1.0  0.85596  0.07289  0.59367  1.0000
  C   C3046     1.0  0.84394  0.08066  0.60019  1.0000
  C   C3047     1.0  0.83952  0.09436  0.59426  1.0000
  C   C3048     1.0  0.84741  0.10038  0.58206  1.0000
  H   H5223     1.0  0.87280  0.07264  0.57619  1.0000
  H   H5224     1.0  0.85933  0.06232  0.59810  1.0000
  H   H5225     1.0  0.83015  0.10038  0.59922  1.0000
  H   H5226     1.0  0.84416  0.11104  0.57764  1.0000
  C   C3049     1.0  0.89864  0.09712  0.64343  1.0000
  C   C3050     1.0  0.90933  0.09244  0.63314  1.0000
  C   C3051     1.0  0.90895  0.08127  0.62841  1.0000
  C   C3052     1.0  0.89770  0.07502  0.63363  1.0000
  C   C3053     1.0  0.88706  0.07974  0.64393  1.0000
  C   C3054     1.0  0.88758  0.09067  0.64887  1.0000
  H   H5227     1.0  0.91801  0.09720  0.62908  1.0000
  H   H5228     1.0  0.91748  0.07738  0.62081  1.0000
  H   H5229     1.0  0.87858  0.07476  0.64835  1.0000
  H   H5230     1.0  0.87942  0.09404  0.65704  1.0000
  C   C3055     1.0  0.91767  0.15226  0.58203  1.0000
  C   C3056     1.0  0.90611  0.14656  0.58555  1.0000
  C   C3057     1.0  0.90012  0.14588  0.57526  1.0000
  C   C3058     1.0  0.90597  0.15056  0.56151  1.0000
  C   C3059     1.0  0.91768  0.15583  0.55817  1.0000
  C   C3060     1.0  0.92338  0.15681  0.56833  1.0000
  H   H5231     1.0  0.90155  0.14314  0.59614  1.0000
  H   H5232     1.0  0.89102  0.14186  0.57791  1.0000
  H   H5233     1.0  0.92227  0.15944  0.54762  1.0000
  H   H5234     1.0  0.93222  0.16131  0.56552  1.0000
  S   S897      1.0  0.81446  0.22596  0.64388  1.0000
  C   C3061     1.0  0.85209  0.12384  0.49966  1.0000
  C   C3062     1.0  0.85288  0.13189  0.50804  1.0000
  C   C3063     1.0  0.84956  0.14606  0.50414  1.0000
  H   H5235     1.0  0.86614  0.11682  0.64715  1.0000
  H   H5236     1.0  0.95913  0.17924  0.63332  1.0000
  H   H5237     1.0  0.85458  0.11287  0.50286  1.0000
  H   H5238     1.0  0.85598  0.12711  0.51758  1.0000
  H   H5239     1.0  0.84766  0.21345  0.54118  1.0000
  H   H5240     1.0  0.91726  0.11578  0.59534  1.0000
  C   C3064     1.0  0.87304  0.17123  0.59663  1.0000
  H   H5241     1.0  0.96317  0.15081  0.63662  1.0000
  C   C3065     1.0  0.82808  0.17903  0.59476  1.0000
  C   C3066     1.0  0.83730  0.17248  0.58470  1.0000
  H   H5242     1.0  0.81544  0.17961  0.72806  1.0000
  S   S898      1.0  0.85570  0.21448  0.64090  1.0000
  H   H5243     1.0  0.86126  0.18546  0.65270  1.0000
  H   H5244     1.0  0.81973  0.17456  0.60140  1.0000
  H   H5245     1.0  0.86440  0.17758  0.69011  1.0000
  H   H5246     1.0  0.79241  0.10475  0.68576  1.0000
  C   C3067     1.0  0.90049  0.17093  0.66947  1.0000
  C   C3068     1.0  0.89355  0.18334  0.67310  1.0000
  C   C3069     1.0  0.89279  0.18541  0.68590  1.0000
  C   C3070     1.0  0.89894  0.17501  0.69530  1.0000
  C   C3071     1.0  0.90586  0.16244  0.69179  1.0000
  C   C3072     1.0  0.90660  0.16036  0.67887  1.0000
  H   H5247     1.0  0.88907  0.19155  0.66579  1.0000
  H   H5248     1.0  0.88785  0.19526  0.68830  1.0000
  H   H5249     1.0  0.91073  0.15438  0.69903  1.0000
  H   H5250     1.0  0.91210  0.15075  0.67610  1.0000
  N   N219      1.0  0.84296  0.02699  0.60260  1.0000
  H   H5251     1.0  0.86219  0.17541  0.60119  1.0000
  H   H5252     1.0  0.84798  0.15172  0.60776  1.0000
  H   H5253     1.0  0.76054  0.22715  0.64605  1.0000
  H   H5254     1.0  0.87018  0.08865  0.60231  1.0000
  H   H5255     1.0  0.88497  0.08523  0.60872  1.0000
  H   H5256     1.0  0.92172  0.11283  0.57856  1.0000
  C   C3073     1.0  0.82940  0.10170  0.67712  1.0000
  C   C3074     1.0  0.82813  0.09634  0.66681  1.0000
  C   C3075     1.0  0.83255  0.08236  0.66714  1.0000
  C   C3076     1.0  0.83823  0.07359  0.67783  1.0000
  C   C3077     1.0  0.83947  0.07891  0.68820  1.0000
  C   C3078     1.0  0.83512  0.09296  0.68781  1.0000
  H   H5257     1.0  0.82338  0.10295  0.65875  1.0000
  H   H5258     1.0  0.83118  0.07830  0.65931  1.0000
  H   H5259     1.0  0.84390  0.07216  0.69647  1.0000
  H   H5260     1.0  0.83630  0.09699  0.69573  1.0000
  C   C3079     1.0  0.79108  0.17961  0.68824  1.0000
  C   C3080     1.0  0.79146  0.19335  0.68309  1.0000
  C   C3081     1.0  0.79355  0.19867  0.66902  1.0000
  C   C3082     1.0  0.79473  0.19033  0.66020  1.0000
  C   C3083     1.0  0.79392  0.17672  0.66542  1.0000
  C   C3084     1.0  0.79240  0.17129  0.67939  1.0000
  H   H5261     1.0  0.79044  0.19978  0.68995  1.0000
  S   S899      1.0  0.96350  0.12215  0.63980  1.0000
  H   H5262     1.0  0.79475  0.17030  0.65861  1.0000
  H   H5263     1.0  0.79210  0.16069  0.68331  1.0000
  H   H5264     1.0  0.80168  0.09431  0.71891  1.0000
  Fe  Fe447     1.0  0.82905  0.22052  0.60691  1.0000
  H   H5265     1.0  0.84236  0.13124  0.60603  1.0000
  C   C3085     1.0  0.86906  0.21293  0.60337  1.0000
  H   H5266     1.0  0.81929  0.17813  0.68797  1.0000
  H   H5267     1.0  0.92715  0.20423  0.64531  1.0000
  H   H5268     1.0  0.79505  0.19368  0.56902  1.0000
  C   C3086     1.0  0.89518  0.19044  0.60523  1.0000
  Fe  Fe448     1.0  0.83641  0.22003  0.63306  1.0000
  H   H5269     1.0  0.82754  0.99089  0.64905  1.0000
  C   C3087     1.0  0.84075  0.03465  0.61356  1.0000
  H   H5270     1.0  0.81259  0.14529  0.62983  1.0000
  C   C3088     1.0  0.79748  0.20358  0.54246  1.0000
  H   H5271     1.0  0.80927  0.05621  0.72145  1.0000
  H   H5272     1.0  0.90155  0.18851  0.62384  1.0000
  H   H5273     1.0  0.90464  0.18258  0.60254  1.0000
  H   H5274     1.0  0.81852  0.13818  0.50518  1.0000
  H   H5275     1.0  0.86008  0.01450  0.59096  1.0000
  H   H5276     1.0  0.88842  0.20551  0.58213  1.0000
  C   C3089     1.0  0.83526  0.10517  0.62591  1.0000
  C   C3090     1.0  0.89209  0.18874  0.62080  1.0000
  H   H5277     1.0  0.88893  0.17908  0.62630  1.0000
  H   H5278     1.0  0.81935  0.06319  0.70608  1.0000
  H   H5279     1.0  0.84835  0.99808  0.59962  1.0000
  H   H5280     1.0  0.84270  0.19832  0.66423  1.0000
  C   C3091     1.0  0.85508  0.11618  0.69556  1.0000
  H   H5281     1.0  0.91623  0.19254  0.65258  1.0000
  H   H5282     1.0  0.97618  0.11890  0.69090  1.0000
  H   H5283     1.0  0.83722  0.16745  0.70049  1.0000
  H   H5284     1.0  0.79405  0.20921  0.66503  1.0000
  H   H5285     1.0  0.78450  0.14543  0.49551  1.0000
  S   S900      1.0  0.88241  0.21729  0.71422  1.0000
  N   N220      1.0  0.88377  0.18943  0.59954  1.0000
  H   H5286     1.0  0.85542  0.17327  0.56863  1.0000
  C   C3092     1.0  0.84895  0.19121  0.57703  1.0000
  H   H5287     1.0  0.97012  0.18709  0.63689  1.0000
  H   H5288     1.0  0.86193  0.16226  0.70226  1.0000
  H   H5289     1.0  0.86166  0.21686  0.61205  1.0000
  N   N221      1.0  0.93710  0.18431  0.65525  1.0000
  C   C3093     1.0  0.83184  0.19451  0.69291  1.0000
  C   C3094     1.0  0.86767  0.03079  0.59196  1.0000
  N   N222      1.0  0.80014  0.07704  0.71237  1.0000
  C   C3095     1.0  0.80849  0.06288  0.71138  1.0000
  C   C3096     1.0  0.85572  0.14197  0.60858  1.0000
  H   H5290     1.0  0.87213  0.15086  0.68183  1.0000
  C   C3097     1.0  0.83734  0.03574  0.59044  1.0000
  H   H5291     1.0  0.86677  0.19334  0.61678  1.0000
  C   C3098     1.0  0.82563  0.03939  0.62066  1.0000
  C   C3099     1.0  0.92494  0.19941  0.67303  1.0000
  C   C3100     1.0  0.83791  0.05093  0.58667  1.0000
  H   H5292     1.0  0.85818  0.13386  0.64089  1.0000
  C   C3101     1.0  0.80731  0.08368  0.71853  1.0000
  C   C3102     1.0  0.81031  0.13953  0.48782  1.0000
  N   N223      1.0  0.84088  0.12702  0.62787  1.0000
  H   H5293     1.0  0.86649  0.14703  0.66220  1.0000
  C   C3103     1.0  0.97648  0.13097  0.63767  1.0000
  H   H5294     1.0  0.84268  0.03148  0.58123  1.0000
  H   H5295     1.0  0.82633  0.03570  0.59188  1.0000
  C   C3104     1.0  0.79392  0.10046  0.69630  1.0000
  H   H5296     1.0  0.90885  0.18518  0.57972  1.0000
  S   S901      1.0  0.83253  0.20408  0.62508  1.0000
  H   H5297     1.0  0.82185  0.03087  0.62841  1.0000
  H   H5298     1.0  0.82480  0.04739  0.62610  1.0000
  H   H5299     1.0  0.81879  0.04375  0.61339  1.0000
  H   H5300     1.0  0.82280  0.11902  0.63882  1.0000
  H   H5301     1.0  0.89453  0.10543  0.70053  1.0000
  H   H5302     1.0  0.89552  0.11938  0.67751  1.0000
  H   H5303     1.0  0.83082  0.05658  0.59437  1.0000
  H   H5304     1.0  0.83456  0.05577  0.57696  1.0000
  H   H5305     1.0  0.84829  0.05256  0.58516  1.0000
  H   H5306     1.0  0.92504  0.09892  0.59285  1.0000
  H   H5307     1.0  0.80121  0.10570  0.69758  1.0000
  H   H5308     1.0  0.84933  0.16340  0.68613  1.0000
  H   H5309     1.0  0.90841  0.06945  0.57791  1.0000
  H   H5310     1.0  0.81321  0.20736  0.68603  1.0000
  H   H5311     1.0  0.87270  0.12030  0.70916  1.0000
  C   C3105     1.0  0.88311  0.17468  0.60283  1.0000
  C   C3106     1.0  0.84996  0.11802  0.63734  1.0000
  H   H5312     1.0  0.82178  0.19687  0.60339  1.0000
  C   C3107     1.0  0.85574  0.22197  0.65394  1.0000
  H   H5313     1.0  0.89595  0.06805  0.59399  1.0000
  H   H5314     1.0  0.85322  0.13785  0.68928  1.0000
  H   H5315     1.0  0.79415  0.20692  0.53266  1.0000
  C   C3108     1.0  0.92689  0.19335  0.64695  1.0000
  H   H5316     1.0  0.88934  0.14197  0.67731  1.0000
  C   C3109     1.0  0.88724  0.09568  0.58693  1.0000
  C   C3110     1.0  0.81519  0.19944  0.56371  1.0000
  H   H5317     1.0  0.87517  0.10237  0.60573  1.0000
  H   H5318     1.0  0.82666  0.10176  0.62451  1.0000
  H   H5319     1.0  0.92125  0.19838  0.68422  1.0000
  C   C3111     1.0  0.83365  0.13993  0.63293  1.0000
  H   H5320     1.0  0.93845  0.19041  0.62623  1.0000
  C   C3112     1.0  0.79994  0.08502  0.69801  1.0000
  H   H5321     1.0  0.86556  0.13777  0.70509  1.0000
  H   H5322     1.0  0.87879  0.21551  0.60288  1.0000
  C   C3113     1.0  0.78550  0.07739  0.72022  1.0000
  H   H5323     1.0  0.88014  0.17091  0.61400  1.0000
  H   H5324     1.0  0.87013  0.12332  0.62940  1.0000
  H   H5325     1.0  0.84364  0.11539  0.64780  1.0000
  C   C3114     1.0  0.80393  0.19229  0.57343  1.0000
  C   C3115     1.0  0.84894  0.12963  0.61334  1.0000
  C   C3116     1.0  0.86698  0.21728  0.66010  1.0000
  H   H5326     1.0  0.86224  0.14184  0.59820  1.0000
  C   C3117     1.0  0.82921  0.19170  0.59587  1.0000
  H   H5327     1.0  0.87569  0.21827  0.67608  1.0000
  C   C3118     1.0  0.97347  0.14498  0.63689  1.0000
  H   H5328     1.0  0.88261  0.13485  0.65881  1.0000
  C   C3119     1.0  0.87449  0.12975  0.70165  1.0000
  H   H5329     1.0  0.79654  0.19289  0.54614  1.0000
  H   H5330     1.0  0.85717  0.12055  0.61134  1.0000
  C   C3120     1.0  0.84802  0.17839  0.57615  1.0000
  C   C3121     1.0  0.86701  0.22209  0.67129  1.0000
  H   H5331     1.0  0.84523  0.04377  0.60966  1.0000
  H   H5332     1.0  0.82511  0.15014  0.61463  1.0000
  C   C3122     1.0  0.97813  0.12766  0.68243  1.0000
  H   H5333     1.0  0.85516  0.10816  0.63423  1.0000
  H   H5334     1.0  0.84351  0.10465  0.61658  1.0000
  H   H5335     1.0  0.95617  0.19759  0.62922  1.0000
  H   H5336     1.0  0.87939  0.10036  0.70044  1.0000
  C   C3123     1.0  0.87734  0.14397  0.66312  1.0000
  H   H5337     1.0  0.92253  0.17951  0.67417  1.0000
  H   H5338     1.0  0.88696  0.13297  0.48115  1.0000
  H   H5339     1.0  0.86047  0.12847  0.67617  1.0000
  C   C3124     1.0  0.80340  0.05529  0.70378  1.0000
  Fe  Fe449     1.0  0.82337  0.13176  0.71967  1.0000
  H   H5340     1.0  0.94472  0.15837  0.67391  1.0000
  C   C3125     1.0  0.83807  0.00505  0.59989  1.0000
  C   C3126     1.0  0.87855  0.14172  0.67793  1.0000
  H   H5341     1.0  0.87560  0.20982  0.65619  1.0000
  H   H5342     1.0  0.91997  0.09662  0.56834  1.0000
  C   C3127     1.0  0.85660  0.17259  0.69782  1.0000
  H   H5343     1.0  0.88182  0.10583  0.58211  1.0000
  H   H5344     1.0  0.84293  0.16305  0.48862  1.0000
  H   H5345     1.0  0.84625  0.02827  0.62166  1.0000
  C   C3128     1.0  0.88542  0.11676  0.68290  1.0000
  H   H5346     1.0  0.82756  0.16586  0.53856  1.0000
  H   H5347     1.0  0.85479  0.11479  0.70647  1.0000
  H   H5348     1.0  0.76726  0.13129  0.49431  1.0000
  H   H5349     1.0  0.80877  0.04439  0.70560  1.0000
  H   H5350     1.0  0.84092  0.14625  0.63202  1.0000
  C   C3129     1.0  0.83515  0.19885  0.54462  1.0000
  H   H5351     1.0  0.90722  0.09045  0.56527  1.0000
  Fe  Fe450     1.0  0.88129  0.19546  0.71696  1.0000
  C   C3130     1.0  0.80776  0.11912  0.48296  1.0000
  H   H5352     1.0  0.80005  0.19662  0.58270  1.0000
  H   H5353     1.0  0.82171  0.17087  0.66738  1.0000
  H   H5354     1.0  0.96975  0.13023  0.67690  1.0000
  H   H5355     1.0  0.86073  0.10677  0.69183  1.0000
  H   H5356     1.0  0.90959  0.11324  0.55122  1.0000
  H   H5357     1.0  0.90122  0.19239  0.56533  1.0000
  C   C3131     1.0  0.90660  0.06915  0.58889  1.0000
  C   C3132     1.0  0.90315  0.11207  0.56171  1.0000
  C   C3133     1.0  0.87899  0.09291  0.60177  1.0000
  H   H5358     1.0  0.83062  0.22139  0.53907  1.0000
  H   H5359     1.0  0.88216  0.11353  0.67528  1.0000
  H   H5360     1.0  0.91586  0.20479  0.66860  1.0000
  H   H5361     1.0  0.84238  0.19104  0.55040  1.0000
  H   H5362     1.0  0.90356  0.12059  0.56578  1.0000
  H   H5363     1.0  0.83981  0.19706  0.69637  1.0000
  C   C3134     1.0  0.90320  0.10595  0.59174  1.0000
  C   C3135     1.0  0.90969  0.08160  0.59159  1.0000
  H   H5364     1.0  0.88580  0.08873  0.58142  1.0000
  N   N224      1.0  0.90218  0.09534  0.58509  1.0000
  H   H5365     1.0  0.89343  0.16821  0.59964  1.0000
  H   H5366     1.0  0.89772  0.17682  0.57603  1.0000
  S   S902      1.0  0.84001  0.21452  0.58688  1.0000
  H   H5367     1.0  0.84435  0.11781  0.69465  1.0000
  H   H5368     1.0  0.95945  0.16131  0.66010  1.0000
  C   C3136     1.0  0.85808  0.02085  0.59851  1.0000
  H   H5369     1.0  0.89840  0.20025  0.60058  1.0000
  H   H5370     1.0  0.81772  0.08426  0.71213  1.0000
  C   C3137     1.0  0.95029  0.18919  0.65112  1.0000
  H   H5371     1.0  0.85695  0.19597  0.57003  1.0000
  C   C3138     1.0  0.88733  0.13299  0.70353  1.0000
  H   H5372     1.0  0.81969  0.15953  0.62790  1.0000
  C   C3139     1.0  0.87011  0.19751  0.60572  1.0000
  H   H5373     1.0  0.83051  0.99849  0.60456  1.0000
  H   H5374     1.0  0.89634  0.11591  0.58851  1.0000
  H   H5375     1.0  0.81744  0.20488  0.52922  1.0000
  H   H5376     1.0  0.80817  0.18127  0.57691  1.0000
  Fe  Fe451     1.0  0.86285  0.22209  0.70691  1.0000
  H   H5377     1.0  0.93268  0.20573  0.66966  1.0000
  H   H5378     1.0  0.86187  0.01391  0.60747  1.0000
  Fe  Fe452     1.0  0.81032  0.21178  0.63376  1.0000
  S   S903      1.0  0.80152  0.13931  0.72980  1.0000
  C   C3140     1.0  0.82215  0.14918  0.62580  1.0000
  C   C3141     1.0  0.83673  0.21285  0.54531  1.0000
  H   H5379     1.0  0.83743  0.17846  0.53133  1.0000
  H   H5380     1.0  0.86658  0.03591  0.58145  1.0000
  H   H5381     1.0  0.82878  0.21327  0.67690  1.0000
  H   H5382     1.0  0.86983  0.17983  0.66619  1.0000
  N   N225      1.0  0.83833  0.18461  0.68357  1.0000
  H   H5383     1.0  0.83687  0.16211  0.67326  1.0000
  C   C3142     1.0  0.85982  0.18093  0.66375  1.0000
  H   H5384     1.0  0.89522  0.09551  0.68895  1.0000
  C   C3143     1.0  0.94906  0.15917  0.66287  1.0000
  H   H5385     1.0  0.85370  0.19660  0.67511  1.0000
  H   H5386     1.0  0.92100  0.08060  0.58826  1.0000
  H   H5387     1.0  0.82506  0.18992  0.70231  1.0000
  C   C3144     1.0  0.82326  0.20834  0.68688  1.0000
  H   H5388     1.0  0.88227  0.15242  0.65677  1.0000
  N   N226      1.0  0.87494  0.12887  0.68742  1.0000
  H   H5389     1.0  0.83674  0.01004  0.58943  1.0000
  C   C3145     1.0  0.88864  0.10390  0.69398  1.0000
  H   H5390     1.0  0.91348  0.05979  0.59334  1.0000
  H   H5391     1.0  0.82128  0.19170  0.67350  1.0000
  Fe  Fe453     1.0  0.94162  0.13133  0.63672  1.0000
  C   C3146     1.0  0.90866  0.09799  0.57011  1.0000
  C   C3147     1.0  0.86078  0.12854  0.68665  1.0000
  H   H5392     1.0  0.85238  0.17806  0.70624  1.0000
  H   H5393     1.0  0.90755  0.08034  0.60275  1.0000
  C   C3148     1.0  0.84482  0.14402  0.48328  1.0000
  C   C3149     1.0  0.84812  0.12983  0.48724  1.0000
  C   C3150     1.0  0.84834  0.19078  0.67166  1.0000
  C   C3151     1.0  0.88675  0.19502  0.58443  1.0000
  H   H5394     1.0  0.81046  0.08368  0.69148  1.0000
  H   H5395     1.0  0.87847  0.02493  0.59118  1.0000
  H   H5396     1.0  0.89259  0.11304  0.56072  1.0000
  C   C3152     1.0  0.83944  0.19797  0.58677  1.0000
  C   C3153     1.0  0.95920  0.18823  0.63680  1.0000
  H   H5397     1.0  0.83888  0.09777  0.63470  1.0000
  H   H5398     1.0  0.88131  0.15580  0.48546  1.0000
  H   H5399     1.0  0.79221  0.05584  0.70724  1.0000
  H   H5400     1.0  0.88743  0.13037  0.71451  1.0000
  H   H5401     1.0  0.82894  0.13751  0.64402  1.0000
  H   H5402     1.0  0.87498  0.17457  0.58544  1.0000
  H   H5403     1.0  0.87773  0.19617  0.58014  1.0000
  H   H5404     1.0  0.79027  0.20978  0.54965  1.0000
  H   H5405     1.0  0.86236  0.14194  0.61514  1.0000
  H   H5406     1.0  0.86185  0.19666  0.60141  1.0000
  H   H5407     1.0  0.87449  0.16002  0.59885  1.0000
  C   C3154     1.0  0.89939  0.18677  0.57608  1.0000
  C   C3155     1.0  0.83910  0.14959  0.72886  1.0000
  H   H5408     1.0  0.86630  0.03831  0.59806  1.0000
  C   C3156     1.0  0.92817  0.19052  0.63293  1.0000
  H   H5409     1.0  0.76956  0.14670  0.48271  1.0000
  H   H5410     1.0  0.78386  0.10292  0.70335  1.0000
  H   H5411     1.0  0.82927  0.17495  0.55698  1.0000
  H   H5412     1.0  0.95694  0.18406  0.65856  1.0000
  H   H5413     1.0  0.77908  0.07703  0.71348  1.0000
  C   C3157     1.0  0.93942  0.16972  0.65427  1.0000
  C   C3158     1.0  0.81222  0.20543  0.53995  1.0000
  C   C3159     1.0  0.83787  0.99024  0.64289  1.0000
  C   C3160     1.0  0.84551  0.15209  0.49173  1.0000
  H   H5414     1.0  0.94811  0.20009  0.65154  1.0000
  C   C3161     1.0  0.82209  0.18138  0.55041  1.0000
  H   H5415     1.0  0.79393  0.08115  0.69324  1.0000
  H   H5416     1.0  0.93863  0.17991  0.67637  1.0000
  H   H5417     1.0  0.92946  0.16655  0.65735  1.0000
  H   H5418     1.0  0.80603  0.05925  0.69263  1.0000
  N   N227      1.0  0.82083  0.19623  0.54972  1.0000
  H   H5419     1.0  0.86545  0.21847  0.59390  1.0000
  H   H5420     1.0  0.94352  0.16831  0.64370  1.0000
  H   H5421     1.0  0.80577  0.15034  0.48850  1.0000
  C   C3162     1.0  0.93095  0.18504  0.66997  1.0000
  H   H5422     1.0  0.95027  0.14897  0.66088  1.0000
  H   H5423     1.0  0.80382  0.13090  0.50981  1.0000
  H   H5424     1.0  0.81973  0.18210  0.52991  1.0000
  H   H5425     1.0  0.82351  0.19665  0.56929  1.0000
  H   H5426     1.0  0.89701  0.12726  0.69806  1.0000
  S   S904      1.0  0.80636  0.22731  0.61495  1.0000
  H   H5427     1.0  0.76098  0.23238  0.66967  1.0000
  C   C3163     1.0  0.81330  0.13211  0.50193  1.0000
  C   C3164     1.0  0.98377  0.15136  0.63676  1.0000
  H   H5428     1.0  0.79087  0.11007  0.48356  1.0000
  H   H5429     1.0  0.82050  0.12208  0.50158  1.0000
  C   C3165     1.0  0.84470  0.23200  0.65862  1.0000
  S   S905      1.0  0.84126  0.13300  0.72683  1.0000
  H   H5430     1.0  0.98126  0.16210  0.63664  1.0000
  H   H5431     1.0  0.81923  0.15672  0.72386  1.0000
  H   H5432     1.0  0.88705  0.14404  0.69997  1.0000
  H   H5433     1.0  0.97711  0.13670  0.68643  1.0000
  H   H5434     1.0  0.78017  0.23279  0.65241  1.0000
  H   H5435     1.0  0.78090  0.08721  0.72359  1.0000
  C   C3166     1.0  0.78712  0.13567  0.49208  1.0000
  N   N228      1.0  0.80122  0.13395  0.48278  1.0000
  C   C3167     1.0  0.86453  0.98851  0.62719  1.0000
  H   H5436     1.0  0.77713  0.22448  0.63503  1.0000
  H   H5437     1.0  0.80793  0.11324  0.49350  1.0000
  C   C3168     1.0  0.76842  0.23244  0.63889  1.0000
  Fe  Fe454     1.0  0.85083  0.20057  0.72927  1.0000
  S   S906      1.0  0.84917  0.22265  0.72750  1.0000
  H   H5438     1.0  0.99084  0.11638  0.66769  1.0000
  H   H5439     1.0  0.99264  0.13342  0.66405  1.0000
  C   C3169     1.0  0.99008  0.12359  0.63748  1.0000
  C   C3170     1.0  0.85604  0.23215  0.67598  1.0000
  C   C3171     1.0  0.82493  0.17228  0.72926  1.0000
  H   H5440     1.0  0.99256  0.11278  0.63785  1.0000
  C   C3172     1.0  0.99197  0.12421  0.67235  1.0000
  H   H5441     1.0  0.82039  0.13951  0.48048  1.0000
  C   C3173     1.0  0.54890  0.12192  0.84587  1.0000
  S   S907      1.0  0.66702  0.12665  0.92769  1.0000
  Fe  Fe455     1.0  0.63548  0.15407  0.91792  1.0000
  S   S908      1.0  0.65374  0.14610  0.90291  1.0000
  S   S909      1.0  0.61969  0.16889  0.90685  1.0000
  Fe  Fe456     1.0  0.65264  0.12543  0.91578  1.0000
  S   S910      1.0  0.65498  0.11363  0.89983  1.0000
  Fe  Fe457     1.0  0.66639  0.14805  0.91583  1.0000
  S   S911      1.0  0.68636  0.15425  0.90495  1.0000
  S   S912      1.0  0.64828  0.15795  0.93007  1.0000
  Fe  Fe458     1.0  0.56099  0.16874  0.85661  1.0000
  S   S913      1.0  0.54686  0.16523  0.87727  1.0000
  S   S914      1.0  0.56352  0.18934  0.84367  1.0000
  Fe  Fe459     1.0  0.57173  0.13876  0.85711  1.0000
  S   S915      1.0  0.55885  0.13281  0.87779  1.0000
  S   S916      1.0  0.58753  0.12445  0.84507  1.0000
  Fe  Fe460     1.0  0.54179  0.14912  0.87012  1.0000
  S   S917      1.0  0.52104  0.14309  0.87643  1.0000
  Fe  Fe461     1.0  0.56507  0.14924  0.88296  1.0000
  S   S918      1.0  0.57206  0.14477  0.90259  1.0000
  S   S919      1.0  0.55445  0.15405  0.84893  1.0000
  S   S920      1.0  0.57939  0.15378  0.86285  1.0000
  Fe  Fe462     1.0  0.62191  0.05513  0.87187  1.0000
  S   S921      1.0  0.63187  0.03715  0.88592  1.0000
  S   S922      1.0  0.59910  0.06300  0.87573  1.0000
  Fe  Fe463     1.0  0.64909  0.06165  0.85487  1.0000
  S   S923      1.0  0.66126  0.04403  0.86741  1.0000
  S   S924      1.0  0.65770  0.07747  0.83761  1.0000
  Fe  Fe464     1.0  0.64648  0.03211  0.86669  1.0000
  S   S925      1.0  0.65497  0.01107  0.86152  1.0000
  Fe  Fe465     1.0  0.64548  0.05075  0.88526  1.0000
  S   S926      1.0  0.65006  0.05361  0.90404  1.0000
  S   S927      1.0  0.63555  0.04938  0.85265  1.0000
  S   S928      1.0  0.63428  0.06901  0.87267  1.0000
  H   H5442     1.0  0.70343  0.15549  0.92212  1.0000
  Fe  Fe466     1.0  0.62347  0.22314  0.83490  1.0000
  S   S929      1.0  0.63506  0.21174  0.81845  1.0000
  S   S930      1.0  0.60865  0.21355  0.85268  1.0000
  C   C3174     1.0  0.79570  0.15702  0.78163  1.0000
  H   H5443     1.0  0.55307  0.10498  0.82695  1.0000
  H   H5444     1.0  0.79121  0.16802  0.77838  1.0000
  C   C3175     1.0  0.70352  0.02642  0.81175  1.0000
  Fe  Fe467     1.0  0.65365  0.21433  0.82322  1.0000
  S   S931      1.0  0.67125  0.19801  0.82897  1.0000
  S   S932      1.0  0.64223  0.22439  0.84055  1.0000
  H   H5445     1.0  0.57536  0.09205  0.82868  1.0000
  H   H5446     1.0  0.62533  0.01282  0.86856  1.0000
  Fe  Fe468     1.0  0.74233  0.12362  0.80895  1.0000
  S   S933      1.0  0.73658  0.11485  0.83138  1.0000
  S   S934      1.0  0.76418  0.12288  0.79694  1.0000
  Fe  Fe469     1.0  0.71301  0.13721  0.80736  1.0000
  S   S935      1.0  0.70470  0.12916  0.82932  1.0000
  S   S936      1.0  0.69901  0.15256  0.79483  1.0000
  Fe  Fe470     1.0  0.72224  0.13511  0.83282  1.0000
  S   S937      1.0  0.71618  0.14583  0.85024  1.0000
  Fe  Fe471     1.0  0.71941  0.10962  0.82617  1.0000
  S   S938      1.0  0.71378  0.08967  0.83783  1.0000
  S   S939      1.0  0.72968  0.14441  0.81101  1.0000
  S   S940      1.0  0.72614  0.11698  0.80357  1.0000
  Fe  Fe472     1.0  0.73222  0.21082  0.85543  1.0000
  S   S941      1.0  0.70948  0.21873  0.86124  1.0000
  S   S942      1.0  0.74216  0.19627  0.84128  1.0000
  C   C3176     1.0  0.55402  0.10028  0.83753  1.0000
  H   H5447     1.0  0.53217  0.11238  0.82441  1.0000
  C   C3177     1.0  0.55254  0.13045  0.83129  1.0000
  Fe  Fe473     1.0  0.71354  0.21845  0.88120  1.0000
  S   S943      1.0  0.69782  0.21174  0.89988  1.0000
  H   H5448     1.0  0.89285  0.23378  0.73861  1.0000
  H   H5449     1.0  0.54535  0.14059  0.83037  1.0000
  S   S944      1.0  0.73611  0.20882  0.87596  1.0000
  H   H5450     1.0  0.72084  0.22452  0.79648  1.0000
  H   H5451     1.0  0.71733  0.18638  0.82291  1.0000
  H   H5452     1.0  0.78728  0.13872  0.79192  1.0000
  N   N229      1.0  0.80715  0.15179  0.77056  1.0000
  C   C3178     1.0  0.89232  0.22144  0.78510  1.0000
  H   H5453     1.0  0.66066  0.05250  0.83048  1.0000
  H   H5454     1.0  0.68669  0.21138  0.84015  1.0000
  H   H5455     1.0  0.51562  0.11955  0.83313  1.0000
  C   C3179     1.0  0.72350  0.15978  0.84771  1.0000
  C   C3180     1.0  0.71814  0.16868  0.85669  1.0000
  C   C3181     1.0  0.72389  0.17983  0.85491  1.0000
  C   C3182     1.0  0.73508  0.18208  0.84416  1.0000
  C   C3183     1.0  0.74046  0.17317  0.83520  1.0000
  C   C3184     1.0  0.73466  0.16206  0.83694  1.0000
  H   H5456     1.0  0.70957  0.16691  0.86507  1.0000
  H   H5457     1.0  0.71971  0.18665  0.86187  1.0000
  H   H5458     1.0  0.74913  0.17486  0.82689  1.0000
  H   H5459     1.0  0.73896  0.15516  0.83007  1.0000
  C   C3185     1.0  0.70804  0.15298  0.93110  1.0000
  H   H5460     1.0  0.72023  0.13321  0.92626  1.0000
  C   C3186     1.0  0.62263  0.99559  0.86282  1.0000
  H   H5461     1.0  0.69529  0.13497  0.93314  1.0000
  C   C3187     1.0  0.77764  0.11215  0.75508  1.0000
  C   C3188     1.0  0.76491  0.11017  0.76340  1.0000
  C   C3189     1.0  0.76071  0.11318  0.77640  1.0000
  C   C3190     1.0  0.76933  0.11796  0.78119  1.0000
  C   C3191     1.0  0.78227  0.11937  0.77308  1.0000
  C   C3192     1.0  0.78638  0.11661  0.76002  1.0000
  H   H5462     1.0  0.75819  0.10656  0.75968  1.0000
  H   H5463     1.0  0.75082  0.11181  0.78267  1.0000
  H   H5464     1.0  0.78913  0.12258  0.77696  1.0000
  H   H5465     1.0  0.79639  0.11772  0.75386  1.0000
  H   H5466     1.0  0.54067  0.12873  0.85186  1.0000
  H   H5467     1.0  0.55094  0.09042  0.83962  1.0000
  H   H5468     1.0  0.79971  0.15632  0.79063  1.0000
  H   H5469     1.0  0.68683  0.01247  0.85262  1.0000
  C   C3193     1.0  0.53004  0.11147  0.84630  1.0000
  C   C3194     1.0  0.52676  0.11844  0.83225  1.0000
  C   C3195     1.0  0.67817  0.18554  0.81932  1.0000
  C   C3196     1.0  0.67399  0.18633  0.80750  1.0000
  C   C3197     1.0  0.68034  0.17621  0.79984  1.0000
  C   C3198     1.0  0.69079  0.16539  0.80408  1.0000
  C   C3199     1.0  0.69479  0.16479  0.81590  1.0000
  C   C3200     1.0  0.68853  0.17476  0.82349  1.0000
  H   H5470     1.0  0.66597  0.19473  0.80423  1.0000
  H   H5471     1.0  0.67716  0.17676  0.79071  1.0000
  H   H5472     1.0  0.70279  0.15668  0.81932  1.0000
  H   H5473     1.0  0.69185  0.17410  0.83259  1.0000
  C   C3201     1.0  0.67244  0.08187  0.83872  1.0000
  C   C3202     1.0  0.67745  0.09248  0.82889  1.0000
  C   C3203     1.0  0.68989  0.09533  0.82882  1.0000
  C   C3204     1.0  0.69750  0.08737  0.83842  1.0000
  C   C3205     1.0  0.69233  0.07698  0.84844  1.0000
  C   C3206     1.0  0.67974  0.07435  0.84871  1.0000
  H   H5474     1.0  0.67184  0.09833  0.82114  1.0000
  H   H5475     1.0  0.69382  0.10336  0.82106  1.0000
  H   H5476     1.0  0.69814  0.07085  0.85595  1.0000
  H   H5477     1.0  0.67592  0.06627  0.85643  1.0000
  C   C3207     1.0  0.51143  0.14175  0.86550  1.0000
  H   H5478     1.0  0.63941  0.20120  0.88960  1.0000
  C   C3208     1.0  0.72000  0.22188  0.80766  1.0000
  H   H5479     1.0  0.52547  0.10846  0.87414  1.0000
  H   H5480     1.0  0.85532  0.16923  0.73719  1.0000
  C   C3209     1.0  0.51363  0.14806  0.85172  1.0000
  H   H5481     1.0  0.75131  0.15431  0.78500  1.0000
  H   H5482     1.0  0.52148  0.15391  0.84741  1.0000
  C   C3210     1.0  0.59045  0.10731  0.85348  1.0000
  C   C3211     1.0  0.60253  0.09834  0.84871  1.0000
  C   C3212     1.0  0.60515  0.08465  0.85542  1.0000
  C   C3213     1.0  0.59551  0.07983  0.86672  1.0000
  C   C3214     1.0  0.58326  0.08872  0.87129  1.0000
  C   C3215     1.0  0.58083  0.10248  0.86477  1.0000
  H   H5483     1.0  0.61000  0.10201  0.83993  1.0000
  H   H5484     1.0  0.61463  0.07783  0.85184  1.0000
  H   H5485     1.0  0.57584  0.08501  0.88008  1.0000
  H   H5486     1.0  0.57143  0.10926  0.86841  1.0000
  C   C3216     1.0  0.57699  0.19534  0.84541  1.0000
  C   C3217     1.0  0.58092  0.20682  0.83619  1.0000
  C   C3218     1.0  0.59119  0.21212  0.83789  1.0000
  C   C3219     1.0  0.59744  0.20602  0.84892  1.0000
  C   C3220     1.0  0.59382  0.19429  0.85784  1.0000
  C   C3221     1.0  0.58359  0.18901  0.85615  1.0000
  H   H5487     1.0  0.57586  0.21175  0.82784  1.0000
  C   C3222     1.0  0.78380  0.14951  0.78704  1.0000
  H   H5488     1.0  0.59886  0.18933  0.86615  1.0000
  H   H5489     1.0  0.58049  0.18033  0.86340  1.0000
  C   C3223     1.0  0.65340  0.09689  0.90171  1.0000
  C   C3224     1.0  0.65374  0.09274  0.89000  1.0000
  C   C3225     1.0  0.65311  0.07941  0.89065  1.0000
  C   C3226     1.0  0.65170  0.07016  0.90311  1.0000
  C   C3227     1.0  0.65131  0.07427  0.91490  1.0000
  C   C3228     1.0  0.65219  0.08763  0.91422  1.0000
  H   H5490     1.0  0.65468  0.09980  0.88027  1.0000
  H   H5491     1.0  0.65390  0.07627  0.88145  1.0000
  H   H5492     1.0  0.65031  0.06711  0.92457  1.0000
  H   H5493     1.0  0.65199  0.09071  0.92330  1.0000
  C   C3229     1.0  0.60731  0.16133  0.90513  1.0000
  C   C3230     1.0  0.60192  0.15164  0.91582  1.0000
  C   C3231     1.0  0.59115  0.14662  0.91485  1.0000
  C   C3232     1.0  0.58594  0.15098  0.90305  1.0000
  C   C3233     1.0  0.59156  0.16044  0.89218  1.0000
  C   C3234     1.0  0.60211  0.16573  0.89330  1.0000
  H   H5494     1.0  0.60566  0.14838  0.92508  1.0000
  H   H5495     1.0  0.58674  0.13943  0.92335  1.0000
  H   H5496     1.0  0.58750  0.16395  0.88312  1.0000
  H   H5497     1.0  0.60618  0.17333  0.88507  1.0000
  C   C3235     1.0  0.68877  0.17065  0.90313  1.0000
  C   C3236     1.0  0.67942  0.17988  0.91059  1.0000
  C   C3237     1.0  0.68220  0.19255  0.90948  1.0000
  C   C3238     1.0  0.69420  0.19610  0.90075  1.0000
  C   C3239     1.0  0.70335  0.18699  0.89306  1.0000
  C   C3240     1.0  0.70071  0.17425  0.89437  1.0000
  H   H5498     1.0  0.67014  0.17723  0.91732  1.0000
  H   H5499     1.0  0.67509  0.19962  0.91541  1.0000
  H   H5500     1.0  0.71267  0.18962  0.88639  1.0000
  H   H5501     1.0  0.70806  0.16709  0.88869  1.0000
  Fe  Fe474     1.0  0.64803  0.13637  0.94153  1.0000
  Fe  Fe475     1.0  0.73901  0.23042  0.86844  1.0000
  C   C3241     1.0  0.63039  0.00414  0.86394  1.0000
  C   C3242     1.0  0.64466  0.00125  0.85936  1.0000
  H   H5502     1.0  0.83591  0.13722  0.76433  1.0000
  H   H5503     1.0  0.77457  0.07000  0.74074  1.0000
  C   C3243     1.0  0.50540  0.14710  0.84354  1.0000
  H   H5504     1.0  0.59554  0.08334  0.91857  1.0000
  N   N230      1.0  0.69458  0.11078  0.87470  1.0000
  C   C3244     1.0  0.68462  0.12262  0.86818  1.0000
  C   C3245     1.0  0.69545  0.11395  0.88757  1.0000
  C   C3246     1.0  0.68911  0.09808  0.87787  1.0000
  C   C3247     1.0  0.70820  0.10944  0.86468  1.0000
  C   C3248     1.0  0.67885  0.11990  0.85733  1.0000
  C   C3249     1.0  0.70056  0.12692  0.88574  1.0000
  C   C3250     1.0  0.69344  0.08644  0.88957  1.0000
  C   C3251     1.0  0.72012  0.09804  0.86910  1.0000
  H   H5505     1.0  0.67552  0.12623  0.87600  1.0000
  H   H5506     1.0  0.68944  0.13152  0.86322  1.0000
  H   H5507     1.0  0.70227  0.10556  0.89320  1.0000
  H   H5508     1.0  0.68517  0.11498  0.89469  1.0000
  H   H5509     1.0  0.67777  0.10061  0.88087  1.0000
  H   H5510     1.0  0.69169  0.09372  0.86866  1.0000
  H   H5511     1.0  0.70714  0.10757  0.85519  1.0000
  H   H5512     1.0  0.71174  0.11912  0.86104  1.0000
  H   H5513     1.0  0.67465  0.12974  0.85097  1.0000
  H   H5514     1.0  0.68670  0.11378  0.85048  1.0000
  H   H5515     1.0  0.67029  0.11460  0.86215  1.0000
  H   H5516     1.0  0.71113  0.12638  0.87943  1.0000
  H   H5517     1.0  0.69358  0.13623  0.88143  1.0000
  H   H5518     1.0  0.70085  0.12806  0.89585  1.0000
  H   H5519     1.0  0.68876  0.08936  0.89955  1.0000
  H   H5520     1.0  0.70467  0.08294  0.88833  1.0000
  H   H5521     1.0  0.68940  0.07758  0.88989  1.0000
  H   H5522     1.0  0.71977  0.08824  0.86719  1.0000
  H   H5523     1.0  0.72047  0.09680  0.87979  1.0000
  H   H5524     1.0  0.72998  0.10074  0.86311  1.0000
  N   N231      1.0  0.62648  0.14963  0.85256  1.0000
  C   C3252     1.0  0.61989  0.14007  0.84938  1.0000
  C   C3253     1.0  0.61683  0.16345  0.85119  1.0000
  C   C3254     1.0  0.62777  0.14447  0.86717  1.0000
  C   C3255     1.0  0.64039  0.14971  0.84301  1.0000
  C   C3256     1.0  0.62783  0.12508  0.85074  1.0000
  C   C3257     1.0  0.61257  0.16920  0.83739  1.0000
  C   C3258     1.0  0.63422  0.15265  0.87282  1.0000
  C   C3259     1.0  0.64593  0.16275  0.83968  1.0000
  H   H5525     1.0  0.60938  0.14015  0.85594  1.0000
  H   H5526     1.0  0.61847  0.14337  0.83874  1.0000
  H   H5527     1.0  0.62117  0.17119  0.85292  1.0000
  H   H5528     1.0  0.60718  0.16322  0.85920  1.0000
  H   H5529     1.0  0.63428  0.13401  0.86875  1.0000
  H   H5530     1.0  0.64831  0.14106  0.84699  1.0000
  H   H5531     1.0  0.64042  0.14798  0.83298  1.0000
  H   H5532     1.0  0.62267  0.11953  0.84676  1.0000
  H   H5533     1.0  0.63857  0.12401  0.84476  1.0000
  H   H5534     1.0  0.62769  0.11985  0.86147  1.0000
  H   H5535     1.0  0.62115  0.16705  0.82867  1.0000
  H   H5536     1.0  0.60392  0.16504  0.83720  1.0000
  H   H5537     1.0  0.60886  0.18041  0.83586  1.0000
  H   H5538     1.0  0.62920  0.16359  0.87140  1.0000
  H   H5539     1.0  0.64543  0.15115  0.86855  1.0000
  H   H5540     1.0  0.64010  0.17133  0.83318  1.0000
  H   H5541     1.0  0.65672  0.16082  0.83376  1.0000
  H   H5542     1.0  0.64599  0.16606  0.84876  1.0000
  N   N232      1.0  0.54473  0.10881  0.84746  1.0000
  C   C3260     1.0  0.54563  0.10035  0.86152  1.0000
  H   H5543     1.0  0.72949  0.19327  0.80840  1.0000
  H   H5544     1.0  0.67322  0.15993  0.87902  1.0000
  C   C3261     1.0  0.53659  0.10680  0.87357  1.0000
  C   C3262     1.0  0.56949  0.09700  0.83732  1.0000
  H   H5545     1.0  0.54301  0.09037  0.86297  1.0000
  H   H5546     1.0  0.55626  0.09787  0.86300  1.0000
  H   H5547     1.0  0.72821  0.14720  0.91836  1.0000
  H   H5548     1.0  0.55792  0.11994  0.85043  1.0000
  C   C3263     1.0  0.57473  0.18462  0.91818  1.0000
  H   H5549     1.0  0.83206  0.12106  0.77260  1.0000
  H   H5550     1.0  0.68543  0.22165  0.81805  1.0000
  H   H5551     1.0  0.57335  0.10626  0.83580  1.0000
  H   H5552     1.0  0.57204  0.08970  0.84662  1.0000
  H   H5553     1.0  0.55228  0.12601  0.82303  1.0000
  H   H5554     1.0  0.62391  0.09119  0.91407  1.0000
  C   C3264     1.0  0.68703  0.04867  0.82764  1.0000
  C   C3265     1.0  0.69441  0.22651  0.81404  1.0000
  H   H5555     1.0  0.90409  0.21483  0.80642  1.0000
  H   H5556     1.0  0.61918  0.09842  0.87036  1.0000
  C   C3266     1.0  0.69011  0.06084  0.81600  1.0000
  H   H5557     1.0  0.60492  0.09250  0.88094  1.0000
  H   H5558     1.0  0.75088  0.16609  0.76953  1.0000
  H   H5559     1.0  0.77602  0.15433  0.79502  1.0000
  S   S945      1.0  0.86701  0.22520  0.75313  1.0000
  H   H5560     1.0  0.69688  0.04342  0.83066  1.0000
  C   C3267     1.0  0.70780  0.20446  0.80924  1.0000
  H   H5561     1.0  0.60360  0.11065  0.87512  1.0000
  H   H5562     1.0  0.68787  0.04174  0.80270  1.0000
  H   H5563     1.0  0.72990  0.18118  0.76385  1.0000
  H   H5564     1.0  0.56408  0.18946  0.92249  1.0000
  H   H5565     1.0  0.57282  0.11704  0.90176  1.0000
  H   H5566     1.0  0.69680  0.05758  0.80667  1.0000
  H   H5567     1.0  0.68059  0.06812  0.81371  1.0000
  H   H5568     1.0  0.69569  0.06656  0.81925  1.0000
  N   N233      1.0  0.70760  0.21607  0.81523  1.0000
  H   H5569     1.0  0.58398  0.10643  0.89070  1.0000
  H   H5570     1.0  0.80781  0.13047  0.77965  1.0000
  H   H5571     1.0  0.70884  0.03090  0.81657  1.0000
  H   H5572     1.0  0.49952  0.12910  0.88149  1.0000
  C   C3268     1.0  0.80170  0.15080  0.75907  1.0000
  C   C3269     1.0  0.82404  0.16315  0.77502  1.0000
  C   C3270     1.0  0.79195  0.16378  0.75297  1.0000
  H   H5573     1.0  0.81125  0.17180  0.76064  1.0000
  H   H5574     1.0  0.81032  0.14802  0.75056  1.0000
  H   H5575     1.0  0.81670  0.16781  0.78330  1.0000
  H   H5576     1.0  0.83099  0.17020  0.76947  1.0000
  H   H5577     1.0  0.79551  0.16619  0.74173  1.0000
  H   H5578     1.0  0.79122  0.17300  0.75652  1.0000
  H   H5579     1.0  0.78148  0.16196  0.75502  1.0000
  C   C3271     1.0  0.65221  0.14937  0.97249  1.0000
  H   H5580     1.0  0.70912  0.20769  0.79802  1.0000
  C   C3272     1.0  0.78305  0.06578  0.73282  1.0000
  N   N234      1.0  0.60623  0.09848  0.90485  1.0000
  C   C3273     1.0  0.65104  0.98991  0.85339  1.0000
  C   C3274     1.0  0.76157  0.14759  0.74776  1.0000
  C   C3275     1.0  0.61698  0.11227  0.91452  1.0000
  H   H5581     1.0  0.72766  0.14007  0.93595  1.0000
  H   H5582     1.0  0.71837  0.18399  0.80655  1.0000
  H   H5583     1.0  0.76491  0.14437  0.75752  1.0000
  C   C3276     1.0  0.73918  0.14994  0.77359  1.0000
  S   S946      1.0  0.86915  0.19381  0.73857  1.0000
  C   C3277     1.0  0.61551  0.10119  0.89096  1.0000
  C   C3278     1.0  0.61489  0.07232  0.90885  1.0000
  H   H5584     1.0  0.60798  0.09518  0.92567  1.0000
  H   H5585     1.0  0.69780  0.20139  0.81288  1.0000
  H   H5586     1.0  0.60754  0.12029  0.91625  1.0000
  C   C3279     1.0  0.56395  0.20782  0.87947  1.0000
  C   C3280     1.0  0.60270  0.08472  0.90841  1.0000
  C   C3281     1.0  0.58119  0.10778  0.90126  1.0000
  H   H5587     1.0  0.88399  0.20275  0.79190  1.0000
  H   H5588     1.0  0.66741  0.05528  0.81270  1.0000
  H   H5589     1.0  0.89091  0.22272  0.81806  1.0000
  H   H5590     1.0  0.71989  0.12737  0.76312  1.0000
  H   H5591     1.0  0.70774  0.22016  0.83423  1.0000
  C   C3282     1.0  0.65691  0.03894  0.82061  1.0000
  C   C3283     1.0  0.70827  0.21140  0.82995  1.0000
  C   C3284     1.0  0.59325  0.10955  0.90597  1.0000
  C   C3285     1.0  0.71898  0.19142  0.81201  1.0000
  H   H5592     1.0  0.62588  0.09439  0.89055  1.0000
  N   N235      1.0  0.69789  0.14861  0.94399  1.0000
  C   C3286     1.0  0.72174  0.14261  0.92797  1.0000
  H   H5593     1.0  0.72958  0.21406  0.80891  1.0000
  C   C3287     1.0  0.69567  0.13508  0.94364  1.0000
  C   C3288     1.0  0.70396  0.14740  0.95585  1.0000
  H   H5594     1.0  0.57873  0.18993  0.88650  1.0000
  H   H5595     1.0  0.54666  0.22516  0.91058  1.0000
  C   C3289     1.0  0.68247  0.13085  0.95284  1.0000
  H   H5596     1.0  0.76124  0.13856  0.74441  1.0000
  H   H5597     1.0  0.60769  0.21784  0.88309  1.0000
  H   H5598     1.0  0.74216  0.13268  0.75807  1.0000
  C   C3290     1.0  0.74447  0.16009  0.77790  1.0000
  H   H5599     1.0  0.68075  0.15990  0.93483  1.0000
  C   C3291     1.0  0.69471  0.14490  0.97023  1.0000
  H   H5600     1.0  0.70447  0.01542  0.81645  1.0000
  H   H5601     1.0  0.73580  0.16701  0.78331  1.0000
  C   C3292     1.0  0.84936  0.15322  0.73245  1.0000
  C   C3293     1.0  0.57107  0.19834  0.89081  1.0000
  H   H5602     1.0  0.72993  0.18331  0.74611  1.0000
  S   S947      1.0  0.73672  0.23155  0.84749  1.0000
  N   N236      1.0  0.57777  0.20501  0.89746  1.0000
  C   C3294     1.0  0.69339  0.23469  0.79959  1.0000
  H   H5603     1.0  0.60395  0.20794  0.89988  1.0000
  H   H5604     1.0  0.70815  0.15643  0.95466  1.0000
  H   H5605     1.0  0.76962  0.15227  0.73999  1.0000
  C   C3295     1.0  0.72462  0.17976  0.75675  1.0000
  H   H5606     1.0  0.69777  0.14954  0.97692  1.0000
  H   H5607     1.0  0.65111  0.15567  0.96262  1.0000
  H   H5608     1.0  0.71085  0.16244  0.93115  1.0000
  H   H5609     1.0  0.66958  0.21849  0.87128  1.0000
  H   H5610     1.0  0.52314  0.11808  0.85324  1.0000
  H   H5611     1.0  0.68883  0.17383  0.95307  1.0000
  H   H5612     1.0  0.67490  0.18032  0.94461  1.0000
  H   H5613     1.0  0.88883  0.20054  0.82617  1.0000
  H   H5614     1.0  0.81509  0.08261  0.73596  1.0000
  H   H5615     1.0  0.65059  0.19705  0.90125  1.0000
  H   H5616     1.0  0.66459  0.20612  0.85654  1.0000
  H   H5617     1.0  0.52643  0.10178  0.84953  1.0000
  C   C3296     1.0  0.67525  0.18036  0.86657  1.0000
  C   C3297     1.0  0.64596  0.19282  0.89546  1.0000
  C   C3298     1.0  0.67806  0.02768  0.83681  1.0000
  C   C3299     1.0  0.81461  0.13779  0.77653  1.0000
  N   N237      1.0  0.68035  0.03913  0.82462  1.0000
  H   H5618     1.0  0.52851  0.12888  0.82884  1.0000
  H   H5619     1.0  0.70444  0.12669  0.94627  1.0000
  H   H5620     1.0  0.74655  0.13995  0.77506  1.0000
  H   H5621     1.0  0.65383  0.17346  0.88954  1.0000
  C   C3300     1.0  0.72050  0.13656  0.76602  1.0000
  H   H5622     1.0  0.56309  0.19331  0.89817  1.0000
  H   H5623     1.0  0.70930  0.02746  0.80100  1.0000
  H   H5624     1.0  0.63405  0.20367  0.86739  1.0000
  C   C3301     1.0  0.72311  0.16501  0.75925  1.0000
  H   H5625     1.0  0.63026  0.19024  0.86293  1.0000
  H   H5626     1.0  0.68823  0.16023  0.86569  1.0000
  H   H5627     1.0  0.71421  0.18653  0.75828  1.0000
  H   H5628     1.0  0.53862  0.09975  0.88319  1.0000
  C   C3302     1.0  0.58982  0.20946  0.88689  1.0000
  H   H5629     1.0  0.53913  0.11643  0.87338  1.0000
  C   C3303     1.0  0.72135  0.23418  0.81223  1.0000
  H   H5630     1.0  0.71829  0.20446  0.83111  1.0000
  S   S948      1.0  0.63358  0.13334  0.93044  1.0000
  C   C3304     1.0  0.68466  0.15922  0.94390  1.0000
  H   H5631     1.0  0.90334  0.21617  0.78423  1.0000
  H   H5632     1.0  0.65702  0.16484  0.97923  1.0000
  H   H5633     1.0  0.68284  0.18147  0.87161  1.0000
  H   H5634     1.0  0.69671  0.19518  0.83613  1.0000
  H   H5635     1.0  0.72094  0.13354  0.77688  1.0000
  H   H5636     1.0  0.83054  0.15345  0.77931  1.0000
  H   H5637     1.0  0.69903  0.20071  0.84966  1.0000
  S   S949      1.0  0.64562  0.12913  0.96456  1.0000
  H   H5638     1.0  0.82476  0.15826  0.75621  1.0000
  H   H5639     1.0  0.62304  0.07325  0.89951  1.0000
  H   H5640     1.0  0.61761  0.11150  0.88859  1.0000
  H   H5641     1.0  0.61129  0.06304  0.90970  1.0000
  H   H5642     1.0  0.59545  0.11964  0.90024  1.0000
  H   H5643     1.0  0.62398  0.11580  0.90486  1.0000
  C   C3305     1.0  0.61382  0.09855  0.91515  1.0000
  C   C3306     1.0  0.81671  0.16143  0.76492  1.0000
  H   H5644     1.0  0.61750  0.14378  0.87400  1.0000
  C   C3307     1.0  0.61029  0.10076  0.87880  1.0000
  H   H5645     1.0  0.63297  0.14866  0.88397  1.0000
  H   H5646     1.0  0.58896  0.11062  0.91672  1.0000
  H   H5647     1.0  0.59705  0.08375  0.90135  1.0000
  H   H5648     1.0  0.66927  0.20403  0.88506  1.0000
  C   C3308     1.0  0.69691  0.20430  0.83934  1.0000
  H   H5649     1.0  0.68284  0.12027  0.95244  1.0000
  H   H5650     1.0  0.74983  0.16763  0.74920  1.0000
  C   C3309     1.0  0.88818  0.20400  0.81532  1.0000
  C   C3310     1.0  0.87134  0.23049  0.80112  1.0000
  H   H5651     1.0  0.55004  0.20795  0.90996  1.0000
  C   C3311     1.0  0.68945  0.02155  0.84491  1.0000
  H   H5652     1.0  0.81737  0.13772  0.78605  1.0000
  H   H5653     1.0  0.87738  0.20464  0.81546  1.0000
  H   H5654     1.0  0.72728  0.23069  0.82035  1.0000
  H   H5655     1.0  0.67881  0.18446  0.85552  1.0000
  H   H5656     1.0  0.57675  0.09921  0.90812  1.0000
  C   C3312     1.0  0.59915  0.21536  0.89180  1.0000
  C   C3313     1.0  0.67117  0.20724  0.87387  1.0000
  H   H5657     1.0  0.65434  0.03114  0.82992  1.0000
  H   H5658     1.0  0.59391  0.22119  0.83095  1.0000
  H   H5659     1.0  0.61933  0.07052  0.91781  1.0000
  C   C3314     1.0  0.65719  0.18316  0.88713  1.0000
  H   H5660     1.0  0.68047  0.05277  0.83664  1.0000
  H   H5661     1.0  0.56301  0.13229  0.82926  1.0000
  H   H5662     1.0  0.62237  0.11093  0.92271  1.0000
  H   H5663     1.0  0.67633  0.15646  0.95260  1.0000
  C   C3315     1.0  0.88483  0.21152  0.78326  1.0000
  H   H5664     1.0  0.58526  0.20030  0.91596  1.0000
  C   C3316     1.0  0.89271  0.21763  0.80949  1.0000
  H   H5665     1.0  0.57959  0.17875  0.92683  1.0000
  H   H5666     1.0  0.81459  0.06632  0.73439  1.0000
  H   H5667     1.0  0.67599  0.01911  0.83393  1.0000
  H   H5668     1.0  0.69457  0.22799  0.79262  1.0000
  H   H5669     1.0  0.67234  0.16249  0.86135  1.0000
  H   H5670     1.0  0.63144  0.18817  0.87996  1.0000
  C   C3317     1.0  0.65016  0.13612  0.97589  1.0000
  H   H5671     1.0  0.68998  0.02878  0.85064  1.0000
  H   H5672     1.0  0.65447  0.18882  0.85391  1.0000
  H   H5673     1.0  0.65142  0.17466  0.86733  1.0000
  H   H5674     1.0  0.79625  0.14233  0.76227  1.0000
  C   C3318     1.0  0.65125  0.18566  0.86514  1.0000
  C   C3319     1.0  0.67709  0.16489  0.86838  1.0000
  C   C3320     1.0  0.63597  0.19246  0.86926  1.0000
  N   N238      1.0  0.66100  0.18819  0.87195  1.0000
  C   C3321     1.0  0.66144  0.20305  0.86781  1.0000
  H   H5675     1.0  0.66639  0.18069  0.89145  1.0000
  N   N239      1.0  0.73599  0.15388  0.75968  1.0000
  H   H5676     1.0  0.68211  0.20320  0.86956  1.0000
  H   H5677     1.0  0.65120  0.20975  0.87033  1.0000
  H   H5678     1.0  0.63898  0.18683  0.90328  1.0000
  C   C3322     1.0  0.68836  0.03368  0.81213  1.0000
  C   C3323     1.0  0.66643  0.04716  0.82208  1.0000
  C   C3324     1.0  0.68536  0.17366  0.94407  1.0000
  H   H5679     1.0  0.89066  0.20743  0.77406  1.0000
  H   H5680     1.0  0.66121  0.03415  0.81168  1.0000
  H   H5681     1.0  0.59353  0.18863  0.90526  1.0000
  H   H5682     1.0  0.66871  0.03118  0.84437  1.0000
  H   H5683     1.0  0.72988  0.14808  0.78155  1.0000
  H   H5684     1.0  0.50705  0.15217  0.83293  1.0000
  H   H5685     1.0  0.68114  0.13095  0.96362  1.0000
  C   C3325     1.0  0.82777  0.13140  0.76713  1.0000
  H   H5686     1.0  0.77846  0.15010  0.77907  1.0000
  C   C3326     1.0  0.74775  0.15808  0.74852  1.0000
  H   H5687     1.0  0.59665  0.20076  0.88246  1.0000
  H   H5688     1.0  0.55527  0.21574  0.88335  1.0000
  H   H5689     1.0  0.73242  0.14347  0.74617  1.0000
  H   H5690     1.0  0.56605  0.22588  0.89335  1.0000
  H   H5691     1.0  0.61162  0.99777  0.86664  1.0000
  H   H5692     1.0  0.71524  0.16328  0.76885  1.0000
  H   H5693     1.0  0.82572  0.13012  0.75780  1.0000
  H   H5694     1.0  0.67324  0.13728  0.94914  1.0000
  H   H5695     1.0  0.71831  0.16491  0.75104  1.0000
  C   C3327     1.0  0.56822  0.21741  0.90212  1.0000
  H   H5696     1.0  0.57468  0.17704  0.91262  1.0000
  H   H5697     1.0  0.69965  0.01820  0.83854  1.0000
  H   H5698     1.0  0.64702  0.04601  0.81903  1.0000
  H   H5699     1.0  0.68352  0.02612  0.81073  1.0000
  C   C3328     1.0  0.73338  0.14155  0.75689  1.0000
  H   H5700     1.0  0.55551  0.21254  0.92266  1.0000
  H   H5701     1.0  0.89499  0.19609  0.80976  1.0000
  C   C3329     1.0  0.50115  0.13422  0.87090  1.0000
  S   S950      1.0  0.83191  0.19206  0.73631  1.0000
  H   H5702     1.0  0.71085  0.14421  0.76480  1.0000
  H   H5703     1.0  0.86708  0.22150  0.80260  1.0000
  H   H5704     1.0  0.58641  0.21735  0.87825  1.0000
  H   H5705     1.0  0.57325  0.22170  0.90752  1.0000
  C   C3330     1.0  0.58334  0.19493  0.90911  1.0000
  N   N240      1.0  0.88683  0.22714  0.79783  1.0000
  S   S951      1.0  0.78231  0.10948  0.73841  1.0000
  H   H5706     1.0  0.87448  0.21682  0.78134  1.0000
  C   C3331     1.0  0.55445  0.21545  0.91194  1.0000
  C   C3332     1.0  0.80896  0.07709  0.73317  1.0000
  H   H5707     1.0  0.69194  0.17832  0.93463  1.0000
  H   H5708     1.0  0.71313  0.13884  0.95606  1.0000
  H   H5709     1.0  0.57113  0.21266  0.87077  1.0000
  H   H5710     1.0  0.55957  0.20170  0.87535  1.0000
  H   H5711     1.0  0.85877  0.14583  0.73380  1.0000
  S   S952      1.0  0.65510  0.23379  0.80800  1.0000
  H   H5712     1.0  0.74505  0.16049  0.73843  1.0000
  Fe  Fe476     1.0  0.63507  0.23255  0.80487  1.0000
  H   H5713     1.0  0.68376  0.14973  0.97075  1.0000
  H   H5714     1.0  0.79185  0.06082  0.73767  1.0000
  C   C3333     1.0  0.49495  0.13978  0.84901  1.0000
  H   H5715     1.0  0.79890  0.07826  0.74050  1.0000
  H   H5716     1.0  0.59366  0.22497  0.89519  1.0000
  C   C3334     1.0  0.84742  0.16644  0.73435  1.0000
  H   H5717     1.0  0.86785  0.23031  0.82300  1.0000
  C   C3335     1.0  0.83510  0.17590  0.73294  1.0000
  H   H5718     1.0  0.69242  0.23392  0.82051  1.0000
  H   H5719     1.0  0.89202  0.22980  0.77589  1.0000
  H   H5720     1.0  0.66207  0.98762  0.84979  1.0000
  H   H5721     1.0  0.91322  0.23275  0.79634  1.0000
  H   H5722     1.0  0.69580  0.13385  0.97471  1.0000
  Fe  Fe477     1.0  0.86860  0.21613  0.73519  1.0000
  H   H5723     1.0  0.64090  0.98588  0.89534  1.0000
  H   H5724     1.0  0.77939  0.05797  0.73034  1.0000
  Fe  Fe478     1.0  0.78865  0.26645  0.14384  1.0000
  S   S953      1.0  0.76628  0.27025  0.14429  1.0000
  S   S954      1.0  0.79652  0.25969  0.16310  1.0000
  Fe  Fe479     1.0  0.79596  0.27589  0.11344  1.0000
  S   S955      1.0  0.77423  0.28017  0.11110  1.0000
  S   S956      1.0  0.81396  0.28097  0.09669  1.0000
  Fe  Fe480     1.0  0.76913  0.28950  0.12925  1.0000
  S   S957      1.0  0.75292  0.30885  0.12944  1.0000
  Fe  Fe481     1.0  0.77294  0.26041  0.12625  1.0000
  N   N241      1.0  0.78077  0.32239  0.22906  1.0000
  S   S958      1.0  0.79085  0.28673  0.13043  1.0000
  S   S959      1.0  0.79534  0.25511  0.12698  1.0000
  H   H5725     1.0  0.84189  0.36451  0.02514  1.0000
  H   H5726     1.0  0.75366  0.34424  0.20218  1.0000
  Fe  Fe482     1.0  0.86994  0.25655  0.16647  1.0000
  S   S960      1.0  0.86338  0.25131  0.18921  1.0000
  S   S961      1.0  0.86049  0.25473  0.15047  1.0000
  Fe  Fe483     1.0  0.89562  0.26465  0.16651  1.0000
  S   S962      1.0  0.89169  0.26018  0.18924  1.0000
  S   S963      1.0  0.91346  0.27209  0.15128  1.0000
  H   H5727     1.0  0.80738  0.33959  0.22174  1.0000
  H   H5728     1.0  0.89038  0.28432  0.13783  1.0000
  Fe  Fe484     1.0  0.86986  0.27028  0.18825  1.0000
  S   S964      1.0  0.85784  0.28528  0.20120  1.0000
  S   S965      1.0  0.89166  0.24494  0.16594  1.0000
  S   S966      1.0  0.87424  0.27652  0.16555  1.0000
  H   H5729     1.0  0.85090  0.31393  0.05450  1.0000
  H   H5730     1.0  0.85400  0.31683  0.03645  1.0000
  C   C3336     1.0  0.76119  0.24049  0.10400  1.0000
  Fe  Fe485     1.0  0.77893  0.35310  0.15810  1.0000
  S   S967      1.0  0.80082  0.34188  0.15482  1.0000
  S   S968      1.0  0.76566  0.35850  0.14306  1.0000
  Fe  Fe486     1.0  0.77855  0.35734  0.18560  1.0000
  S   S969      1.0  0.80079  0.34699  0.18456  1.0000
  S   S970      1.0  0.76541  0.36569  0.20393  1.0000
  Fe  Fe487     1.0  0.80426  0.35817  0.16274  1.0000
  S   S971      1.0  0.82266  0.36605  0.14940  1.0000
  Fe  Fe488     1.0  0.79569  0.33162  0.17672  1.0000
  S   S972      1.0  0.80096  0.30904  0.18419  1.0000
  S   S973      1.0  0.78254  0.37024  0.16448  1.0000
  S   S974      1.0  0.77332  0.34114  0.17920  1.0000
  Fe  Fe489     1.0  0.93545  0.33815  0.14335  1.0000
  S   S975      1.0  0.95026  0.33381  0.12406  1.0000
  S   S976      1.0  0.92476  0.32437  0.16102  1.0000
  Fe  Fe490     1.0  0.93584  0.36780  0.13590  1.0000
  S   S977      1.0  0.95064  0.36635  0.11588  1.0000
  S   S978      1.0  0.92608  0.38664  0.14415  1.0000
  Fe  Fe491     1.0  0.93778  0.35325  0.11393  1.0000
  S   S979      1.0  0.93177  0.35633  0.09397  1.0000
  Fe  Fe492     1.0  0.96192  0.34723  0.12765  1.0000
  C   C3337     1.0  0.66106  0.29380  0.22217  1.0000
  S   S980      1.0  0.92211  0.35642  0.13298  1.0000
  S   S981      1.0  0.94809  0.34985  0.14784  1.0000
  Fe  Fe493     1.0  0.84669  0.37544  0.06563  1.0000
  S   S982      1.0  0.86844  0.36449  0.05847  1.0000
  S   S983      1.0  0.83966  0.39827  0.06170  1.0000
  Fe  Fe494     1.0  0.83612  0.34941  0.07596  1.0000
  S   S984      1.0  0.85691  0.33628  0.06993  1.0000
  S   S985      1.0  0.81622  0.34281  0.08624  1.0000
  Fe  Fe495     1.0  0.86458  0.34957  0.07840  1.0000
  S   S986      1.0  0.87652  0.34113  0.09509  1.0000
  Fe  Fe496     1.0  0.85881  0.35231  0.05047  1.0000
  S   S987      1.0  0.84347  0.36148  0.08595  1.0000
  S   S988      1.0  0.83743  0.36447  0.05609  1.0000
  Fe  Fe497     1.0  0.84233  0.44352  0.10884  1.0000
  S   S989      1.0  0.85591  0.42423  0.11708  1.0000
  S   S990      1.0  0.82988  0.44427  0.09413  1.0000
  Fe  Fe498     1.0  0.84974  0.46013  0.12480  1.0000
  S   S991      1.0  0.86378  0.44172  0.13453  1.0000
  Fe  Fe499     1.0  0.87091  0.43707  0.11365  1.0000
  S   S992      1.0  0.89216  0.42815  0.10306  1.0000
  Fe  Fe500     1.0  0.84729  0.43063  0.13703  1.0000
  S   S993      1.0  0.84014  0.41614  0.15644  1.0000
  S   S994      1.0  0.85805  0.45616  0.10364  1.0000
  S   S995      1.0  0.83261  0.44928  0.12901  1.0000
  H   H5731     1.0  0.82983  0.36898  0.00644  1.0000
  C   C3338     1.0  0.83674  0.41016  0.07183  1.0000
  C   C3339     1.0  0.83870  0.40665  0.08518  1.0000
  C   C3340     1.0  0.83681  0.41699  0.09226  1.0000
  C   C3341     1.0  0.83272  0.43073  0.08604  1.0000
  C   C3342     1.0  0.83034  0.43401  0.07296  1.0000
  C   C3343     1.0  0.83246  0.42384  0.06588  1.0000
  H   H5732     1.0  0.84184  0.39609  0.08994  1.0000
  H   H5733     1.0  0.83836  0.41437  0.10251  1.0000
  H   H5734     1.0  0.82701  0.44455  0.06816  1.0000
  H   H5735     1.0  0.83081  0.42664  0.05565  1.0000
  H   H5736     1.0  0.94287  0.41073  0.12897  1.0000
  H   H5737     1.0  0.83049  0.32898  0.00323  1.0000
  S   S996      1.0  0.84376  0.48131  0.12949  1.0000
  H   H5738     1.0  0.84000  0.33516  0.01961  1.0000
  C   C3344     1.0  0.75342  0.24101  0.11717  1.0000
  C   C3345     1.0  0.91641  0.39818  0.13296  1.0000
  C   C3346     1.0  0.90789  0.41023  0.13643  1.0000
  C   C3347     1.0  0.90027  0.41948  0.12731  1.0000
  C   C3348     1.0  0.90148  0.41681  0.11463  1.0000
  C   C3349     1.0  0.91017  0.40486  0.11115  1.0000
  C   C3350     1.0  0.91743  0.39544  0.12038  1.0000
  H   H5739     1.0  0.90711  0.41239  0.14615  1.0000
  H   H5740     1.0  0.89367  0.42880  0.12998  1.0000
  H   H5741     1.0  0.91115  0.40277  0.10138  1.0000
  H   H5742     1.0  0.92395  0.38615  0.11764  1.0000
  C   C3351     1.0  0.91620  0.35251  0.09430  1.0000
  C   C3352     1.0  0.90724  0.34858  0.10659  1.0000
  C   C3353     1.0  0.89493  0.34555  0.10664  1.0000
  C   C3354     1.0  0.89147  0.34631  0.09441  1.0000
  C   C3355     1.0  0.90028  0.35048  0.08208  1.0000
  C   C3356     1.0  0.91264  0.35353  0.08203  1.0000
  H   H5743     1.0  0.90984  0.34777  0.11608  1.0000
  H   H5744     1.0  0.88803  0.34269  0.11622  1.0000
  H   H5745     1.0  0.89775  0.35103  0.07260  1.0000
  H   H5746     1.0  0.91954  0.35655  0.07248  1.0000
  C   C3357     1.0  0.87567  0.39434  0.13978  1.0000
  C   C3358     1.0  0.82562  0.38085  0.15166  1.0000
  C   C3359     1.0  0.82418  0.38296  0.16462  1.0000
  C   C3360     1.0  0.82828  0.39408  0.16604  1.0000
  C   C3361     1.0  0.83347  0.40328  0.15453  1.0000
  C   C3362     1.0  0.83424  0.40146  0.14161  1.0000
  C   C3363     1.0  0.83062  0.39012  0.14018  1.0000
  H   H5747     1.0  0.82041  0.37576  0.17352  1.0000
  H   H5748     1.0  0.82763  0.39546  0.17607  1.0000
  H   H5749     1.0  0.83786  0.40861  0.13271  1.0000
  H   H5750     1.0  0.83176  0.38853  0.13013  1.0000
  C   C3364     1.0  0.79610  0.39766  0.12887  1.0000
  H   H5751     1.0  0.87346  0.47579  0.12749  1.0000
  H   H5752     1.0  0.73804  0.34027  0.16232  1.0000
  H   H5753     1.0  0.88622  0.32079  0.11865  1.0000
  C   C3365     1.0  0.81524  0.32019  0.04306  1.0000
  H   H5754     1.0  0.88313  0.40043  0.13901  1.0000
  N   N242      1.0  0.89195  0.29923  0.11897  1.0000
  C   C3366     1.0  0.91661  0.28661  0.15400  1.0000
  C   C3367     1.0  0.90938  0.29170  0.16560  1.0000
  C   C3368     1.0  0.91196  0.30332  0.16764  1.0000
  C   C3369     1.0  0.92151  0.31010  0.15793  1.0000
  C   C3370     1.0  0.92855  0.30518  0.14618  1.0000
  C   C3371     1.0  0.92626  0.29331  0.14433  1.0000
  H   H5755     1.0  0.90187  0.28662  0.17308  1.0000
  H   H5756     1.0  0.90649  0.30711  0.17674  1.0000
  H   H5757     1.0  0.93586  0.31041  0.13861  1.0000
  H   H5758     1.0  0.93189  0.28938  0.13534  1.0000
  C   C3372     1.0  0.84167  0.29182  0.19726  1.0000
  C   C3373     1.0  0.83596  0.30578  0.19563  1.0000
  C   C3374     1.0  0.82344  0.31117  0.19156  1.0000
  C   C3375     1.0  0.81638  0.30255  0.18966  1.0000
  H   H5759     1.0  0.87032  0.38748  0.12435  1.0000
  H   H5760     1.0  0.64203  0.29557  0.21738  1.0000
  H   H5761     1.0  0.84146  0.31247  0.19699  1.0000
  H   H5762     1.0  0.81939  0.32199  0.18976  1.0000
  H   H5763     1.0  0.89968  0.31105  0.13720  1.0000
  H   H5764     1.0  0.80400  0.28723  0.15168  1.0000
  H   H5765     1.0  0.90986  0.31763  0.11421  1.0000
  H   H5766     1.0  0.93575  0.42094  0.10744  1.0000
  H   H5767     1.0  0.73510  0.38917  0.15310  1.0000
  C   C3376     1.0  0.97243  0.28106  0.16768  1.0000
  C   C3377     1.0  0.84590  0.31567  0.04593  1.0000
  H   H5768     1.0  0.89816  0.38031  0.14521  1.0000
  H   H5769     1.0  0.98649  0.41275  0.12993  1.0000
  C   C3378     1.0  0.83987  0.36222  0.00595  1.0000
  C   C3379     1.0  0.78830  0.33271  0.22917  1.0000
  H   H5770     1.0  0.92500  0.30588  0.10833  1.0000
  C   C3380     1.0  0.81459  0.29817  0.09361  1.0000
  C   C3381     1.0  0.82689  0.30231  0.08680  1.0000
  C   C3382     1.0  0.82751  0.31601  0.08436  1.0000
  C   C3383     1.0  0.81580  0.32563  0.08871  1.0000
  C   C3384     1.0  0.80353  0.32148  0.09552  1.0000
  C   C3385     1.0  0.80292  0.30780  0.09796  1.0000
  H   H5771     1.0  0.83596  0.29489  0.08344  1.0000
  H   H5772     1.0  0.83705  0.31908  0.07923  1.0000
  H   H5773     1.0  0.79446  0.32884  0.09898  1.0000
  H   H5774     1.0  0.79334  0.30476  0.10307  1.0000
  C   C3386     1.0  0.75716  0.32232  0.13315  1.0000
  C   C3387     1.0  0.76744  0.32012  0.14025  1.0000
  C   C3388     1.0  0.77018  0.33117  0.14339  1.0000
  C   C3389     1.0  0.76281  0.34442  0.13919  1.0000
  C   C3390     1.0  0.75267  0.34657  0.13201  1.0000
  C   C3391     1.0  0.74975  0.33555  0.12913  1.0000
  H   H5775     1.0  0.77305  0.30990  0.14356  1.0000
  H   H5776     1.0  0.77796  0.32944  0.14903  1.0000
  H   H5777     1.0  0.74696  0.35676  0.12875  1.0000
  H   H5778     1.0  0.74182  0.33730  0.12366  1.0000
  C   C3392     1.0  0.81436  0.25768  0.15992  1.0000
  C   C3393     1.0  0.82249  0.25613  0.14712  1.0000
  C   C3394     1.0  0.83669  0.25488  0.14449  1.0000
  C   C3395     1.0  0.84280  0.25551  0.15452  1.0000
  C   C3396     1.0  0.83473  0.25698  0.16739  1.0000
  C   C3397     1.0  0.82051  0.25795  0.17011  1.0000
  H   H5779     1.0  0.81782  0.25590  0.13922  1.0000
  H   H5780     1.0  0.84291  0.25364  0.13456  1.0000
  H   H5781     1.0  0.83934  0.25764  0.17515  1.0000
  H   H5782     1.0  0.81420  0.25928  0.17999  1.0000
  H   H5783     1.0  0.84990  0.26050  0.21685  1.0000
  H   H5784     1.0  0.66623  0.29565  0.21125  1.0000
  H   H5785     1.0  0.73437  0.33430  0.21709  1.0000
  H   H5786     1.0  0.95009  0.42688  0.10768  1.0000
  H   H5787     1.0  0.96346  0.41630  0.13008  1.0000
  H   H5788     1.0  0.98657  0.39560  0.13182  1.0000
  H   H5789     1.0  0.95617  0.32135  0.17699  1.0000
  H   H5790     1.0  0.80530  0.32434  0.03980  1.0000
  H   H5791     1.0  0.80977  0.29077  0.16478  1.0000
  H   H5792     1.0  0.63779  0.26176  0.22017  1.0000
  C   C3398     1.0  0.87906  0.39057  0.12581  1.0000
  H   H5793     1.0  0.71952  0.38848  0.14945  1.0000
  H   H5794     1.0  0.88073  0.39971  0.11771  1.0000
  N   N243      1.0  0.73000  0.28804  0.11524  1.0000
  C   C3399     1.0  0.73746  0.27499  0.11049  1.0000
  C   C3400     1.0  0.73292  0.28647  0.12895  1.0000
  C   C3401     1.0  0.73612  0.29939  0.10534  1.0000
  C   C3402     1.0  0.71493  0.29031  0.11563  1.0000
  C   C3403     1.0  0.73697  0.27453  0.09605  1.0000
  C   C3404     1.0  0.72757  0.27507  0.14031  1.0000
  C   C3405     1.0  0.72948  0.31390  0.10769  1.0000
  C   C3406     1.0  0.70471  0.29984  0.12476  1.0000
  H   H5795     1.0  0.74849  0.27247  0.11090  1.0000
  H   H5796     1.0  0.73320  0.26629  0.11736  1.0000
  H   H5797     1.0  0.72893  0.29595  0.13283  1.0000
  H   H5798     1.0  0.74420  0.28440  0.12811  1.0000
  H   H5799     1.0  0.84196  0.30657  0.04701  1.0000
  H   H5800     1.0  0.73548  0.29994  0.09482  1.0000
  H   H5801     1.0  0.71304  0.29436  0.10518  1.0000
  H   H5802     1.0  0.71170  0.28041  0.11920  1.0000
  H   H5803     1.0  0.74393  0.28043  0.08813  1.0000
  H   H5804     1.0  0.74076  0.26385  0.09474  1.0000
  H   H5805     1.0  0.72645  0.27791  0.09420  1.0000
  H   H5806     1.0  0.71659  0.27554  0.14130  1.0000
  H   H5807     1.0  0.73370  0.26487  0.13880  1.0000
  H   H5808     1.0  0.72877  0.27606  0.15015  1.0000
  C   C3407     1.0  0.83465  0.28321  0.19529  1.0000
  H   H5809     1.0  0.72929  0.31500  0.11792  1.0000
  H   H5810     1.0  0.71902  0.31740  0.10566  1.0000
  H   H5811     1.0  0.69707  0.30695  0.11905  1.0000
  H   H5812     1.0  0.70928  0.30619  0.12827  1.0000
  H   H5813     1.0  0.69871  0.29390  0.13375  1.0000
  H   H5814     1.0  0.97454  0.40232  0.10008  1.0000
  H   H5815     1.0  0.72031  0.40215  0.15641  1.0000
  H   H5816     1.0  0.96378  0.39062  0.10489  1.0000
  C   C3408     1.0  0.94892  0.40628  0.12005  1.0000
  H   H5817     1.0  0.91251  0.28833  0.11142  1.0000
  H   H5818     1.0  0.91219  0.31246  0.09849  1.0000
  H   H5819     1.0  0.87215  0.24087  0.22014  1.0000
  H   H5820     1.0  0.65662  0.25453  0.20540  1.0000
  H   H5821     1.0  0.81997  0.31091  0.03875  1.0000
  S   S997      1.0  0.83603  0.35774  0.98274  1.0000
  H   H5822     1.0  0.82934  0.32894  0.05673  1.0000
  C   C3409     1.0  0.83222  0.32884  0.02345  1.0000
  S   S998      1.0  0.75890  0.24620  0.12906  1.0000
  H   H5823     1.0  0.81652  0.28186  0.19012  1.0000
  H   H5824     1.0  0.63631  0.27837  0.20961  1.0000
  H   H5825     1.0  0.83900  0.27243  0.19651  1.0000
  C   C3410     1.0  0.83443  0.32872  0.04598  1.0000
  H   H5826     1.0  0.81921  0.35013  0.12552  1.0000
  C   C3411     1.0  0.81182  0.31490  0.05858  1.0000
  C   C3412     1.0  0.66512  0.25647  0.20851  1.0000
  H   H5827     1.0  0.70023  0.36920  0.19152  1.0000
  H   H5828     1.0  0.82085  0.37340  0.11950  1.0000
  H   H5829     1.0  0.80383  0.30890  0.06130  1.0000
  H   H5830     1.0  0.77566  0.33419  0.21001  1.0000
  C   C3413     1.0  0.88470  0.31106  0.12576  1.0000
  H   H5831     1.0  0.97769  0.35800  0.14413  1.0000
  C   C3414     1.0  0.95943  0.31013  0.16106  1.0000
  H   H5832     1.0  0.79025  0.32107  0.20797  1.0000
  H   H5833     1.0  0.80521  0.33025  0.21104  1.0000
  H   H5834     1.0  0.73571  0.32095  0.10038  1.0000
  C   C3415     1.0  0.82371  0.33225  0.01257  1.0000
  H   H5835     1.0  0.80781  0.32306  0.06439  1.0000
  H   H5836     1.0  0.83962  0.33744  0.04243  1.0000
  C   C3416     1.0  0.64812  0.28827  0.22463  1.0000
  N   N244      1.0  0.80304  0.38292  0.11076  1.0000
  C   C3417     1.0  0.88846  0.30251  0.10525  1.0000
  C   C3418     1.0  0.87356  0.30274  0.10542  1.0000
  C   C3419     1.0  0.89321  0.27349  0.12258  1.0000
  H   H5837     1.0  0.87340  0.31197  0.12842  1.0000
  H   H5838     1.0  0.89539  0.29543  0.09875  1.0000
  H   H5839     1.0  0.89028  0.31269  0.09944  1.0000
  H   H5840     1.0  0.87591  0.28838  0.13104  1.0000
  H   H5841     1.0  0.87218  0.30575  0.09479  1.0000
  H   H5842     1.0  0.87113  0.29258  0.10978  1.0000
  H   H5843     1.0  0.86611  0.31041  0.11086  1.0000
  H   H5844     1.0  0.90309  0.26805  0.12561  1.0000
  H   H5845     1.0  0.88578  0.26677  0.12691  1.0000
  H   H5846     1.0  0.82213  0.35224  0.03112  1.0000
  C   C3420     1.0  0.61093  0.23661  0.22880  1.0000
  H   H5847     1.0  0.83821  0.31821  0.02352  1.0000
  H   H5848     1.0  0.80547  0.30627  0.21801  1.0000
  H   H5849     1.0  0.97983  0.37259  0.11559  1.0000
  H   H5850     1.0  0.79397  0.30032  0.16041  1.0000
  H   H5851     1.0  0.79863  0.34371  0.05456  1.0000
  N   N245      1.0  0.65023  0.27385  0.22309  1.0000
  C   C3421     1.0  0.75097  0.35916  0.21377  1.0000
  C   C3422     1.0  0.84363  0.26007  0.22734  1.0000
  H   H5852     1.0  0.88857  0.38254  0.12432  1.0000
  C   C3423     1.0  0.66186  0.27092  0.21117  1.0000
  H   H5853     1.0  0.79493  0.40834  0.12952  1.0000
  H   H5854     1.0  0.62150  0.28823  0.22979  1.0000
  C   C3424     1.0  0.81556  0.34478  0.03644  1.0000
  H   H5855     1.0  0.96020  0.29891  0.13974  1.0000
  S   S999      1.0  0.98522  0.34123  0.12400  1.0000
  H   H5856     1.0  0.80288  0.35372  0.12153  1.0000
  C   C3425     1.0  0.80353  0.33071  0.22179  1.0000
  H   H5857     1.0  0.87546  0.33750  0.00465  1.0000
  C   C3426     1.0  0.88843  0.24351  0.22728  1.0000
  C   C3427     1.0  0.97150  0.29714  0.13630  1.0000
  N   N246      1.0  0.82421  0.33047  0.03756  1.0000
  H   H5858     1.0  0.80276  0.39125  0.13591  1.0000
  H   H5859     1.0  0.77078  0.24378  0.10057  1.0000
  H   H5860     1.0  0.80988  0.32161  0.22720  1.0000
  H   H5861     1.0  0.77328  0.31450  0.20193  1.0000
  H   H5862     1.0  0.80794  0.34659  0.03019  1.0000
  H   H5863     1.0  0.95522  0.32004  0.15477  1.0000
  H   H5864     1.0  0.88660  0.30180  0.14706  1.0000
  C   C3428     1.0  0.81174  0.30616  0.14552  1.0000
  H   H5865     1.0  0.74726  0.29748  0.10515  1.0000
  C   C3429     1.0  0.88877  0.31072  0.13893  1.0000
  C   C3430     1.0  0.80466  0.29536  0.15611  1.0000
  C   C3431     1.0  0.86556  0.34452  0.00500  1.0000
  C   C3432     1.0  0.90728  0.29670  0.11695  1.0000
  H   H5866     1.0  0.98892  0.30366  0.13654  1.0000
  H   H5867     1.0  0.89220  0.36644  0.14442  1.0000
  H   H5868     1.0  0.81979  0.34338  0.00951  1.0000
  H   H5869     1.0  0.94371  0.39845  0.11985  1.0000
  H   H5870     1.0  0.89486  0.27513  0.11144  1.0000
  H   H5871     1.0  0.91037  0.29301  0.12686  1.0000
  H   H5872     1.0  0.78576  0.39535  0.13245  1.0000
  H   H5873     1.0  0.77417  0.30380  0.21829  1.0000
  H   H5874     1.0  0.81152  0.31393  0.15098  1.0000
  H   H5875     1.0  0.97079  0.41838  0.11271  1.0000
  H   H5876     1.0  0.95376  0.30311  0.16005  1.0000
  H   H5877     1.0  0.66774  0.24852  0.21741  1.0000
  H   H5878     1.0  0.80480  0.31148  0.13838  1.0000
  N   N247      1.0  0.96357  0.39976  0.12125  1.0000
  C   C3433     1.0  0.96304  0.38844  0.13378  1.0000
  C   C3434     1.0  0.98474  0.40562  0.12481  1.0000
  C   C3435     1.0  0.95702  0.39284  0.14753  1.0000
  C   C3436     1.0  0.63736  0.27253  0.22002  1.0000
  H   H5879     1.0  0.97333  0.38207  0.13456  1.0000
  H   H5880     1.0  0.95710  0.38134  0.13326  1.0000
  C   C3437     1.0  0.95480  0.31157  0.17601  1.0000
  H   H5881     1.0  0.94365  0.31176  0.17963  1.0000
  H   H5882     1.0  0.95694  0.38356  0.15579  1.0000
  H   H5883     1.0  0.96338  0.39870  0.14943  1.0000
  H   H5884     1.0  0.94625  0.39867  0.14856  1.0000
  H   H5885     1.0  0.86359  0.34227  0.98578  1.0000
  Fe  Fe501     1.0  0.88560  0.24148  0.18867  1.0000
  H   H5886     1.0  0.82090  0.30789  0.06208  1.0000
  H   H5887     1.0  0.87124  0.25788  0.22038  1.0000
  C   C3438     1.0  0.75670  0.23526  0.09537  1.0000
  N   N248      1.0  0.87601  0.38257  0.15191  1.0000
  C   C3439     1.0  0.87092  0.38842  0.16451  1.0000
  C   C3440     1.0  0.86618  0.37448  0.15172  1.0000
  C   C3441     1.0  0.89048  0.37400  0.15072  1.0000
  C   C3442     1.0  0.87820  0.39924  0.16484  1.0000
  C   C3443     1.0  0.86396  0.36245  0.16375  1.0000
  C   C3444     1.0  0.89505  0.36609  0.16406  1.0000
  H   H5888     1.0  0.86541  0.40148  0.14089  1.0000
  H   H5889     1.0  0.87169  0.38041  0.17386  1.0000
  H   H5890     1.0  0.85977  0.39320  0.16584  1.0000
  H   H5891     1.0  0.85591  0.38125  0.15117  1.0000
  H   H5892     1.0  0.86956  0.37006  0.14251  1.0000
  H   H5893     1.0  0.88949  0.39628  0.16133  1.0000
  H   H5894     1.0  0.87427  0.40923  0.15850  1.0000
  H   H5895     1.0  0.87589  0.40072  0.17540  1.0000
  H   H5896     1.0  0.86071  0.36538  0.17372  1.0000
  H   H5897     1.0  0.87315  0.35396  0.16337  1.0000
  H   H5898     1.0  0.85549  0.35844  0.16287  1.0000
  H   H5899     1.0  0.90521  0.35912  0.16159  1.0000
  H   H5900     1.0  0.88795  0.35976  0.17092  1.0000
  N   N249      1.0  0.88336  0.39833  0.07702  1.0000
  C   C3445     1.0  0.88658  0.38658  0.08861  1.0000
  C   C3446     1.0  0.89679  0.40124  0.06805  1.0000
  C   C3447     1.0  0.87581  0.39406  0.06907  1.0000
  C   C3448     1.0  0.87467  0.41028  0.08314  1.0000
  C   C3449     1.0  0.87443  0.38010  0.09743  1.0000
  C   C3450     1.0  0.90653  0.40415  0.07503  1.0000
  C   C3451     1.0  0.87719  0.40083  0.05381  1.0000
  C   C3452     1.0  0.87030  0.42364  0.07322  1.0000
  H   H5901     1.0  0.89478  0.37827  0.08471  1.0000
  H   H5902     1.0  0.89072  0.38968  0.09570  1.0000
  H   H5903     1.0  0.89513  0.41006  0.05951  1.0000
  H   H5904     1.0  0.90265  0.39244  0.06325  1.0000
  H   H5905     1.0  0.87949  0.38298  0.06918  1.0000
  H   H5906     1.0  0.86471  0.39550  0.07390  1.0000
  H   H5907     1.0  0.86498  0.40787  0.08989  1.0000
  H   H5908     1.0  0.87995  0.41259  0.08981  1.0000
  H   H5909     1.0  0.87086  0.37479  0.09173  1.0000
  H   H5910     1.0  0.87794  0.37225  0.10603  1.0000
  H   H5911     1.0  0.86562  0.38749  0.10193  1.0000
  H   H5912     1.0  0.91557  0.40692  0.06720  1.0000
  H   H5913     1.0  0.90167  0.41285  0.08010  1.0000
  H   H5914     1.0  0.91057  0.39499  0.08229  1.0000
  H   H5915     1.0  0.88749  0.39682  0.04784  1.0000
  H   H5916     1.0  0.87527  0.41202  0.05167  1.0000
  H   H5917     1.0  0.86960  0.39820  0.04991  1.0000
  H   H5918     1.0  0.87917  0.42743  0.06610  1.0000
  H   H5919     1.0  0.86452  0.43158  0.07916  1.0000
  H   H5920     1.0  0.86315  0.42266  0.06765  1.0000
  N   N250      1.0  0.82608  0.30104  0.13781  1.0000
  C   C3453     1.0  0.83221  0.31313  0.13011  1.0000
  C   C3454     1.0  0.83507  0.29200  0.14728  1.0000
  C   C3455     1.0  0.82519  0.29286  0.12844  1.0000
  C   C3456     1.0  0.82642  0.32168  0.11770  1.0000
  C   C3457     1.0  0.83754  0.29887  0.15731  1.0000
  C   C3458     1.0  0.83883  0.28733  0.11907  1.0000
  H   H5921     1.0  0.84353  0.31001  0.12662  1.0000
  H   H5922     1.0  0.83072  0.32023  0.13686  1.0000
  H   H5923     1.0  0.83086  0.28300  0.15316  1.0000
  H   H5924     1.0  0.84542  0.28773  0.14151  1.0000
  H   H5925     1.0  0.82114  0.28375  0.13439  1.0000
  H   H5926     1.0  0.81751  0.29847  0.12214  1.0000
  H   H5927     1.0  0.83123  0.33058  0.11319  1.0000
  H   H5928     1.0  0.82907  0.31580  0.10972  1.0000
  H   H5929     1.0  0.84448  0.30596  0.15208  1.0000
  H   H5930     1.0  0.84261  0.29095  0.16493  1.0000
  H   H5931     1.0  0.82787  0.30441  0.16286  1.0000
  H   H5932     1.0  0.84465  0.27778  0.12446  1.0000
  H   H5933     1.0  0.84547  0.29472  0.11472  1.0000
  H   H5934     1.0  0.83655  0.28524  0.11022  1.0000
  N   N251      1.0  0.72846  0.36970  0.17567  1.0000
  C   C3459     1.0  0.72260  0.36360  0.19023  1.0000
  C   C3460     1.0  0.74259  0.37144  0.17487  1.0000
  C   C3461     1.0  0.72962  0.36060  0.16631  1.0000
  C   C3462     1.0  0.71906  0.38311  0.17134  1.0000
  C   C3463     1.0  0.70853  0.36001  0.19311  1.0000
  C   C3464     1.0  0.74307  0.38319  0.18078  1.0000
  C   C3465     1.0  0.73748  0.34578  0.17018  1.0000
  C   C3466     1.0  0.72382  0.39106  0.15674  1.0000
  H   H5935     1.0  0.72979  0.35418  0.19405  1.0000
  H   H5936     1.0  0.72143  0.37056  0.19700  1.0000
  H   H5937     1.0  0.74878  0.37279  0.16427  1.0000
  H   H5938     1.0  0.74857  0.36206  0.18038  1.0000
  H   H5939     1.0  0.71932  0.36037  0.16534  1.0000
  H   H5940     1.0  0.73495  0.36472  0.15578  1.0000
  H   H5941     1.0  0.70880  0.38159  0.17171  1.0000
  H   H5942     1.0  0.71675  0.38986  0.17862  1.0000
  C   C3467     1.0  0.77999  0.32348  0.21465  1.0000
  C   C3468     1.0  0.82190  0.28854  0.19171  1.0000
  H   H5943     1.0  0.70862  0.35279  0.18711  1.0000
  H   H5944     1.0  0.73776  0.38221  0.19164  1.0000
  H   H5945     1.0  0.75394  0.38297  0.18021  1.0000
  H   H5946     1.0  0.73886  0.39327  0.17486  1.0000
  H   H5947     1.0  0.81328  0.39797  0.11168  1.0000
  H   H5948     1.0  0.73230  0.34023  0.18000  1.0000
  H   H5949     1.0  0.74819  0.34523  0.17039  1.0000
  C   C3469     1.0  0.91374  0.30897  0.10903  1.0000
  C   C3470     1.0  0.84585  0.35591  0.99479  1.0000
  C   C3471     1.0  0.85941  0.35051  0.01634  1.0000
  C   C3472     1.0  0.97092  0.39419  0.10859  1.0000
  C   C3473     1.0  0.88730  0.28672  0.12799  1.0000
  C   C3474     1.0  0.98331  0.38202  0.10970  1.0000
  H   H5950     1.0  0.89646  0.37302  0.16960  1.0000
  H   H5951     1.0  0.88261  0.31989  0.14291  1.0000
  H   H5952     1.0  0.81515  0.32555  0.12035  1.0000
  S   S1000     1.0  0.86757  0.34554  0.03029  1.0000
  C   C3475     1.0  0.84666  0.35965  0.01660  1.0000
  H   H5953     1.0  0.81823  0.35562  0.10817  1.0000
  C   C3476     1.0  0.77141  0.31450  0.21288  1.0000
  C   C3477     1.0  0.81272  0.35705  0.11851  1.0000
  C   C3478     1.0  0.81055  0.37164  0.12025  1.0000
  H   H5954     1.0  0.80491  0.37143  0.13098  1.0000
  H   H5955     1.0  0.82182  0.38390  0.09544  1.0000
  H   H5956     1.0  0.98297  0.29303  0.17290  1.0000
  N   N252      1.0  0.97472  0.30592  0.15581  1.0000
  H   H5957     1.0  0.81512  0.32697  0.01592  1.0000
  C   C3479     1.0  0.80270  0.39619  0.11405  1.0000
  C   C3480     1.0  0.85887  0.34724  0.99426  1.0000
  H   H5958     1.0  0.78404  0.37816  0.12385  1.0000
  C   C3481     1.0  0.81111  0.38320  0.09632  1.0000
  H   H5959     1.0  0.79689  0.40495  0.10764  1.0000
  H   H5960     1.0  0.79419  0.39621  0.08653  1.0000
  H   H5961     1.0  0.95219  0.41438  0.09778  1.0000
  H   H5962     1.0  0.65793  0.30378  0.22521  1.0000
  C   C3482     1.0  0.80534  0.39497  0.08546  1.0000
  H   H5963     1.0  0.81227  0.37370  0.09304  1.0000
  H   H5964     1.0  0.80749  0.40469  0.08563  1.0000
  C   C3483     1.0  0.80717  0.34902  0.04983  1.0000
  H   H5965     1.0  0.79528  0.36397  0.10215  1.0000
  H   H5966     1.0  0.70589  0.35492  0.20400  1.0000
  C   C3484     1.0  0.74767  0.34841  0.21083  1.0000
  H   H5967     1.0  0.81062  0.39285  0.07523  1.0000
  H   H5968     1.0  0.96505  0.28230  0.16142  1.0000
  H   H5969     1.0  0.81354  0.34770  0.05715  1.0000
  C   C3485     1.0  0.78623  0.37189  0.10524  1.0000
  H   H5970     1.0  0.67422  0.25536  0.19996  1.0000
  C   C3486     1.0  0.94690  0.41774  0.10743  1.0000
  C   C3487     1.0  0.78849  0.38155  0.11283  1.0000
  H   H5971     1.0  0.78187  0.39167  0.10955  1.0000
  C   C3488     1.0  0.97006  0.41046  0.12227  1.0000
  H   H5972     1.0  0.65969  0.27828  0.20169  1.0000
  H   H5973     1.0  0.80236  0.36004  0.04754  1.0000
  H   H5974     1.0  0.61516  0.27563  0.22647  1.0000
  H   H5975     1.0  0.77825  0.36640  0.11197  1.0000
  C   C3489     1.0  0.73671  0.34276  0.21933  1.0000
  H   H5976     1.0  0.78202  0.37778  0.09620  1.0000
  H   H5977     1.0  0.67160  0.27246  0.21216  1.0000
  H   H5978     1.0  0.96023  0.30303  0.18284  1.0000
  H   H5979     1.0  0.97371  0.29940  0.12502  1.0000
  H   H5980     1.0  0.97952  0.27099  0.16712  1.0000
  H   H5981     1.0  0.98864  0.38018  0.09939  1.0000
  C   C3490     1.0  0.97770  0.30644  0.14078  1.0000
  H   H5982     1.0  0.97414  0.31701  0.13525  1.0000
  H   H5983     1.0  0.97638  0.28628  0.13951  1.0000
  C   C3491     1.0  0.98871  0.35605  0.14048  1.0000
  H   H5984     1.0  0.76025  0.31858  0.21621  1.0000
  H   H5985     1.0  0.78299  0.34316  0.22470  1.0000
  H   H5986     1.0  0.97929  0.31657  0.16852  1.0000
  H   H5987     1.0  0.99176  0.36818  0.15254  1.0000
  H   H5988     1.0  0.96695  0.28022  0.17851  1.0000
  C   C3492     1.0  0.98098  0.29209  0.16334  1.0000
  H   H5989     1.0  0.97625  0.32685  0.15265  1.0000
  C   C3493     1.0  0.62370  0.27726  0.22979  1.0000
  C   C3494     1.0  0.98111  0.31642  0.15760  1.0000
  C   C3495     1.0  0.79953  0.30010  0.22667  1.0000
  H   H5990     1.0  0.99120  0.28792  0.15723  1.0000
  H   H5991     1.0  0.79612  0.29297  0.22290  1.0000
  C   C3496     1.0  0.74103  0.23667  0.12147  1.0000
  H   H5992     1.0  0.89485  0.24533  0.21683  1.0000
  H   H5993     1.0  0.99251  0.40533  0.11510  1.0000
  C   C3497     1.0  0.74296  0.36443  0.22512  1.0000
  H   H5994     1.0  0.74541  0.37277  0.22748  1.0000
  C   C3498     1.0  0.87316  0.24728  0.22650  1.0000
  H   H5995     1.0  0.73490  0.23714  0.13161  1.0000
  C   C3499     1.0  0.86856  0.48475  0.13169  1.0000
  H   H5996     1.0  0.99096  0.38362  0.11424  1.0000
  H   H5997     1.0  0.66847  0.28718  0.22827  1.0000
  H   H5998     1.0  0.83308  0.26016  0.22688  1.0000
  Fe  Fe502     1.0  0.61025  0.28400  0.28457  1.0000
  S   S1001     1.0  0.61426  0.26115  0.29178  1.0000
  S   S1002     1.0  0.59080  0.29987  0.28897  1.0000
  Fe  Fe503     1.0  0.63938  0.28422  0.26935  1.0000
  S   S1003     1.0  0.64595  0.26165  0.27498  1.0000
  S   S1004     1.0  0.65529  0.29615  0.25701  1.0000
  Fe  Fe504     1.0  0.62645  0.26087  0.27032  1.0000
  H   H5999     1.0  0.59291  0.25073  0.23678  1.0000
  Fe  Fe505     1.0  0.63352  0.26350  0.29573  1.0000
  S   S1005     1.0  0.64441  0.25208  0.31259  1.0000
  S   S1006     1.0  0.62094  0.28358  0.26276  1.0000
  S   S1007     1.0  0.62841  0.28621  0.29052  1.0000
  H   H6000     1.0  0.66518  0.34047  0.37736  1.0000
  Fe  Fe506     1.0  0.64721  0.28598  0.36454  1.0000
  S   S1008     1.0  0.66355  0.29506  0.34889  1.0000
  S   S1009     1.0  0.62851  0.28490  0.35892  1.0000
  Fe  Fe507     1.0  0.66023  0.28341  0.38756  1.0000
  S   S1010     1.0  0.67799  0.29217  0.37408  1.0000
  S   S1011     1.0  0.65687  0.27659  0.41013  1.0000
  Fe  Fe508     1.0  0.66186  0.30722  0.36396  1.0000
  S   S1012     1.0  0.65948  0.32977  0.35770  1.0000
  Fe  Fe509     1.0  0.67818  0.27903  0.36027  1.0000
  S   S1013     1.0  0.69723  0.26840  0.34732  1.0000
  S   S1014     1.0  0.64417  0.29964  0.37860  1.0000
  S   S1015     1.0  0.66177  0.26883  0.37473  1.0000
  Fe  Fe510     1.0  0.67390  0.34956  0.27826  1.0000
  S   S1016     1.0  0.67723  0.36219  0.29058  1.0000
  S   S1017     1.0  0.65354  0.34361  0.28422  1.0000
  Fe  Fe511     1.0  0.70209  0.34903  0.25926  1.0000
  S   S1018     1.0  0.70798  0.36161  0.26994  1.0000
  H   H6001     1.0  0.64980  0.38423  0.25980  1.0000
  Fe  Fe512     1.0  0.69827  0.34869  0.28902  1.0000
  S   S1019     1.0  0.70773  0.34020  0.30712  1.0000
  Fe  Fe513     1.0  0.68648  0.37403  0.27057  1.0000
  S   S1020     1.0  0.68231  0.39675  0.26516  1.0000
  S   S1021     1.0  0.69418  0.33484  0.27849  1.0000
  S   S1022     1.0  0.68130  0.36264  0.25817  1.0000
  Fe  Fe514     1.0  0.61955  0.42556  0.35220  1.0000
  S   S1023     1.0  0.63676  0.41235  0.34023  1.0000
  S   S1024     1.0  0.60111  0.41673  0.36360  1.0000
  Fe  Fe515     1.0  0.63381  0.44971  0.34326  1.0000
  S   S1025     1.0  0.65204  0.43807  0.33039  1.0000
  Fe  Fe516     1.0  0.63679  0.43122  0.32392  1.0000
  S   S1026     1.0  0.63608  0.43222  0.30252  1.0000
  Fe  Fe517     1.0  0.65008  0.42036  0.34809  1.0000
  S   S1027     1.0  0.66883  0.40618  0.35450  1.0000
  S   S1028     1.0  0.61862  0.44403  0.33537  1.0000
  S   S1029     1.0  0.63295  0.43227  0.36155  1.0000
  Fe  Fe518     1.0  0.57227  0.33717  0.34843  1.0000
  S   S1030     1.0  0.55350  0.33802  0.36535  1.0000
  S   S1031     1.0  0.58396  0.31665  0.34428  1.0000
  Fe  Fe519     1.0  0.57212  0.36714  0.34451  1.0000
  S   S1032     1.0  0.58521  0.38208  0.33170  1.0000
  Fe  Fe520     1.0  0.56333  0.35029  0.37283  1.0000
  S   S1033     1.0  0.56759  0.34320  0.39396  1.0000
  S   S1034     1.0  0.58256  0.34805  0.35676  1.0000
  S   S1035     1.0  0.56344  0.35597  0.33461  1.0000
  Fe  Fe521     1.0  0.62491  0.34111  0.43943  1.0000
  S   S1036     1.0  0.60630  0.35639  0.44673  1.0000
  S   S1037     1.0  0.62400  0.31915  0.44681  1.0000
  Fe  Fe522     1.0  0.64114  0.36253  0.42427  1.0000
  S   S1038     1.0  0.62393  0.37971  0.43043  1.0000
  S   S1039     1.0  0.66193  0.36416  0.41090  1.0000
  Fe  Fe523     1.0  0.62108  0.36577  0.45120  1.0000
  Fe  Fe524     1.0  0.61085  0.36864  0.42558  1.0000
  S   S1040     1.0  0.59550  0.37946  0.41258  1.0000
  S   S1041     1.0  0.63942  0.34944  0.44539  1.0000
  S   S1042     1.0  0.62833  0.35259  0.41789  1.0000
  H   H6002     1.0  0.61651  0.37042  0.30350  1.0000
  S   S1043     1.0  0.61408  0.37129  0.47196  1.0000
  N   N253      1.0  0.69651  0.39757  0.31561  1.0000
  C   C3500     1.0  0.57566  0.35322  0.39884  1.0000
  C   C3501     1.0  0.57572  0.36666  0.39192  1.0000
  C   C3502     1.0  0.58167  0.37464  0.39638  1.0000
  C   C3503     1.0  0.58803  0.36913  0.40742  1.0000
  C   C3504     1.0  0.58837  0.35557  0.41408  1.0000
  C   C3505     1.0  0.58194  0.34774  0.40998  1.0000
  H   H6003     1.0  0.57080  0.37103  0.38341  1.0000
  H   H6004     1.0  0.58128  0.38514  0.39133  1.0000
  H   H6005     1.0  0.59317  0.35126  0.42268  1.0000
  H   H6006     1.0  0.58165  0.33748  0.41560  1.0000
  C   C3506     1.0  0.66614  0.39467  0.37022  1.0000
  C   C3507     1.0  0.65296  0.39327  0.37781  1.0000
  C   C3508     1.0  0.65141  0.38391  0.39040  1.0000
  C   C3509     1.0  0.66303  0.37607  0.39536  1.0000
  C   C3510     1.0  0.67610  0.37744  0.38765  1.0000
  C   C3511     1.0  0.67765  0.38665  0.37514  1.0000
  H   H6007     1.0  0.64402  0.39943  0.37402  1.0000
  H   H6008     1.0  0.64128  0.38283  0.39632  1.0000
  H   H6009     1.0  0.68509  0.37146  0.39146  1.0000
  H   H6010     1.0  0.68782  0.38771  0.36936  1.0000
  C   C3512     1.0  0.59625  0.40771  0.35444  1.0000
  C   C3513     1.0  0.58608  0.40026  0.36097  1.0000
  C   C3514     1.0  0.58260  0.39238  0.35410  1.0000
  C   C3515     1.0  0.58900  0.39223  0.34049  1.0000
  C   C3516     1.0  0.59893  0.39996  0.33385  1.0000
  C   C3517     1.0  0.60260  0.40760  0.34081  1.0000
  H   H6011     1.0  0.58086  0.40061  0.37136  1.0000
  H   H6012     1.0  0.66383  0.47515  0.33611  1.0000
  H   H6013     1.0  0.60375  0.40013  0.32329  1.0000
  H   H6014     1.0  0.61014  0.41364  0.33552  1.0000
  C   C3518     1.0  0.66935  0.40602  0.27602  1.0000
  C   C3519     1.0  0.66366  0.41951  0.27066  1.0000
  C   C3520     1.0  0.65351  0.42742  0.27896  1.0000
  C   C3521     1.0  0.64934  0.42207  0.29281  1.0000
  C   C3522     1.0  0.65508  0.40858  0.29833  1.0000
  C   C3523     1.0  0.66494  0.40046  0.28984  1.0000
  H   H6015     1.0  0.66703  0.42385  0.26000  1.0000
  H   H6016     1.0  0.64897  0.43779  0.27465  1.0000
  H   H6017     1.0  0.65167  0.40438  0.30900  1.0000
  H   H6018     1.0  0.66928  0.39004  0.29400  1.0000
  H   H6019     1.0  0.66774  0.38358  0.33230  1.0000
  H   H6020     1.0  0.69357  0.40645  0.33288  1.0000
  C   C3524     1.0  0.68167  0.39656  0.32016  1.0000
  C   C3525     1.0  0.64763  0.28889  0.41974  1.0000
  C   C3526     1.0  0.64563  0.30285  0.41398  1.0000
  C   C3527     1.0  0.63837  0.31236  0.42218  1.0000
  C   C3528     1.0  0.63306  0.30784  0.43605  1.0000
  C   C3529     1.0  0.63491  0.29391  0.44165  1.0000
  C   C3530     1.0  0.64226  0.28448  0.43356  1.0000
  H   H6021     1.0  0.64980  0.30628  0.40331  1.0000
  H   H6022     1.0  0.63688  0.32311  0.41780  1.0000
  H   H6023     1.0  0.63077  0.29036  0.45233  1.0000
  H   H6024     1.0  0.64379  0.27371  0.43803  1.0000
  C   C3531     1.0  0.69465  0.33756  0.32157  1.0000
  C   C3532     1.0  0.68302  0.34797  0.32397  1.0000
  C   C3533     1.0  0.67236  0.34571  0.33534  1.0000
  C   C3534     1.0  0.67318  0.33290  0.34406  1.0000
  C   C3535     1.0  0.68478  0.32248  0.34164  1.0000
  C   C3536     1.0  0.69563  0.32489  0.33052  1.0000
  H   H6025     1.0  0.68231  0.35777  0.31708  1.0000
  H   H6026     1.0  0.66337  0.35375  0.33713  1.0000
  H   H6027     1.0  0.68543  0.31252  0.34828  1.0000
  H   H6028     1.0  0.70460  0.31681  0.32862  1.0000
  C   C3537     1.0  0.70719  0.25403  0.35621  1.0000
  H   H6029     1.0  0.64745  0.37477  0.34344  1.0000
  C   C3538     1.0  0.63346  0.37955  0.31552  1.0000
  H   H6030     1.0  0.69492  0.41940  0.31028  1.0000
  C   C3539     1.0  0.59993  0.43466  0.38901  1.0000
  C   C3540     1.0  0.58932  0.30481  0.30409  1.0000
  C   C3541     1.0  0.58479  0.31855  0.30489  1.0000
  C   C3542     1.0  0.58315  0.32242  0.31716  1.0000
  C   C3543     1.0  0.58583  0.31249  0.32867  1.0000
  C   C3544     1.0  0.59026  0.29880  0.32784  1.0000
  C   C3545     1.0  0.59220  0.29497  0.31555  1.0000
  H   H6031     1.0  0.58268  0.32619  0.29598  1.0000
  H   H6032     1.0  0.57985  0.33303  0.31770  1.0000
  H   H6033     1.0  0.59203  0.29107  0.33679  1.0000
  H   H6034     1.0  0.59562  0.28435  0.31501  1.0000
  C   C3546     1.0  0.65453  0.30988  0.26395  1.0000
  C   C3547     1.0  0.66619  0.31520  0.26116  1.0000
  C   C3548     1.0  0.66591  0.32568  0.26723  1.0000
  C   C3549     1.0  0.65392  0.33096  0.27600  1.0000
  C   C3550     1.0  0.64215  0.32595  0.27844  1.0000
  C   C3551     1.0  0.64246  0.31541  0.27247  1.0000
  H   H6035     1.0  0.69459  0.48414  0.35596  1.0000
  H   H6036     1.0  0.67497  0.32968  0.26506  1.0000
  H   H6037     1.0  0.63273  0.33029  0.28486  1.0000
  H   H6038     1.0  0.63326  0.31175  0.27425  1.0000
  C   C3552     1.0  0.63978  0.26085  0.32576  1.0000
  C   C3553     1.0  0.64887  0.25869  0.33416  1.0000
  C   C3554     1.0  0.64554  0.26617  0.34430  1.0000
  C   C3555     1.0  0.63290  0.27541  0.34636  1.0000
  C   C3556     1.0  0.62375  0.27738  0.33812  1.0000
  C   C3557     1.0  0.62726  0.27028  0.32767  1.0000
  H   H6039     1.0  0.65852  0.25135  0.33275  1.0000
  H   H6040     1.0  0.65265  0.26461  0.35066  1.0000
  H   H6041     1.0  0.61406  0.28460  0.33970  1.0000
  H   H6042     1.0  0.62020  0.27196  0.32122  1.0000
  C   C3558     1.0  0.60352  0.24596  0.23708  1.0000
  H   H6043     1.0  0.64154  0.37283  0.32087  1.0000
  C   C3559     1.0  0.69351  0.33650  0.39006  1.0000
  H   H6044     1.0  0.69133  0.30763  0.30527  1.0000
  S   S1044     1.0  0.63096  0.24379  0.25914  1.0000
  H   H6045     1.0  0.61741  0.33480  0.46917  1.0000
  C   C3560     1.0  0.61621  0.41103  0.28184  1.0000
  H   H6046     1.0  0.59988  0.45370  0.39430  1.0000
  H   H6047     1.0  0.60371  0.25564  0.25278  1.0000
  C   C3561     1.0  0.62557  0.40110  0.29104  1.0000
  N   N254      1.0  0.63029  0.32442  0.32591  1.0000
  C   C3562     1.0  0.64533  0.32124  0.31911  1.0000
  C   C3563     1.0  0.62438  0.31288  0.32579  1.0000
  C   C3564     1.0  0.62939  0.32503  0.34037  1.0000
  C   C3565     1.0  0.62370  0.33791  0.31811  1.0000
  C   C3566     1.0  0.65392  0.33092  0.31950  1.0000
  C   C3567     1.0  0.62395  0.31140  0.31172  1.0000
  C   C3568     1.0  0.61598  0.32303  0.35080  1.0000
  C   C3569     1.0  0.60792  0.34245  0.32197  1.0000
  H   H6048     1.0  0.65032  0.31086  0.32393  1.0000
  H   H6049     1.0  0.64676  0.32124  0.30820  1.0000
  H   H6050     1.0  0.61372  0.31353  0.33183  1.0000
  H   H6051     1.0  0.63023  0.30305  0.33079  1.0000
  H   H6052     1.0  0.63760  0.31699  0.34464  1.0000
  H   H6053     1.0  0.63121  0.33487  0.34074  1.0000
  H   H6054     1.0  0.62764  0.34625  0.31924  1.0000
  H   H6055     1.0  0.62677  0.33835  0.30696  1.0000
  H   H6056     1.0  0.65023  0.34154  0.31435  1.0000
  H   H6057     1.0  0.65437  0.33056  0.33000  1.0000
  H   H6058     1.0  0.66466  0.32764  0.31394  1.0000
  H   H6059     1.0  0.63431  0.30898  0.30520  1.0000
  H   H6060     1.0  0.61915  0.30275  0.31314  1.0000
  H   H6061     1.0  0.61750  0.32052  0.30644  1.0000
  H   H6062     1.0  0.61622  0.32506  0.36055  1.0000
  H   H6063     1.0  0.61485  0.31240  0.35307  1.0000
  H   H6064     1.0  0.60683  0.32984  0.34747  1.0000
  H   H6065     1.0  0.60469  0.34886  0.32965  1.0000
  H   H6066     1.0  0.60259  0.33399  0.32568  1.0000
  H   H6067     1.0  0.60406  0.34855  0.31279  1.0000
  H   H6068     1.0  0.62821  0.27616  0.39432  1.0000
  H   H6069     1.0  0.59833  0.40883  0.39395  1.0000
  C   C3570     1.0  0.58543  0.30419  0.39313  1.0000
  C   C3571     1.0  0.62320  0.24228  0.24685  1.0000
  H   H6070     1.0  0.60706  0.42821  0.38200  1.0000
  H   H6071     1.0  0.62824  0.40819  0.40821  1.0000
  C   C3572     1.0  0.70212  0.38145  0.29882  1.0000
  H   H6072     1.0  0.60197  0.39313  0.28321  1.0000
  H   H6073     1.0  0.61844  0.40274  0.40018  1.0000
  C   C3573     1.0  0.51253  0.34210  0.35821  1.0000
  H   H6074     1.0  0.64764  0.38206  0.29638  1.0000
  H   H6075     1.0  0.64074  0.36745  0.30020  1.0000
  N   N255      1.0  0.68377  0.33204  0.38478  1.0000
  H   H6076     1.0  0.59652  0.30237  0.37208  1.0000
  H   H6077     1.0  0.55764  0.32474  0.30054  1.0000
  H   H6078     1.0  0.72579  0.36299  0.24231  1.0000
  H   H6079     1.0  0.63551  0.40426  0.28811  1.0000
  C   C3574     1.0  0.63792  0.37848  0.30043  1.0000
  H   H6080     1.0  0.58474  0.42283  0.43212  1.0000
  H   H6081     1.0  0.61920  0.42101  0.27863  1.0000
  H   H6082     1.0  0.57494  0.40952  0.39446  1.0000
  C   C3575     1.0  0.58426  0.43494  0.41129  1.0000
  C   C3576     1.0  0.60155  0.31354  0.39884  1.0000
  C   C3577     1.0  0.61437  0.38141  0.29848  1.0000
  H   H6083     1.0  0.70752  0.30715  0.36840  1.0000
  H   H6084     1.0  0.72325  0.25093  0.33847  1.0000
  H   H6085     1.0  0.57485  0.38655  0.35930  1.0000
  H   H6086     1.0  0.61448  0.29615  0.38350  1.0000
  H   H6087     1.0  0.55468  0.30927  0.29890  1.0000
  H   H6088     1.0  0.68543  0.35944  0.36850  1.0000
  C   C3578     1.0  0.60722  0.42001  0.40997  1.0000
  C   C3579     1.0  0.59206  0.29396  0.41473  1.0000
  H   H6089     1.0  0.57245  0.41973  0.42474  1.0000
  H   H6090     1.0  0.68325  0.32060  0.37075  1.0000
  H   H6091     1.0  0.62100  0.40349  0.30127  1.0000
  C   C3580     1.0  0.51247  0.35441  0.34869  1.0000
  H   H6092     1.0  0.61017  0.42799  0.41297  1.0000
  H   H6093     1.0  0.69749  0.30304  0.38509  1.0000
  H   H6094     1.0  0.50241  0.36856  0.33337  1.0000
  C   C3581     1.0  0.55044  0.31780  0.30432  1.0000
  H   H6095     1.0  0.59252  0.32197  0.40094  1.0000
  H   H6096     1.0  0.68285  0.34979  0.35774  1.0000
  H   H6097     1.0  0.67828  0.41852  0.29871  1.0000
  H   H6098     1.0  0.58348  0.31239  0.42339  1.0000
  C   C3582     1.0  0.59042  0.41466  0.40111  1.0000
  H   H6099     1.0  0.58104  0.29516  0.39483  1.0000
  H   H6100     1.0  0.69579  0.33019  0.36433  1.0000
  H   H6101     1.0  0.68487  0.37424  0.32730  1.0000
  H   H6102     1.0  0.49470  0.37235  0.36898  1.0000
  H   H6103     1.0  0.61045  0.30593  0.41738  1.0000
  H   H6104     1.0  0.60651  0.31738  0.38812  1.0000
  S   S1045     1.0  0.52419  0.36460  0.34663  1.0000
  H   H6105     1.0  0.60468  0.28354  0.39005  1.0000
  C   C3583     1.0  0.62033  0.41188  0.40202  1.0000
  H   H6106     1.0  0.67524  0.40554  0.32444  1.0000
  H   H6107     1.0  0.62486  0.41807  0.39228  1.0000
  H   H6108     1.0  0.79075  0.30850  0.24470  1.0000
  H   H6109     1.0  0.67269  0.33403  0.41261  1.0000
  H   H6110     1.0  0.66951  0.31858  0.39275  1.0000
  C   C3584     1.0  0.70546  0.34210  0.37949  1.0000
  H   H6111     1.0  0.71547  0.33545  0.38126  1.0000
  H   H6112     1.0  0.57078  0.30604  0.41960  1.0000
  H   H6113     1.0  0.60994  0.32308  0.40969  1.0000
  H   H6114     1.0  0.84098  0.24579  0.24632  1.0000
  H   H6115     1.0  0.69828  0.32791  0.39747  1.0000
  C   C3585     1.0  0.67829  0.35433  0.36680  1.0000
  H   H6116     1.0  0.59474  0.38032  0.29594  1.0000
  H   H6117     1.0  0.68774  0.34446  0.39603  1.0000
  H   H6118     1.0  0.70539  0.34330  0.36874  1.0000
  H   H6119     1.0  0.66783  0.35015  0.38751  1.0000
  C   C3586     1.0  0.61956  0.28158  0.40126  1.0000
  C   C3587     1.0  0.70202  0.31127  0.37765  1.0000
  H   H6120     1.0  0.71717  0.40120  0.33520  1.0000
  C   C3588     1.0  0.66704  0.32920  0.40845  1.0000
  H   H6121     1.0  0.68347  0.31386  0.40091  1.0000
  H   H6122     1.0  0.64046  0.32113  0.46747  1.0000
  H   H6123     1.0  0.60529  0.41256  0.28738  1.0000
  H   H6124     1.0  0.70532  0.35227  0.38086  1.0000
  H   H6125     1.0  0.57819  0.29742  0.43387  1.0000
  C   C3589     1.0  0.60455  0.38276  0.28936  1.0000
  H   H6126     1.0  0.60879  0.37533  0.28264  1.0000
  H   H6127     1.0  0.70673  0.38695  0.28864  1.0000
  N   N256      1.0  0.68301  0.28472  0.30112  1.0000
  C   C3590     1.0  0.68877  0.27124  0.29690  1.0000
  C   C3591     1.0  0.68386  0.29596  0.28856  1.0000
  C   C3592     1.0  0.66820  0.28597  0.30854  1.0000
  C   C3593     1.0  0.69116  0.28568  0.31052  1.0000
  C   C3594     1.0  0.68672  0.25854  0.30826  1.0000
  H   H6128     1.0  0.76093  0.33640  0.23200  1.0000
  C   C3595     1.0  0.65846  0.28401  0.30092  1.0000
  C   C3596     1.0  0.68824  0.29966  0.31418  1.0000
  H   H6129     1.0  0.68441  0.27088  0.28849  1.0000
  H   H6130     1.0  0.70003  0.26980  0.29269  1.0000
  H   H6131     1.0  0.67840  0.30604  0.29107  1.0000
  H   H6132     1.0  0.67852  0.29465  0.28136  1.0000
  H   H6133     1.0  0.66717  0.27879  0.31862  1.0000
  H   H6134     1.0  0.66386  0.29621  0.31082  1.0000
  H   H6135     1.0  0.68925  0.27829  0.32037  1.0000
  H   H6136     1.0  0.70240  0.28277  0.30628  1.0000
  H   H6137     1.0  0.69191  0.24931  0.30405  1.0000
  H   H6138     1.0  0.69132  0.25781  0.31684  1.0000
  H   H6139     1.0  0.67575  0.25814  0.31211  1.0000
  H   H6140     1.0  0.50812  0.31706  0.32405  1.0000
  H   H6141     1.0  0.70882  0.41017  0.29968  1.0000
  S   S1046     1.0  0.63284  0.47240  0.34024  1.0000
  H   H6142     1.0  0.64809  0.28462  0.30771  1.0000
  H   H6143     1.0  0.66150  0.27394  0.29818  1.0000
  H   H6144     1.0  0.65736  0.29214  0.29171  1.0000
  H   H6145     1.0  0.76739  0.33604  0.25269  1.0000
  H   H6146     1.0  0.64199  0.28953  0.23496  1.0000
  H   H6147     1.0  0.72350  0.39226  0.32172  1.0000
  N   N257      1.0  0.53880  0.32048  0.32920  1.0000
  C   C3597     1.0  0.53788  0.31201  0.34349  1.0000
  C   C3598     1.0  0.52457  0.32451  0.32645  1.0000
  C   C3599     1.0  0.54362  0.33300  0.32857  1.0000
  C   C3600     1.0  0.54897  0.31195  0.31970  1.0000
  C   C3601     1.0  0.55100  0.30821  0.34909  1.0000
  C   C3602     1.0  0.51800  0.31274  0.32737  1.0000
  C   C3603     1.0  0.53994  0.34564  0.31746  1.0000
  H   H6148     1.0  0.52948  0.31733  0.35075  1.0000
  H   H6149     1.0  0.53526  0.30220  0.34433  1.0000
  H   H6150     1.0  0.52418  0.33122  0.31631  1.0000
  H   H6151     1.0  0.51748  0.33077  0.33367  1.0000
  H   H6152     1.0  0.53927  0.33655  0.33832  1.0000
  H   H6153     1.0  0.55495  0.33064  0.32738  1.0000
  H   H6154     1.0  0.55946  0.30995  0.32147  1.0000
  H   H6155     1.0  0.54708  0.30155  0.32191  1.0000
  H   H6156     1.0  0.55421  0.31728  0.34945  1.0000
  H   H6157     1.0  0.54890  0.30230  0.35970  1.0000
  H   H6158     1.0  0.55965  0.30167  0.34327  1.0000
  H   H6159     1.0  0.84929  0.26939  0.26081  1.0000
  H   H6160     1.0  0.52454  0.30580  0.32064  1.0000
  H   H6161     1.0  0.51540  0.30698  0.33798  1.0000
  H   H6162     1.0  0.52881  0.35040  0.31980  1.0000
  H   H6163     1.0  0.54294  0.34348  0.30718  1.0000
  H   H6164     1.0  0.54540  0.35341  0.31726  1.0000
  S   S1047     1.0  0.55328  0.37042  0.36123  1.0000
  N   N258      1.0  0.59721  0.30060  0.40015  1.0000
  C   C3604     1.0  0.61170  0.31294  0.40734  1.0000
  H   H6165     1.0  0.58866  0.40719  0.41088  1.0000
  C   C3605     1.0  0.58878  0.30981  0.37766  1.0000
  H   H6166     1.0  0.65564  0.38160  0.27483  1.0000
  H   H6167     1.0  0.66338  0.32106  0.41685  1.0000
  H   H6168     1.0  0.66935  0.36254  0.36436  1.0000
  H   H6169     1.0  0.58833  0.28486  0.41516  1.0000
  C   C3606     1.0  0.86253  0.25713  0.24645  1.0000
  H   H6170     1.0  0.61737  0.40797  0.27225  1.0000
  H   H6171     1.0  0.62396  0.28732  0.40569  1.0000
  H   H6172     1.0  0.54062  0.32296  0.30129  1.0000
  H   H6173     1.0  0.60411  0.41280  0.41965  1.0000
  H   H6174     1.0  0.69993  0.46853  0.34073  1.0000
  Fe  Fe525     1.0  0.54514  0.35778  0.35220  1.0000
  C   C3607     1.0  0.71968  0.24719  0.34922  1.0000
  C   C3608     1.0  0.70269  0.24921  0.37014  1.0000
  H   H6175     1.0  0.69101  0.38291  0.29977  1.0000
  H   H6176     1.0  0.80689  0.29357  0.23296  1.0000
  C   C3609     1.0  0.78727  0.30822  0.23570  1.0000
  H   H6177     1.0  0.67550  0.31110  0.25444  1.0000
  H   H6178     1.0  0.62377  0.37618  0.32078  1.0000
  H   H6179     1.0  0.67735  0.30309  0.31906  1.0000
  H   H6180     1.0  0.71662  0.41051  0.31831  1.0000
  C   C3610     1.0  0.67871  0.38364  0.33074  1.0000
  H   H6181     1.0  0.67733  0.39699  0.31155  1.0000
  C   C3611     1.0  0.76448  0.32692  0.25195  1.0000
  H   H6182     1.0  0.60831  0.38686  0.30675  1.0000
  H   H6183     1.0  0.63078  0.38299  0.35013  1.0000
  H   H6184     1.0  0.70620  0.37037  0.29932  1.0000
  C   C3612     1.0  0.68934  0.41494  0.29428  1.0000
  H   H6185     1.0  0.64308  0.37182  0.46701  1.0000
  H   H6186     1.0  0.63507  0.46854  0.36850  1.0000
  C   C3613     1.0  0.50245  0.35912  0.34086  1.0000
  H   H6187     1.0  0.69768  0.30587  0.27155  1.0000
  H   H6188     1.0  0.70977  0.31353  0.38158  1.0000
  H   H6189     1.0  0.70058  0.38865  0.33579  1.0000
  H   H6190     1.0  0.61526  0.27361  0.40939  1.0000
  H   H6191     1.0  0.70478  0.29886  0.28624  1.0000
  H   H6192     1.0  0.57927  0.31201  0.37388  1.0000
  H   H6193     1.0  0.62338  0.27121  0.24027  1.0000
  C   C3614     1.0  0.65236  0.26384  0.23611  1.0000
  C   C3615     1.0  0.63344  0.38255  0.27798  1.0000
  C   C3616     1.0  0.76622  0.32628  0.23703  1.0000
  H   H6194     1.0  0.70504  0.48165  0.32606  1.0000
  H   H6195     1.0  0.57812  0.42582  0.38567  1.0000
  C   C3617     1.0  0.58047  0.30313  0.42319  1.0000
  H   H6196     1.0  0.56916  0.43508  0.43041  1.0000
  H   H6197     1.0  0.63245  0.39001  0.31669  1.0000
  H   H6198     1.0  0.61652  0.44196  0.39231  1.0000
  H   H6199     1.0  0.57687  0.31208  0.39734  1.0000
  H   H6200     1.0  0.57604  0.44075  0.40569  1.0000
  C   C3618     1.0  0.71540  0.40070  0.32540  1.0000
  H   H6201     1.0  0.52015  0.33839  0.36434  1.0000
  H   H6202     1.0  0.65777  0.33662  0.40572  1.0000
  H   H6203     1.0  0.59106  0.43977  0.38415  1.0000
  C   C3619     1.0  0.67320  0.34407  0.37962  1.0000
  C   C3620     1.0  0.57739  0.42753  0.42537  1.0000
  H   H6204     1.0  0.63253  0.34238  0.47660  1.0000
  C   C3621     1.0  0.60687  0.44602  0.38861  1.0000
  C   C3622     1.0  0.69090  0.32401  0.37384  1.0000
  C   C3623     1.0  0.57713  0.41880  0.39575  1.0000
  H   H6205     1.0  0.58830  0.44277  0.41328  1.0000
  H   H6206     1.0  0.60967  0.45150  0.37789  1.0000
  N   N259      1.0  0.62762  0.38613  0.29176  1.0000
  H   H6207     1.0  0.62244  0.31021  0.40164  1.0000
  C   C3624     1.0  0.67618  0.32281  0.39641  1.0000
  N   N260      1.0  0.59546  0.42608  0.40284  1.0000
  H   H6208     1.0  0.56811  0.42333  0.40295  1.0000
  H   H6209     1.0  0.59206  0.31954  0.37505  1.0000
  S   S1048     1.0  0.71542  0.34021  0.24130  1.0000
  C   C3625     1.0  0.60878  0.29070  0.39315  1.0000
  H   H6210     1.0  0.60035  0.28990  0.42044  1.0000
  C   C3626     1.0  0.64692  0.38697  0.26989  1.0000
  H   H6211     1.0  0.62612  0.38699  0.27120  1.0000
  H   H6212     1.0  0.63532  0.37135  0.27899  1.0000
  H   H6213     1.0  0.64584  0.39812  0.26796  1.0000
  N   N261      1.0  0.62393  0.36116  0.37099  1.0000
  C   C3627     1.0  0.62363  0.34633  0.37685  1.0000
  C   C3628     1.0  0.61219  0.36730  0.36388  1.0000
  C   C3629     1.0  0.62206  0.36797  0.38253  1.0000
  C   C3630     1.0  0.63765  0.36178  0.36132  1.0000
  C   C3631     1.0  0.63214  0.33884  0.38770  1.0000
  C   C3632     1.0  0.61277  0.36086  0.35214  1.0000
  C   C3633     1.0  0.61670  0.38352  0.38000  1.0000
  C   C3634     1.0  0.64001  0.37589  0.35319  1.0000
  H   H6214     1.0  0.61289  0.34510  0.38163  1.0000
  H   H6215     1.0  0.62741  0.34038  0.36871  1.0000
  H   H6216     1.0  0.61126  0.37834  0.35963  1.0000
  H   H6217     1.0  0.60222  0.36660  0.37129  1.0000
  H   H6218     1.0  0.61456  0.36385  0.39154  1.0000
  H   H6219     1.0  0.63183  0.36568  0.38593  1.0000
  H   H6220     1.0  0.64608  0.35733  0.36686  1.0000
  H   H6221     1.0  0.64002  0.35515  0.35395  1.0000
  H   H6222     1.0  0.64190  0.34201  0.38566  1.0000
  H   H6223     1.0  0.62603  0.34041  0.39787  1.0000
  H   H6224     1.0  0.63473  0.32775  0.38811  1.0000
  H   H6225     1.0  0.62203  0.36189  0.34392  1.0000
  H   H6226     1.0  0.61202  0.35010  0.35573  1.0000
  H   H6227     1.0  0.60378  0.36618  0.34765  1.0000
  H   H6228     1.0  0.61719  0.38709  0.38881  1.0000
  H   H6229     1.0  0.60575  0.38641  0.37940  1.0000
  H   H6230     1.0  0.62273  0.38918  0.37094  1.0000
  H   H6231     1.0  0.64426  0.38061  0.35889  1.0000
  C   C3635     1.0  0.69847  0.29705  0.28028  1.0000
  H   H6232     1.0  0.77019  0.31760  0.25773  1.0000
  H   H6233     1.0  0.69312  0.25444  0.37563  1.0000
  C   C3636     1.0  0.70086  0.39823  0.32794  1.0000
  H   H6234     1.0  0.64399  0.26675  0.24475  1.0000
  H   H6235     1.0  0.67562  0.46303  0.34515  1.0000
  C   C3637     1.0  0.85190  0.25862  0.25985  1.0000
  C   C3638     1.0  0.71057  0.23752  0.37700  1.0000
  C   C3639     1.0  0.69792  0.41061  0.30520  1.0000
  H   H6236     1.0  0.86138  0.26721  0.23926  1.0000
  H   H6237     1.0  0.68035  0.38345  0.34078  1.0000
  H   H6238     1.0  0.70711  0.37618  0.31854  1.0000
  C   C3640     1.0  0.50250  0.33472  0.36002  1.0000
  C   C3641     1.0  0.63478  0.47908  0.36352  1.0000
  C   C3642     1.0  0.61419  0.32856  0.47948  1.0000
  H   H6239     1.0  0.69435  0.29877  0.32165  1.0000
  H   H6240     1.0  0.71643  0.38701  0.30603  1.0000
  H   H6241     1.0  0.75342  0.32798  0.25704  1.0000
  H   H6242     1.0  0.70388  0.28795  0.27594  1.0000
  H   H6243     1.0  0.65136  0.25357  0.23608  1.0000
  N   N262      1.0  0.86282  0.24589  0.23993  1.0000
  C   C3643     1.0  0.70581  0.38539  0.31024  1.0000
  H   H6244     1.0  0.49596  0.37930  0.38178  1.0000
  H   H6245     1.0  0.77946  0.30185  0.23963  1.0000
  H   H6246     1.0  0.69260  0.42370  0.28651  1.0000
  C   C3644     1.0  0.63862  0.37103  0.47775  1.0000
  H   H6247     1.0  0.50252  0.32528  0.36751  1.0000
  H   H6248     1.0  0.69067  0.40685  0.28886  1.0000
  C   C3645     1.0  0.84916  0.24691  0.23697  1.0000
  C   C3646     1.0  0.60963  0.24880  0.24611  1.0000
  H   H6249     1.0  0.66459  0.26981  0.24656  1.0000
  H   H6250     1.0  0.68189  0.47436  0.33006  1.0000
  H   H6251     1.0  0.64484  0.29704  0.46949  1.0000
  H   H6252     1.0  0.71408  0.47546  0.33932  1.0000
  H   H6253     1.0  0.76006  0.31902  0.23741  1.0000
  H   H6254     1.0  0.85612  0.25215  0.26872  1.0000
  H   H6255     1.0  0.84198  0.25643  0.26038  1.0000
  H   H6256     1.0  0.67486  0.26263  0.23210  1.0000
  H   H6257     1.0  0.67400  0.47727  0.35846  1.0000
  C   C3647     1.0  0.67358  0.47368  0.33927  1.0000
  H   H6258     1.0  0.87263  0.25578  0.24885  1.0000
  H   H6259     1.0  0.62671  0.30239  0.47320  1.0000
  C   C3648     1.0  0.63593  0.30140  0.47697  1.0000
  C   C3649     1.0  0.63356  0.48350  0.34997  1.0000
  H   H6260     1.0  0.66816  0.25189  0.24708  1.0000
  C   C3650     1.0  0.70366  0.47809  0.33721  1.0000
  H   H6261     1.0  0.61099  0.32028  0.47740  1.0000
  C   C3651     1.0  0.73187  0.35887  0.23357  1.0000
  H   H6262     1.0  0.78828  0.33284  0.23971  1.0000
  C   C3652     1.0  0.63785  0.31508  0.47803  1.0000
  C   C3653     1.0  0.66575  0.26218  0.24055  1.0000
  H   H6263     1.0  0.89071  0.24981  0.23292  1.0000
  C   C3654     1.0  0.67182  0.48355  0.34855  1.0000
  H   H6264     1.0  0.84982  0.23830  0.23237  1.0000
  H   H6265     1.0  0.63655  0.48489  0.38108  1.0000
  C   C3655     1.0  0.72881  0.34792  0.23075  1.0000
  H   H6266     1.0  0.84305  0.26933  0.23078  1.0000
  C   C3656     1.0  0.72759  0.23551  0.35611  1.0000
  C   C3657     1.0  0.62056  0.40038  0.51536  1.0000
  Fe  Fe526     1.0  0.64505  0.36519  0.53446  1.0000
  S   S1049     1.0  0.64492  0.34411  0.54715  1.0000
  S   S1050     1.0  0.65123  0.37034  0.51135  1.0000
  Fe  Fe527     1.0  0.63810  0.37764  0.55950  1.0000
  S   S1051     1.0  0.63764  0.35767  0.57415  1.0000
  S   S1052     1.0  0.63044  0.39727  0.56690  1.0000
  Fe  Fe528     1.0  0.65640  0.34944  0.55948  1.0000
  S   S1053     1.0  0.67414  0.33406  0.56693  1.0000
  Fe  Fe529     1.0  0.62622  0.35409  0.56077  1.0000
  S   S1054     1.0  0.60622  0.34756  0.56943  1.0000
  S   S1055     1.0  0.65805  0.36981  0.54587  1.0000
  S   S1056     1.0  0.62527  0.37472  0.54706  1.0000
  Fe  Fe530     1.0  0.57497  0.35014  0.64054  1.0000
  S   S1057     1.0  0.56672  0.36858  0.62602  1.0000
  S   S1058     1.0  0.59350  0.33446  0.63354  1.0000
  Fe  Fe531     1.0  0.55689  0.36079  0.66486  1.0000
  S   S1059     1.0  0.54734  0.38049  0.65228  1.0000
  S   S1060     1.0  0.54999  0.35536  0.68761  1.0000
  Fe  Fe532     1.0  0.54586  0.36720  0.63936  1.0000
  S   S1061     1.0  0.52746  0.37311  0.62946  1.0000
  Fe  Fe533     1.0  0.56890  0.38018  0.63997  1.0000
  S   S1062     1.0  0.58016  0.39693  0.62868  1.0000
  S   S1063     1.0  0.55404  0.34748  0.65278  1.0000
  S   S1064     1.0  0.57844  0.36178  0.65374  1.0000
  S   S1065     1.0  0.67003  0.42712  0.62617  1.0000
  Fe  Fe534     1.0  0.63401  0.42255  0.64542  1.0000
  S   S1066     1.0  0.65108  0.40506  0.64041  1.0000
  S   S1067     1.0  0.61449  0.41628  0.65806  1.0000
  Fe  Fe535     1.0  0.66392  0.41479  0.64703  1.0000
  S   S1068     1.0  0.68055  0.40001  0.65692  1.0000
  Fe  Fe536     1.0  0.65591  0.41851  0.61996  1.0000
  S   S1069     1.0  0.66505  0.40757  0.60252  1.0000
  S   S1070     1.0  0.64646  0.43142  0.65388  1.0000
  S   S1071     1.0  0.63778  0.43566  0.62433  1.0000
  H   H6267     1.0  0.70341  0.41318  0.61181  1.0000
  Fe  Fe537     1.0  0.63795  0.30906  0.70412  1.0000
  S   S1072     1.0  0.64474  0.30044  0.68545  1.0000
  S   S1073     1.0  0.62480  0.33014  0.70167  1.0000
  H   H6268     1.0  0.63365  0.43531  0.50750  1.0000
  H   H6269     1.0  0.65393  0.39796  0.51221  1.0000
  Fe  Fe538     1.0  0.71113  0.38380  0.71640  1.0000
  S   S1074     1.0  0.73378  0.37525  0.71546  1.0000
  S   S1075     1.0  0.70109  0.40483  0.70644  1.0000
  Fe  Fe539     1.0  0.72923  0.35631  0.71317  1.0000
  S   S1076     1.0  0.74212  0.34106  0.70061  1.0000
  H   H6270     1.0  0.60571  0.40207  0.68459  1.0000
  H   H6271     1.0  0.56135  0.32667  0.72972  1.0000
  S   S1077     1.0  0.70731  0.36556  0.71214  1.0000
  H   H6272     1.0  0.73476  0.26788  0.65739  1.0000
  H   H6273     1.0  0.62615  0.29128  0.66670  1.0000
  H   H6274     1.0  0.62746  0.36459  0.65925  1.0000
  S   S1078     1.0  0.80164  0.26244  0.62728  1.0000
  Fe  Fe540     1.0  0.81217  0.24116  0.62431  1.0000
  S   S1079     1.0  0.65211  0.31315  0.71440  1.0000
  C   C3658     1.0  0.66390  0.36159  0.71618  1.0000
  Fe  Fe541     1.0  0.70480  0.32951  0.62596  1.0000
  S   S1080     1.0  0.71194  0.30680  0.62918  1.0000
  S   S1081     1.0  0.68661  0.34400  0.61840  1.0000
  Fe  Fe542     1.0  0.72710  0.33264  0.63747  1.0000
  S   S1082     1.0  0.73646  0.31027  0.64190  1.0000
  S   S1083     1.0  0.73239  0.35022  0.64165  1.0000
  Fe  Fe543     1.0  0.73328  0.31059  0.62152  1.0000
  S   S1084     1.0  0.74791  0.29765  0.60712  1.0000
  Fe  Fe544     1.0  0.71472  0.30788  0.64922  1.0000
  S   S1085     1.0  0.70906  0.29313  0.66864  1.0000
  S   S1086     1.0  0.72588  0.33335  0.61627  1.0000
  S   S1087     1.0  0.70562  0.33017  0.64682  1.0000
  C   C3659     1.0  0.78727  0.27233  0.62073  1.0000
  C   C3660     1.0  0.78027  0.28435  0.62525  1.0000
  C   C3661     1.0  0.76823  0.29214  0.62108  1.0000
  C   C3662     1.0  0.76321  0.28811  0.61215  1.0000
  C   C3663     1.0  0.77042  0.27627  0.60727  1.0000
  C   C3664     1.0  0.78237  0.26829  0.61168  1.0000
  H   H6275     1.0  0.78409  0.28757  0.63215  1.0000
  H   H6276     1.0  0.76297  0.30140  0.62463  1.0000
  H   H6277     1.0  0.76662  0.27314  0.60030  1.0000
  H   H6278     1.0  0.78776  0.25905  0.60811  1.0000
  C   C3665     1.0  0.73938  0.34385  0.68421  1.0000
  C   C3666     1.0  0.74265  0.33278  0.67797  1.0000
  C   C3667     1.0  0.74028  0.33464  0.66500  1.0000
  C   C3668     1.0  0.73522  0.34768  0.65797  1.0000
  C   C3669     1.0  0.73223  0.35883  0.66408  1.0000
  C   C3670     1.0  0.73403  0.35687  0.67731  1.0000
  H   H6279     1.0  0.74687  0.32271  0.68326  1.0000
  H   H6280     1.0  0.74269  0.32603  0.66032  1.0000
  H   H6281     1.0  0.72830  0.36894  0.65870  1.0000
  H   H6282     1.0  0.73155  0.36545  0.68206  1.0000
  H   H6283     1.0  0.62822  0.43641  0.53336  1.0000
  H   H6284     1.0  0.60267  0.30917  0.50993  1.0000
  H   H6285     1.0  0.73452  0.29565  0.58640  1.0000
  C   C3671     1.0  0.66264  0.29784  0.68059  1.0000
  C   C3672     1.0  0.66896  0.30293  0.66721  1.0000
  C   C3673     1.0  0.68324  0.30150  0.66350  1.0000
  C   C3674     1.0  0.69125  0.29459  0.67306  1.0000
  C   C3675     1.0  0.68495  0.28924  0.68637  1.0000
  C   C3676     1.0  0.67063  0.29109  0.69020  1.0000
  H   H6286     1.0  0.66279  0.30823  0.65979  1.0000
  H   H6287     1.0  0.68804  0.30571  0.65322  1.0000
  H   H6288     1.0  0.69111  0.28387  0.69377  1.0000
  H   H6289     1.0  0.66576  0.28712  0.70055  1.0000
  C   C3677     1.0  0.74668  0.24888  0.67775  1.0000
  C   C3678     1.0  0.65316  0.42489  0.49711  1.0000
  H   H6290     1.0  0.74866  0.25437  0.64070  1.0000
  H   H6291     1.0  0.60469  0.28941  0.71101  1.0000
  H   H6292     1.0  0.73484  0.40319  0.71843  1.0000
  H   H6293     1.0  0.61722  0.29418  0.68781  1.0000
  H   H6294     1.0  0.66555  0.45192  0.64975  1.0000
  C   C3679     1.0  0.68589  0.40191  0.67065  1.0000
  C   C3680     1.0  0.69804  0.39327  0.67386  1.0000
  C   C3681     1.0  0.70268  0.39420  0.68480  1.0000
  C   C3682     1.0  0.69529  0.40389  0.69256  1.0000
  C   C3683     1.0  0.68318  0.41269  0.68929  1.0000
  C   C3684     1.0  0.67836  0.41156  0.67846  1.0000
  H   H6295     1.0  0.70393  0.38578  0.66788  1.0000
  H   H6296     1.0  0.71211  0.38750  0.68713  1.0000
  H   H6297     1.0  0.67732  0.42007  0.69540  1.0000
  H   H6298     1.0  0.66870  0.41789  0.67637  1.0000
  C   C3685     1.0  0.51646  0.36241  0.63072  1.0000
  C   C3686     1.0  0.51788  0.34926  0.63878  1.0000
  C   C3687     1.0  0.50888  0.34110  0.63954  1.0000
  C   C3688     1.0  0.84495  0.23724  0.66951  1.0000
  H   H6299     1.0  0.52597  0.34535  0.64435  1.0000
  H   H6300     1.0  0.51023  0.33092  0.64569  1.0000
  H   H6301     1.0  0.64071  0.46955  0.65169  1.0000
  C   C3689     1.0  0.59046  0.40107  0.63703  1.0000
  C   C3690     1.0  0.58765  0.39876  0.65119  1.0000
  C   C3691     1.0  0.59517  0.40335  0.65756  1.0000
  C   C3692     1.0  0.60581  0.40987  0.64983  1.0000
  C   C3693     1.0  0.60910  0.41152  0.63569  1.0000
  C   C3694     1.0  0.60130  0.40731  0.62930  1.0000
  H   H6302     1.0  0.57925  0.39403  0.65721  1.0000
  H   H6303     1.0  0.59245  0.40219  0.66846  1.0000
  H   H6304     1.0  0.61729  0.41652  0.62965  1.0000
  H   H6305     1.0  0.60354  0.40911  0.61833  1.0000
  C   C3695     1.0  0.56166  0.34685  0.69815  1.0000
  C   C3696     1.0  0.57546  0.34780  0.69443  1.0000
  C   C3697     1.0  0.58419  0.34112  0.70355  1.0000
  C   C3698     1.0  0.57913  0.33336  0.71627  1.0000
  S   S1088     1.0  0.62447  0.30051  0.72351  1.0000
  C   C3699     1.0  0.55669  0.33925  0.71092  1.0000
  H   H6306     1.0  0.57921  0.35401  0.68474  1.0000
  H   H6307     1.0  0.59470  0.34216  0.70086  1.0000
  H   H6308     1.0  0.71260  0.32186  0.55212  1.0000
  H   H6309     1.0  0.54602  0.33862  0.71391  1.0000
  C   C3700     1.0  0.63967  0.39942  0.57760  1.0000
  C   C3701     1.0  0.65300  0.39177  0.57787  1.0000
  C   C3702     1.0  0.66061  0.39432  0.58565  1.0000
  C   C3703     1.0  0.65485  0.40432  0.59344  1.0000
  C   C3704     1.0  0.64130  0.41159  0.59362  1.0000
  C   C3705     1.0  0.63378  0.40924  0.58559  1.0000
  H   H6310     1.0  0.65760  0.38417  0.57176  1.0000
  H   H6311     1.0  0.67105  0.38862  0.58554  1.0000
  H   H6312     1.0  0.63677  0.41927  0.59965  1.0000
  H   H6313     1.0  0.62345  0.41515  0.58546  1.0000
  C   C3706     1.0  0.60278  0.34278  0.58723  1.0000
  C   C3707     1.0  0.58918  0.34513  0.59463  1.0000
  C   C3708     1.0  0.58631  0.34242  0.60886  1.0000
  C   C3709     1.0  0.59700  0.33704  0.61576  1.0000
  C   C3710     1.0  0.61057  0.33413  0.60839  1.0000
  C   C3711     1.0  0.61348  0.33711  0.59413  1.0000
  H   H6314     1.0  0.58088  0.34932  0.58934  1.0000
  H   H6315     1.0  0.57578  0.34430  0.61451  1.0000
  H   H6316     1.0  0.61884  0.32975  0.61369  1.0000
  H   H6317     1.0  0.62397  0.33491  0.58846  1.0000
  C   C3712     1.0  0.67695  0.33679  0.58157  1.0000
  C   C3713     1.0  0.68350  0.32587  0.59038  1.0000
  C   C3714     1.0  0.68643  0.32800  0.60179  1.0000
  C   C3715     1.0  0.68293  0.34107  0.60431  1.0000
  C   C3716     1.0  0.67627  0.35198  0.59559  1.0000
  C   C3717     1.0  0.67319  0.34983  0.58427  1.0000
  H   H6318     1.0  0.68628  0.31575  0.58837  1.0000
  H   H6319     1.0  0.69137  0.31952  0.60863  1.0000
  H   H6320     1.0  0.67354  0.36213  0.59752  1.0000
  H   H6321     1.0  0.66816  0.35829  0.57748  1.0000
  H   H6322     1.0  0.64794  0.39667  0.67108  1.0000
  H   H6323     1.0  0.76446  0.23900  0.62993  1.0000
  C   C3718     1.0  0.64096  0.36990  0.50064  1.0000
  C   C3719     1.0  0.62723  0.36899  0.50568  1.0000
  C   C3720     1.0  0.61914  0.36953  0.49673  1.0000
  H   H6324     1.0  0.62277  0.36812  0.51643  1.0000
  H   H6325     1.0  0.60845  0.36910  0.50069  1.0000
  H   H6326     1.0  0.83464  0.26516  0.71618  1.0000
  C   C3721     1.0  0.60117  0.33734  0.48683  1.0000
  H   H6327     1.0  0.70818  0.45774  0.65918  1.0000
  H   H6328     1.0  0.64677  0.43017  0.51653  1.0000
  H   H6329     1.0  0.64289  0.32573  0.50262  1.0000
  H   H6330     1.0  0.66218  0.41660  0.49909  1.0000
  H   H6331     1.0  0.69942  0.44048  0.72621  1.0000
  Fe  Fe545     1.0  0.63781  0.33360  0.71361  1.0000
  H   H6332     1.0  0.71458  0.44385  0.65024  1.0000
  C   C3722     1.0  0.62229  0.31548  0.50090  1.0000
  H   H6333     1.0  0.66316  0.36997  0.70750  1.0000
  H   H6334     1.0  0.72535  0.42009  0.71903  1.0000
  H   H6335     1.0  0.65695  0.43442  0.49272  1.0000
  H   H6336     1.0  0.87812  0.24617  0.71832  1.0000
  H   H6337     1.0  0.73671  0.24576  0.68214  1.0000
  H   H6338     1.0  0.62223  0.34217  0.49327  1.0000
  H   H6339     1.0  0.56874  0.39825  0.60530  1.0000
  H   H6340     1.0  0.84665  0.28925  0.71205  1.0000
  H   H6341     1.0  0.61218  0.37696  0.67704  1.0000
  C   C3723     1.0  0.64660  0.37094  0.48664  1.0000
  H   H6342     1.0  0.63175  0.30954  0.50455  1.0000
  H   H6343     1.0  0.61700  0.32260  0.50791  1.0000
  H   H6344     1.0  0.71649  0.29983  0.69246  1.0000
  H   H6345     1.0  0.62252  0.42047  0.50423  1.0000
  S   S1089     1.0  0.58941  0.32463  0.72813  1.0000
  H   H6346     1.0  0.49666  0.28231  0.65677  1.0000
  C   C3724     1.0  0.68206  0.46715  0.65167  1.0000
  C   C3725     1.0  0.84582  0.26371  0.71150  1.0000
  H   H6347     1.0  0.61696  0.33741  0.66555  1.0000
  H   H6348     1.0  0.69368  0.32219  0.72037  1.0000
  H   H6349     1.0  0.60747  0.37859  0.61777  1.0000
  H   H6350     1.0  0.64726  0.31233  0.48207  1.0000
  N   N263      1.0  0.62604  0.32339  0.48653  1.0000
  N   N264      1.0  0.73129  0.32466  0.57370  1.0000
  C   C3726     1.0  0.74625  0.31854  0.57386  1.0000
  C   C3727     1.0  0.72302  0.31701  0.58616  1.0000
  C   C3728     1.0  0.72850  0.33946  0.57434  1.0000
  C   C3729     1.0  0.72878  0.32332  0.56072  1.0000
  C   C3730     1.0  0.75673  0.32542  0.56241  1.0000
  C   C3731     1.0  0.71359  0.34643  0.58004  1.0000
  H   H6351     1.0  0.72160  0.37980  0.63658  1.0000
  H   H6352     1.0  0.74837  0.31873  0.58364  1.0000
  H   H6353     1.0  0.71199  0.32176  0.58764  1.0000
  H   H6354     1.0  0.72585  0.31741  0.59548  1.0000
  H   H6355     1.0  0.73464  0.34078  0.58087  1.0000
  H   H6356     1.0  0.73183  0.34573  0.56409  1.0000
  H   H6357     1.0  0.73442  0.32969  0.55180  1.0000
  C   C3732     1.0  0.62589  0.41713  0.53061  1.0000
  H   H6358     1.0  0.76720  0.32037  0.56415  1.0000
  H   H6359     1.0  0.75662  0.32419  0.55229  1.0000
  H   H6360     1.0  0.75523  0.33632  0.56235  1.0000
  H   H6361     1.0  0.70600  0.34493  0.57538  1.0000
  H   H6362     1.0  0.66036  0.46191  0.67111  1.0000
  C   C3733     1.0  0.87669  0.25411  0.70904  1.0000
  Fe  Fe546     1.0  0.61229  0.32202  0.72187  1.0000
  H   H6363     1.0  0.70532  0.30585  0.70690  1.0000
  H   H6364     1.0  0.71275  0.35755  0.57809  1.0000
  C   C3734     1.0  0.64515  0.47819  0.64611  1.0000
  H   H6365     1.0  0.58302  0.31996  0.69083  1.0000
  N   N265      1.0  0.68524  0.45188  0.65288  1.0000
  C   C3735     1.0  0.69208  0.44821  0.63924  1.0000
  H   H6366     1.0  0.84076  0.26786  0.69184  1.0000
  H   H6367     1.0  0.71870  0.39609  0.62501  1.0000
  H   H6368     1.0  0.55933  0.39177  0.58285  1.0000
  C   C3736     1.0  0.69722  0.37449  0.61234  1.0000
  H   H6369     1.0  0.65561  0.37676  0.61606  1.0000
  H   H6370     1.0  0.63848  0.33538  0.61848  1.0000
  H   H6371     1.0  0.62393  0.40748  0.53778  1.0000
  H   H6372     1.0  0.69457  0.43340  0.66546  1.0000
  H   H6373     1.0  0.50253  0.29795  0.66662  1.0000
  H   H6374     1.0  0.50485  0.37740  0.61709  1.0000
  H   H6375     1.0  0.60302  0.36550  0.68968  1.0000
  C   C3737     1.0  0.65740  0.40325  0.52931  1.0000
  H   H6376     1.0  0.69658  0.37464  0.59192  1.0000
  H   H6377     1.0  0.64376  0.39188  0.62004  1.0000
  C   C3738     1.0  0.61910  0.37935  0.72222  1.0000
  C   C3739     1.0  0.64339  0.33305  0.49272  1.0000
  C   C3740     1.0  0.69952  0.40615  0.60838  1.0000
  H   H6378     1.0  0.70459  0.42749  0.64508  1.0000
  C   C3741     1.0  0.62939  0.41108  0.50875  1.0000
  C   C3742     1.0  0.60855  0.32053  0.67883  1.0000
  H   H6379     1.0  0.69090  0.41258  0.60364  1.0000
  C   C3743     1.0  0.59621  0.40177  0.70578  1.0000
  H   H6380     1.0  0.62051  0.36825  0.72321  1.0000
  H   H6381     1.0  0.79058  0.24480  0.66003  1.0000
  H   H6382     1.0  0.64299  0.39321  0.52766  1.0000
  H   H6383     1.0  0.68167  0.46964  0.66145  1.0000
  H   H6384     1.0  0.64420  0.34271  0.49451  1.0000
  H   H6385     1.0  0.81124  0.36458  0.72604  1.0000
  H   H6386     1.0  0.71083  0.33858  0.55482  1.0000
  H   H6387     1.0  0.62062  0.37654  0.64613  1.0000
  H   H6388     1.0  0.60750  0.33179  0.65756  1.0000
  H   H6389     1.0  0.60240  0.31364  0.65699  1.0000
  H   H6390     1.0  0.71105  0.38020  0.59236  1.0000
  C   C3744     1.0  0.49689  0.35916  0.62429  1.0000
  H   H6391     1.0  0.58341  0.33233  0.66555  1.0000
  H   H6392     1.0  0.63699  0.40724  0.50003  1.0000
  H   H6393     1.0  0.70153  0.45216  0.63453  1.0000
  C   C3745     1.0  0.61394  0.37485  0.69817  1.0000
  H   H6394     1.0  0.70757  0.40210  0.60021  1.0000
  C   C3746     1.0  0.62608  0.38605  0.70788  1.0000
  H   H6395     1.0  0.71365  0.44073  0.66802  1.0000
  H   H6396     1.0  0.59855  0.34141  0.67055  1.0000
  H   H6397     1.0  0.67829  0.36836  0.72266  1.0000
  H   H6398     1.0  0.69939  0.42320  0.72857  1.0000
  C   C3747     1.0  0.64759  0.40189  0.52139  1.0000
  H   H6399     1.0  0.60430  0.32414  0.68847  1.0000
  C   C3748     1.0  0.65646  0.35157  0.71876  1.0000
  H   H6400     1.0  0.62103  0.42568  0.54850  1.0000
  H   H6401     1.0  0.74663  0.23929  0.66198  1.0000
  H   H6402     1.0  0.50081  0.31058  0.65118  1.0000
  H   H6403     1.0  0.74907  0.30766  0.57325  1.0000
  C   C3749     1.0  0.70003  0.38066  0.59700  1.0000
  H   H6404     1.0  0.73319  0.31282  0.55890  1.0000
  H   H6405     1.0  0.57892  0.31762  0.66374  1.0000
  C   C3750     1.0  0.60763  0.33345  0.66746  1.0000
  H   H6406     1.0  0.66741  0.39603  0.52688  1.0000
  H   H6407     1.0  0.65321  0.40069  0.54044  1.0000
  H   H6408     1.0  0.64504  0.39684  0.68851  1.0000
  C   C3751     1.0  0.75430  0.25989  0.64413  1.0000
  H   H6409     1.0  0.60270  0.34748  0.48643  1.0000
  C   C3752     1.0  0.86793  0.26772  0.71259  1.0000
  H   H6410     1.0  0.66713  0.44486  0.67992  1.0000
  C   C3753     1.0  0.58619  0.31438  0.68243  1.0000
  H   H6411     1.0  0.70283  0.33210  0.72433  1.0000
  N   N266      1.0  0.58504  0.39453  0.58777  1.0000
  C   C3754     1.0  0.59229  0.40420  0.58981  1.0000
  C   C3755     1.0  0.59103  0.38055  0.59515  1.0000
  C   C3756     1.0  0.57002  0.39850  0.59432  1.0000
  C   C3757     1.0  0.58717  0.39560  0.57271  1.0000
  C   C3758     1.0  0.58666  0.41951  0.58474  1.0000
  C   C3759     1.0  0.60648  0.37516  0.58992  1.0000
  C   C3760     1.0  0.56053  0.39001  0.59340  1.0000
  C   C3761     1.0  0.58509  0.38357  0.56820  1.0000
  H   H6412     1.0  0.59225  0.40270  0.60074  1.0000
  H   H6413     1.0  0.60330  0.40217  0.58457  1.0000
  H   H6414     1.0  0.58582  0.37277  0.59507  1.0000
  H   H6415     1.0  0.58935  0.38040  0.60613  1.0000
  H   H6416     1.0  0.56546  0.40910  0.58970  1.0000
  H   H6417     1.0  0.58031  0.40499  0.56824  1.0000
  H   H6418     1.0  0.59783  0.39677  0.56746  1.0000
  H   H6419     1.0  0.58539  0.42195  0.57415  1.0000
  H   H6420     1.0  0.57686  0.42331  0.59159  1.0000
  H   H6421     1.0  0.59408  0.42522  0.58497  1.0000
  H   H6422     1.0  0.61287  0.38071  0.59224  1.0000
  H   H6423     1.0  0.60935  0.36441  0.59517  1.0000
  H   H6424     1.0  0.60912  0.37542  0.57889  1.0000
  H   H6425     1.0  0.55012  0.39334  0.59962  1.0000
  H   H6426     1.0  0.56380  0.37900  0.59753  1.0000
  H   H6427     1.0  0.57868  0.38757  0.56049  1.0000
  H   H6428     1.0  0.58007  0.37614  0.57628  1.0000
  H   H6429     1.0  0.59507  0.37796  0.56305  1.0000
  H   H6430     1.0  0.60450  0.37151  0.63577  1.0000
  C   C3762     1.0  0.70835  0.44699  0.65978  1.0000
  H   H6431     1.0  0.60123  0.29704  0.66578  1.0000
  H   H6432     1.0  0.71073  0.34288  0.59124  1.0000
  H   H6433     1.0  0.76333  0.26556  0.66405  1.0000
  C   C3763     1.0  0.74328  0.27162  0.64950  1.0000
  C   C3764     1.0  0.78102  0.24949  0.66660  1.0000
  H   H6434     1.0  0.62369  0.29857  0.64986  1.0000
  H   H6435     1.0  0.71949  0.32258  0.68906  1.0000
  H   H6436     1.0  0.63839  0.37720  0.68384  1.0000
  H   H6437     1.0  0.86003  0.29287  0.72441  1.0000
  C   C3765     1.0  0.60044  0.29895  0.70427  1.0000
  H   H6438     1.0  0.78769  0.37697  0.72893  1.0000
  H   H6439     1.0  0.65659  0.33317  0.61447  1.0000
  H   H6440     1.0  0.68870  0.44759  0.67322  1.0000
  H   H6441     1.0  0.64652  0.37756  0.63344  1.0000
  C   C3766     1.0  0.71379  0.32751  0.55910  1.0000
  H   H6442     1.0  0.58131  0.30545  0.68641  1.0000
  H   H6443     1.0  0.77696  0.24150  0.67485  1.0000
  H   H6444     1.0  0.65295  0.32971  0.48536  1.0000
  H   H6445     1.0  0.68515  0.45308  0.63199  1.0000
  C   C3767     1.0  0.49828  0.34602  0.63240  1.0000
  N   N267      1.0  0.85321  0.26769  0.71976  1.0000
  H   H6446     1.0  0.69386  0.39116  0.59471  1.0000
  C   C3768     1.0  0.57894  0.32347  0.67108  1.0000
  C   C3769     1.0  0.66261  0.45092  0.67113  1.0000
  H   H6447     1.0  0.83483  0.28276  0.72607  1.0000
  N   N268      1.0  0.76295  0.25027  0.65369  1.0000
  H   H6448     1.0  0.59634  0.38331  0.68830  1.0000
  H   H6449     1.0  0.61957  0.31631  0.67902  1.0000
  C   C3770     1.0  0.70717  0.30750  0.69577  1.0000
  H   H6450     1.0  0.58910  0.30063  0.70747  1.0000
  H   H6451     1.0  0.72085  0.38324  0.60670  1.0000
  H   H6452     1.0  0.63895  0.42146  0.54172  1.0000
  H   H6453     1.0  0.83603  0.23579  0.65381  1.0000
  C   C3771     1.0  0.67178  0.44742  0.65761  1.0000
  H   H6454     1.0  0.58757  0.40896  0.70153  1.0000
  H   H6455     1.0  0.72205  0.36793  0.61868  1.0000
  H   H6456     1.0  0.61637  0.39872  0.50745  1.0000
  H   H6457     1.0  0.63184  0.34641  0.64463  1.0000
  H   H6458     1.0  0.74421  0.26010  0.67547  1.0000
  H   H6459     1.0  0.60673  0.37291  0.70813  1.0000
  H   H6460     1.0  0.78100  0.24604  0.63766  1.0000
  H   H6461     1.0  0.64768  0.33295  0.63166  1.0000
  H   H6462     1.0  0.88708  0.25552  0.70322  1.0000
  H   H6463     1.0  0.59256  0.39226  0.71048  1.0000
  C   C3772     1.0  0.60910  0.40018  0.69420  1.0000
  C   C3773     1.0  0.64214  0.42658  0.51025  1.0000
  H   H6464     1.0  0.62227  0.36548  0.69830  1.0000
  H   H6465     1.0  0.70631  0.32476  0.56859  1.0000
  H   H6466     1.0  0.62684  0.39626  0.70841  1.0000
  C   C3774     1.0  0.60606  0.30545  0.66525  1.0000
  N   N269      1.0  0.70160  0.38076  0.62129  1.0000
  C   C3775     1.0  0.69801  0.37283  0.63573  1.0000
  C   C3776     1.0  0.68291  0.37159  0.64128  1.0000
  C   C3777     1.0  0.72303  0.38506  0.62574  1.0000
  H   H6467     1.0  0.70439  0.36225  0.63686  1.0000
  H   H6468     1.0  0.70031  0.37743  0.64297  1.0000
  H   H6469     1.0  0.76099  0.26460  0.63479  1.0000
  H   H6470     1.0  0.70224  0.36347  0.61364  1.0000
  H   H6471     1.0  0.68595  0.37517  0.61530  1.0000
  H   H6472     1.0  0.68307  0.39656  0.62117  1.0000
  H   H6473     1.0  0.69427  0.39864  0.62990  1.0000
  H   H6474     1.0  0.68047  0.36437  0.63681  1.0000
  H   H6475     1.0  0.68122  0.36740  0.65240  1.0000
  H   H6476     1.0  0.67562  0.38155  0.63974  1.0000
  H   H6477     1.0  0.73429  0.38363  0.62168  1.0000
  H   H6478     1.0  0.77597  0.26450  0.64911  1.0000
  C   C3778     1.0  0.73049  0.41061  0.72515  1.0000
  H   H6479     1.0  0.87331  0.27040  0.71897  1.0000
  C   C3779     1.0  0.71700  0.37895  0.61753  1.0000
  C   C3780     1.0  0.69658  0.43286  0.63918  1.0000
  H   H6480     1.0  0.72025  0.30089  0.57798  1.0000
  H   H6481     1.0  0.64397  0.35581  0.64237  1.0000
  H   H6482     1.0  0.74751  0.27818  0.65314  1.0000
  H   H6483     1.0  0.61356  0.40907  0.69277  1.0000
  C   C3781     1.0  0.62170  0.30078  0.66009  1.0000
  N   N270      1.0  0.60163  0.30976  0.67869  1.0000
  H   H6484     1.0  0.60240  0.28852  0.68857  1.0000
  H   H6485     1.0  0.73859  0.27833  0.64100  1.0000
  H   H6486     1.0  0.63685  0.38004  0.70628  1.0000
  S   S1090     1.0  0.65639  0.46452  0.62477  1.0000
  H   H6487     1.0  0.70249  0.47150  0.64053  1.0000
  H   H6488     1.0  0.63358  0.40854  0.67809  1.0000
  H   H6489     1.0  0.60807  0.38405  0.72512  1.0000
  C   C3782     1.0  0.69374  0.44458  0.66332  1.0000
  H   H6490     1.0  0.71735  0.29769  0.59604  1.0000
  H   H6491     1.0  0.62418  0.38045  0.72974  1.0000
  C   C3783     1.0  0.63974  0.39802  0.68033  1.0000
  C   C3784     1.0  0.72402  0.30198  0.58642  1.0000
  Fe  Fe547     1.0  0.65162  0.44336  0.63236  1.0000
  N   N271      1.0  0.63647  0.41419  0.51794  1.0000
  N   N272      1.0  0.61975  0.38712  0.69617  1.0000
  C   C3785     1.0  0.77041  0.25814  0.65812  1.0000
  C   C3786     1.0  0.62479  0.37051  0.48275  1.0000
  H   H6492     1.0  0.62671  0.39044  0.51951  1.0000
  H   H6493     1.0  0.60381  0.30722  0.70619  1.0000
  C   C3787     1.0  0.69412  0.39541  0.62072  1.0000
  C   C3788     1.0  0.63105  0.38731  0.68342  1.0000
  C   C3789     1.0  0.60600  0.37537  0.68757  1.0000
  H   H6494     1.0  0.62686  0.38922  0.67425  1.0000
  C   C3790     1.0  0.60584  0.29737  0.68935  1.0000
  C   C3791     1.0  0.50593  0.36730  0.62347  1.0000
  C   C3792     1.0  0.77375  0.24055  0.64577  1.0000
  N   N273      1.0  0.69835  0.33391  0.69189  1.0000
  C   C3793     1.0  0.70100  0.33811  0.70338  1.0000
  C   C3794     1.0  0.69966  0.34556  0.67972  1.0000
  C   C3795     1.0  0.70939  0.32182  0.68804  1.0000
  C   C3796     1.0  0.68416  0.33121  0.69562  1.0000
  C   C3797     1.0  0.70251  0.32717  0.71635  1.0000
  C   C3798     1.0  0.68971  0.35936  0.68132  1.0000
  H   H6495     1.0  0.56803  0.32749  0.67570  1.0000
  C   C3799     1.0  0.67931  0.32913  0.68387  1.0000
  H   H6496     1.0  0.71054  0.34211  0.69997  1.0000
  H   H6497     1.0  0.69253  0.34652  0.70667  1.0000
  H   H6498     1.0  0.69852  0.34304  0.67055  1.0000
  H   H6499     1.0  0.71022  0.34735  0.67694  1.0000
  C   C3800     1.0  0.62893  0.42564  0.53885  1.0000
  H   H6500     1.0  0.59894  0.36483  0.62490  1.0000
  H   H6501     1.0  0.68321  0.32222  0.70409  1.0000
  H   H6502     1.0  0.67644  0.33958  0.69982  1.0000
  H   H6503     1.0  0.69856  0.30518  0.69328  1.0000
  H   H6504     1.0  0.71096  0.32176  0.67709  1.0000
  H   H6505     1.0  0.61165  0.40366  0.52339  1.0000
  H   H6506     1.0  0.67879  0.35873  0.68408  1.0000
  H   H6507     1.0  0.69185  0.36379  0.68876  1.0000
  H   H6508     1.0  0.69125  0.36674  0.67145  1.0000
  H   H6509     1.0  0.62723  0.30877  0.65897  1.0000
  H   H6510     1.0  0.61335  0.36186  0.65440  1.0000
  C   C3801     1.0  0.63053  0.33575  0.48694  1.0000
  H   H6511     1.0  0.67669  0.33888  0.67663  1.0000
  H   H6512     1.0  0.66983  0.32512  0.68803  1.0000
  H   H6513     1.0  0.68704  0.32172  0.67830  1.0000
  N   N274      1.0  0.63329  0.36147  0.62582  1.0000
  C   C3802     1.0  0.64597  0.35335  0.61803  1.0000
  C   C3803     1.0  0.63371  0.37628  0.62031  1.0000
  C   C3804     1.0  0.62095  0.35858  0.62319  1.0000
  C   C3805     1.0  0.63356  0.35691  0.64070  1.0000
  C   C3806     1.0  0.64701  0.33787  0.62100  1.0000
  C   C3807     1.0  0.64568  0.38062  0.62269  1.0000
  C   C3808     1.0  0.60730  0.36906  0.62564  1.0000
  C   C3809     1.0  0.62304  0.36551  0.65048  1.0000
  H   H6514     1.0  0.64681  0.35715  0.60686  1.0000
  H   H6515     1.0  0.65543  0.35455  0.62010  1.0000
  H   H6516     1.0  0.62420  0.38315  0.62460  1.0000
  H   H6517     1.0  0.63420  0.37905  0.60916  1.0000
  H   H6518     1.0  0.62287  0.35771  0.61243  1.0000
  H   H6519     1.0  0.61897  0.34858  0.62946  1.0000
  H   H6520     1.0  0.70114  0.43163  0.62855  1.0000
  H   H6521     1.0  0.75244  0.24498  0.68599  1.0000
  H   H6522     1.0  0.68996  0.47573  0.63018  1.0000
  H   H6523     1.0  0.86860  0.27574  0.70310  1.0000
  C   C3810     1.0  0.61287  0.30548  0.50357  1.0000
  H   H6524     1.0  0.59800  0.40581  0.71370  1.0000
  H   H6525     1.0  0.68794  0.42767  0.64290  1.0000
  H   H6526     1.0  0.73923  0.41243  0.72793  1.0000
  C   C3811     1.0  0.56538  0.33250  0.71988  1.0000
  H   H6527     1.0  0.78399  0.25619  0.67131  1.0000
  C   C3812     1.0  0.69150  0.47539  0.64034  1.0000
  H   H6528     1.0  0.71243  0.31969  0.71473  1.0000
  H   H6529     1.0  0.67342  0.43628  0.65900  1.0000
  H   H6530     1.0  0.85771  0.26923  0.69050  1.0000
  H   H6531     1.0  0.67167  0.47197  0.64962  1.0000
  H   H6532     1.0  0.84932  0.25267  0.71147  1.0000
  S   S1091     1.0  0.64652  0.35220  0.70751  1.0000
  C   C3813     1.0  0.84704  0.27144  0.69655  1.0000
  H   H6533     1.0  0.65998  0.41330  0.52651  1.0000
  H   H6534     1.0  0.61584  0.42284  0.52803  1.0000
  C   C3814     1.0  0.84607  0.28181  0.72194  1.0000
  H   H6535     1.0  0.84308  0.28255  0.69551  1.0000
  H   H6536     1.0  0.63578  0.29393  0.48679  1.0000
  S   S1092     1.0  0.85630  0.23864  0.68965  1.0000
  H   H6537     1.0  0.87235  0.25041  0.70259  1.0000
  C   C3815     1.0  0.67259  0.36060  0.72467  1.0000
  H   H6538     1.0  0.61732  0.29552  0.50959  1.0000
  H   H6539     1.0  0.83649  0.24511  0.67304  1.0000
  H   H6540     1.0  0.59756  0.33237  0.49752  1.0000
  C   C3816     1.0  0.49633  0.30777  0.66218  1.0000
  H   H6541     1.0  0.49892  0.27492  0.67850  1.0000
  H   H6542     1.0  0.49743  0.31563  0.66681  1.0000
  C   C3817     1.0  0.65288  0.47837  0.63281  1.0000
  H   H6543     1.0  0.65259  0.44824  0.67277  1.0000
  H   H6544     1.0  0.61128  0.30340  0.49445  1.0000
  C   C3818     1.0  0.75437  0.24216  0.66548  1.0000
  S   S1093     1.0  0.83454  0.23609  0.61421  1.0000
  H   H6545     1.0  0.64899  0.42316  0.48926  1.0000
  H   H6546     1.0  0.65722  0.37162  0.48266  1.0000
  H   H6547     1.0  0.59277  0.33918  0.48150  1.0000
  H   H6548     1.0  0.78733  0.35988  0.72958  1.0000
  C   C3819     1.0  0.65748  0.34077  0.73000  1.0000
  H   H6549     1.0  0.71818  0.43251  0.73632  1.0000
  H   H6550     1.0  0.64199  0.28176  0.78094  1.0000
  Fe  Fe548     1.0  0.77923  0.39649  0.78350  1.0000
  S   S1094     1.0  0.79793  0.40345  0.78335  1.0000
  S   S1095     1.0  0.77044  0.40301  0.76457  1.0000
  Fe  Fe549     1.0  0.78086  0.37611  0.81033  1.0000
  S   S1096     1.0  0.79998  0.38092  0.81181  1.0000
  S   S1097     1.0  0.77123  0.35998  0.82582  1.0000
  Fe  Fe550     1.0  0.78932  0.40256  0.80574  1.0000
  S   S1098     1.0  0.78872  0.41632  0.81934  1.0000
  Fe  Fe551     1.0  0.80682  0.38120  0.78964  1.0000
  S   S1099     1.0  0.82841  0.37168  0.78026  1.0000
  S   S1100     1.0  0.76957  0.39782  0.80535  1.0000
  S   S1101     1.0  0.78864  0.37436  0.78875  1.0000
  Fe  Fe552     1.0  0.88828  0.29907  0.79487  1.0000
  S   S1102     1.0  0.87936  0.30146  0.77680  1.0000
  S   S1103     1.0  0.89739  0.31562  0.79682  1.0000
  Fe  Fe553     1.0  0.87696  0.27414  0.81011  1.0000
  S   S1104     1.0  0.86661  0.27459  0.79395  1.0000
  S   S1105     1.0  0.87760  0.25660  0.82802  1.0000
  Fe  Fe554     1.0  0.88604  0.27868  0.77940  1.0000
  C   C3820     1.0  0.79296  0.37679  0.84582  1.0000
  Fe  Fe555     1.0  0.86060  0.29709  0.79239  1.0000
  S   S1106     1.0  0.83909  0.30778  0.79045  1.0000
  S   S1107     1.0  0.89707  0.27671  0.79582  1.0000
  S   S1108     1.0  0.86882  0.29621  0.81026  1.0000
  Fe  Fe556     1.0  0.78780  0.28822  0.88911  1.0000
  S   S1109     1.0  0.80047  0.27701  0.90468  1.0000
  S   S1110     1.0  0.76706  0.28427  0.88982  1.0000
  Fe  Fe557     1.0  0.80849  0.30582  0.87394  1.0000
  S   S1111     1.0  0.82275  0.29596  0.88799  1.0000
  S   S1112     1.0  0.81633  0.32130  0.85619  1.0000
  Fe  Fe558     1.0  0.81845  0.27670  0.88682  1.0000
  S   S1113     1.0  0.83578  0.25847  0.88466  1.0000
  Fe  Fe559     1.0  0.80369  0.29745  0.90445  1.0000
  S   S1114     1.0  0.80406  0.30335  0.92355  1.0000
  S   S1115     1.0  0.80569  0.28638  0.87130  1.0000
  S   S1116     1.0  0.78949  0.30890  0.89040  1.0000
  H   H6551     1.0  0.82952  0.41203  0.85662  1.0000
  H   H6552     1.0  0.88681  0.29775  0.92899  1.0000
  H   H6553     1.0  0.78835  0.30393  0.83244  1.0000
  H   H6554     1.0  0.98302  0.34086  0.85690  1.0000
  C   C3821     1.0  0.66606  0.33987  0.73851  1.0000
  H   H6555     1.0  0.80041  0.27658  0.83355  1.0000
  S   S1117     1.0  0.64376  0.29623  0.75342  1.0000
  C   C3822     1.0  0.99137  0.30922  0.83398  1.0000
  C   C3823     1.0  0.66311  0.26036  0.83125  1.0000
  C   C3824     1.0  0.68132  0.27067  0.83112  1.0000
  Fe  Fe560     1.0  0.84573  0.43844  0.83998  1.0000
  S   S1118     1.0  0.85304  0.42644  0.85885  1.0000
  S   S1119     1.0  0.84397  0.42509  0.82695  1.0000
  Fe  Fe561     1.0  0.84780  0.46550  0.84503  1.0000
  S   S1120     1.0  0.85564  0.45512  0.86395  1.0000
  H   H6556     1.0  0.85971  0.48472  0.85786  1.0000
  Fe  Fe562     1.0  0.86864  0.43920  0.85231  1.0000
  S   S1121     1.0  0.89039  0.42912  0.85423  1.0000
  Fe  Fe563     1.0  0.83937  0.44332  0.86866  1.0000
  S   S1122     1.0  0.82641  0.43839  0.88967  1.0000
  S   S1123     1.0  0.86230  0.45045  0.83275  1.0000
  S   S1124     1.0  0.83053  0.45446  0.85045  1.0000
  Fe  Fe564     1.0  0.83944  0.35517  0.93374  1.0000
  S   S1125     1.0  0.84685  0.33901  0.95084  1.0000
  S   S1126     1.0  0.82766  0.35448  0.91879  1.0000
  Fe  Fe565     1.0  0.85764  0.37336  0.93410  1.0000
  S   S1127     1.0  0.86706  0.35851  0.95071  1.0000
  S   S1128     1.0  0.86532  0.39236  0.92324  1.0000
  Fe  Fe566     1.0  0.86774  0.34271  0.93967  1.0000
  S   S1129     1.0  0.88547  0.32532  0.93512  1.0000
  Fe  Fe567     1.0  0.84547  0.35626  0.96061  1.0000
  S   S1130     1.0  0.72436  0.34767  0.73553  1.0000
  S   S1131     1.0  0.86052  0.35772  0.92218  1.0000
  S   S1132     1.0  0.83594  0.37222  0.94438  1.0000
  Fe  Fe568     1.0  0.92764  0.35914  0.83971  1.0000
  S   S1133     1.0  0.94229  0.36086  0.85100  1.0000
  S   S1134     1.0  0.91053  0.37515  0.83163  1.0000
  Fe  Fe569     1.0  0.93833  0.32889  0.84167  1.0000
  S   S1135     1.0  0.95385  0.32776  0.85346  1.0000
  S   S1136     1.0  0.93626  0.31010  0.83627  1.0000
  Fe  Fe570     1.0  0.93692  0.34171  0.86499  1.0000
  S   S1137     1.0  0.93574  0.33890  0.88730  1.0000
  Fe  Fe571     1.0  0.95839  0.34683  0.83879  1.0000
  S   S1138     1.0  0.98026  0.34963  0.82848  1.0000
  S   S1139     1.0  0.92101  0.34104  0.85474  1.0000
  S   S1140     1.0  0.94410  0.34691  0.82599  1.0000
  H   H6557     1.0  0.79246  0.35287  0.86142  1.0000
  N   N275      1.0  0.98425  0.30696  0.82431  1.0000
  H   H6558     1.0  0.79447  0.34402  0.77566  1.0000
  C   C3825     1.0  0.90052  0.36531  0.80461  1.0000
  H   H6559     1.0  0.60135  0.30824  0.75164  1.0000
  H   H6560     1.0  0.81048  0.35292  0.79314  1.0000
  H   H6561     1.0  0.99033  0.41613  0.85489  1.0000
  C   C3826     1.0  0.67757  0.29125  0.76149  1.0000
  H   H6562     1.0  0.77177  0.40717  0.86493  1.0000
  H   H6563     1.0  0.86039  0.25831  0.73839  1.0000
  C   C3827     1.0  0.89894  0.32982  0.92154  1.0000
  C   C3828     1.0  0.91182  0.32805  0.92417  1.0000
  C   C3829     1.0  0.92292  0.33091  0.91352  1.0000
  C   C3830     1.0  0.92139  0.33516  0.90008  1.0000
  C   C3831     1.0  0.90855  0.33677  0.89731  1.0000
  C   C3832     1.0  0.89725  0.33428  0.90808  1.0000
  H   H6564     1.0  0.91322  0.32450  0.93449  1.0000
  H   H6565     1.0  0.93280  0.32967  0.91573  1.0000
  H   H6566     1.0  0.90729  0.34012  0.88694  1.0000
  H   H6567     1.0  0.88731  0.33561  0.90599  1.0000
  C   C3833     1.0  0.76975  0.37309  0.85704  1.0000
  H   H6568     1.0  0.90893  0.35954  0.79778  1.0000
  C   C3834     1.0  0.83893  0.25806  0.74314  1.0000
  H   H6569     1.0  0.75560  0.29695  0.85857  1.0000
  S   S1141     1.0  0.62180  0.24389  0.82098  1.0000
  H   H6570     1.0  0.86138  0.36324  0.81451  1.0000
  H   H6571     1.0  0.97623  0.31710  0.79780  1.0000
  H   H6572     1.0  0.77639  0.40239  0.84905  1.0000
  C   C3835     1.0  0.89647  0.41461  0.84716  1.0000
  C   C3836     1.0  0.88821  0.41101  0.84091  1.0000
  C   C3837     1.0  0.89275  0.39901  0.83599  1.0000
  C   C3838     1.0  0.90553  0.39045  0.83737  1.0000
  C   C3839     1.0  0.91394  0.39415  0.84340  1.0000
  C   C3840     1.0  0.90947  0.40631  0.84815  1.0000
  H   H6573     1.0  0.87833  0.41752  0.83976  1.0000
  H   H6574     1.0  0.88624  0.39636  0.83124  1.0000
  H   H6575     1.0  0.92392  0.38774  0.84428  1.0000
  H   H6576     1.0  0.91598  0.40921  0.85277  1.0000
  C   C3841     1.0  0.83707  0.42640  0.89977  1.0000
  C   C3842     1.0  0.85131  0.42407  0.89507  1.0000
  C   C3843     1.0  0.85986  0.41378  0.90254  1.0000
  C   C3844     1.0  0.85423  0.40553  0.91456  1.0000
  C   C3845     1.0  0.83998  0.40793  0.91940  1.0000
  C   C3846     1.0  0.83141  0.41857  0.91212  1.0000
  H   H6577     1.0  0.85581  0.43014  0.88564  1.0000
  H   H6578     1.0  0.87086  0.41209  0.89886  1.0000
  H   H6579     1.0  0.83559  0.40176  0.92884  1.0000
  H   H6580     1.0  0.82041  0.42053  0.91593  1.0000
  H   H6581     1.0  0.83864  0.39900  0.84752  1.0000
  H   H6582     1.0  0.63906  0.27501  0.74342  1.0000
  H   H6583     1.0  0.63422  0.25228  0.75549  1.0000
  H   H6584     1.0  0.90358  0.37470  0.80421  1.0000
  H   H6585     1.0  0.81633  0.40343  0.90690  1.0000
  S   S1142     1.0  0.64743  0.26238  0.82678  1.0000
  H   H6586     1.0  0.86229  0.39717  0.82392  1.0000
  C   C3847     1.0  0.83744  0.47952  0.89168  1.0000
  H   H6587     1.0  0.82166  0.26856  0.85159  1.0000
  C   C3848     1.0  0.85296  0.25748  0.73306  1.0000
  C   C3849     1.0  0.86428  0.23663  0.81377  1.0000
  H   H6588     1.0  0.78615  0.34651  0.88685  1.0000
  H   H6589     1.0  0.72565  0.39428  0.74188  1.0000
  H   H6590     1.0  0.81155  0.36966  0.88767  1.0000
  H   H6591     1.0  0.76369  0.40124  0.74038  1.0000
  C   C3850     1.0  0.97728  0.28601  0.84198  1.0000
  C   C3851     1.0  0.81015  0.31787  0.92213  1.0000
  C   C3852     1.0  0.81392  0.32635  0.90951  1.0000
  C   C3853     1.0  0.81906  0.33767  0.90868  1.0000
  C   C3854     1.0  0.82084  0.34037  0.92038  1.0000
  C   C3855     1.0  0.81712  0.33188  0.93299  1.0000
  C   C3856     1.0  0.81160  0.32078  0.93388  1.0000
  H   H6592     1.0  0.81280  0.32420  0.90042  1.0000
  H   H6593     1.0  0.82188  0.34421  0.89890  1.0000
  H   H6594     1.0  0.81827  0.33399  0.94209  1.0000
  H   H6595     1.0  0.80863  0.31430  0.94367  1.0000
  C   C3857     1.0  0.76510  0.27022  0.88478  1.0000
  C   C3858     1.0  0.77587  0.26291  0.87637  1.0000
  H   H6596     1.0  0.66749  0.30849  0.74732  1.0000
  H   H6597     1.0  0.78584  0.26540  0.87340  1.0000
  H   H6598     1.0  0.58124  0.32031  0.76313  1.0000
  C   C3859     1.0  0.90819  0.31373  0.80789  1.0000
  C   C3860     1.0  0.91048  0.32545  0.81008  1.0000
  C   C3861     1.0  0.91898  0.32449  0.81879  1.0000
  C   C3862     1.0  0.92547  0.31174  0.82525  1.0000
  C   C3863     1.0  0.92324  0.29999  0.82303  1.0000
  C   C3864     1.0  0.91455  0.30096  0.81448  1.0000
  H   H6599     1.0  0.90566  0.33533  0.80497  1.0000
  H   H6600     1.0  0.92062  0.33362  0.82040  1.0000
  H   H6601     1.0  0.92826  0.29008  0.82796  1.0000
  H   H6602     1.0  0.91294  0.29186  0.81280  1.0000
  C   C3865     1.0  0.86545  0.25774  0.84337  1.0000
  S   S1143     1.0  0.68562  0.34735  0.74573  1.0000
  H   H6603     1.0  0.85650  0.24693  0.73130  1.0000
  C   C3866     1.0  0.84699  0.25853  0.86865  1.0000
  C   C3867     1.0  0.84628  0.27005  0.85801  1.0000
  C   C3868     1.0  0.85548  0.26964  0.84529  1.0000
  H   H6604     1.0  0.83877  0.27925  0.85975  1.0000
  H   H6605     1.0  0.85499  0.27852  0.83710  1.0000
  C   C3869     1.0  0.80813  0.38953  0.75175  1.0000
  C   C3870     1.0  0.87361  0.25545  0.76579  1.0000
  H   H6606     1.0  0.98615  0.32650  0.81077  1.0000
  H   H6607     1.0  0.80680  0.38765  0.88184  1.0000
  H   H6608     1.0  0.86811  0.26150  0.77325  1.0000
  H   H6609     1.0  0.79039  0.34642  0.75968  1.0000
  H   H6610     1.0  0.82239  0.39760  0.85865  1.0000
  C   C3871     1.0  0.80414  0.41829  0.82178  1.0000
  C   C3872     1.0  0.80352  0.42684  0.83026  1.0000
  C   C3873     1.0  0.81562  0.42897  0.83206  1.0000
  C   C3874     1.0  0.82844  0.42253  0.82537  1.0000
  C   C3875     1.0  0.82905  0.41370  0.81718  1.0000
  C   C3876     1.0  0.81697  0.41158  0.81538  1.0000
  H   H6611     1.0  0.79363  0.43208  0.83523  1.0000
  H   H6612     1.0  0.81502  0.43578  0.83839  1.0000
  H   H6613     1.0  0.83891  0.40870  0.81197  1.0000
  H   H6614     1.0  0.81757  0.40498  0.80882  1.0000
  C   C3877     1.0  0.83149  0.35387  0.78368  1.0000
  C   C3878     1.0  0.82070  0.34722  0.78987  1.0000
  C   C3879     1.0  0.82308  0.33308  0.79179  1.0000
  C   C3880     1.0  0.83638  0.32546  0.78802  1.0000
  C   C3881     1.0  0.84728  0.33203  0.78223  1.0000
  C   C3882     1.0  0.84481  0.34626  0.77988  1.0000
  H   H6615     1.0  0.74385  0.27227  0.89528  1.0000
  H   H6616     1.0  0.83204  0.46189  0.90770  1.0000
  H   H6617     1.0  0.85759  0.32621  0.77930  1.0000
  H   H6618     1.0  0.85322  0.35134  0.77514  1.0000
  C   C3883     1.0  0.78379  0.34747  0.83312  1.0000
  C   C3884     1.0  0.77998  0.33857  0.84545  1.0000
  C   C3885     1.0  0.79003  0.33001  0.85237  1.0000
  C   C3886     1.0  0.80383  0.33051  0.84699  1.0000
  C   C3887     1.0  0.80768  0.33884  0.83432  1.0000
  C   C3888     1.0  0.79768  0.34714  0.82730  1.0000
  H   H6619     1.0  0.76924  0.33869  0.84991  1.0000
  H   H6620     1.0  0.78703  0.32343  0.86208  1.0000
  H   H6621     1.0  0.81839  0.33900  0.82998  1.0000
  H   H6622     1.0  0.80072  0.35344  0.81748  1.0000
  C   C3889     1.0  0.76232  0.39176  0.76159  1.0000
  C   C3890     1.0  0.76003  0.39338  0.74859  1.0000
  N   N276      1.0  0.80827  0.36665  0.74668  1.0000
  H   H6623     1.0  0.80386  0.39889  0.90108  1.0000
  C   C3891     1.0  0.75041  0.37324  0.76979  1.0000
  C   C3892     1.0  0.75772  0.38147  0.77210  1.0000
  H   H6624     1.0  0.96861  0.28075  0.84549  1.0000
  H   H6625     1.0  0.86564  0.24710  0.81203  1.0000
  H   H6626     1.0  0.75941  0.38012  0.78214  1.0000
  H   H6627     1.0  0.60653  0.26578  0.75764  1.0000
  C   C3893     1.0  0.66881  0.27174  0.82797  1.0000
  H   H6628     1.0  0.68567  0.27953  0.82840  1.0000
  H   H6629     1.0  0.66355  0.28143  0.82289  1.0000
  C   C3894     1.0  0.63554  0.25418  0.77498  1.0000
  C   C3895     1.0  0.63597  0.25872  0.76102  1.0000
  C   C3896     1.0  0.63863  0.27158  0.75420  1.0000
  C   C3897     1.0  0.64084  0.27991  0.76137  1.0000
  C   C3898     1.0  0.64052  0.27531  0.77528  1.0000
  C   C3899     1.0  0.63789  0.26249  0.78207  1.0000
  H   H6630     1.0  0.83700  0.30580  0.92790  1.0000
  C   C3900     1.0  0.86613  0.24634  0.85406  1.0000
  H   H6631     1.0  0.61457  0.29449  0.75555  1.0000
  C   C3901     1.0  0.57487  0.31272  0.76554  1.0000
  H   H6632     1.0  0.99215  0.36875  0.86993  1.0000
  H   H6633     1.0  0.88473  0.35754  0.80243  1.0000
  C   C3902     1.0  0.80101  0.36138  0.76101  1.0000
  H   H6634     1.0  0.74654  0.36557  0.77812  1.0000
  H   H6635     1.0  0.73915  0.30529  0.85471  1.0000
  H   H6636     1.0  0.63744  0.25914  0.79286  1.0000
  H   H6637     1.0  0.87573  0.36635  0.82702  1.0000
  C   C3903     1.0  0.74769  0.37511  0.75696  1.0000
  H   H6638     1.0  0.98622  0.27932  0.83666  1.0000
  H   H6639     1.0  0.61325  0.27943  0.74523  1.0000
  H   H6640     1.0  0.85284  0.37084  0.89476  1.0000
  C   C3904     1.0  0.68812  0.25830  0.83796  1.0000
  S   S1144     1.0  0.73729  0.36527  0.75519  1.0000
  H   H6641     1.0  0.77539  0.36306  0.88752  1.0000
  C   C3905     1.0  0.89347  0.24934  0.74827  1.0000
  N   N277      1.0  0.85875  0.30369  0.92565  1.0000
  H   H6642     1.0  0.77160  0.36393  0.85283  1.0000
  H   H6643     1.0  0.59824  0.26112  0.79205  1.0000
  H   H6644     1.0  0.84181  0.34663  0.74531  1.0000
  H   H6645     1.0  0.81455  0.47995  0.85988  1.0000
  C   C3906     1.0  0.58109  0.29908  0.77417  1.0000
  H   H6646     1.0  0.98775  0.38536  0.85977  1.0000
  C   C3907     1.0  0.60821  0.30741  0.76969  1.0000
  H   H6647     1.0  0.74581  0.27522  0.82698  1.0000
  H   H6648     1.0  0.57320  0.29285  0.77748  1.0000
  C   C3908     1.0  0.60394  0.27535  0.75017  1.0000
  S   S1145     1.0  0.70476  0.37725  0.73909  1.0000
  H   H6649     1.0  0.88565  0.39978  0.80736  1.0000
  N   N278      1.0  0.73257  0.28167  0.85226  1.0000
  C   C3909     1.0  0.74595  0.28350  0.85373  1.0000
  C   C3910     1.0  0.73557  0.26814  0.84835  1.0000
  C   C3911     1.0  0.72273  0.28118  0.86595  1.0000
  C   C3912     1.0  0.72711  0.29352  0.84177  1.0000
  C   C3913     1.0  0.74506  0.29563  0.85982  1.0000
  C   C3914     1.0  0.74695  0.26630  0.83550  1.0000
  C   C3915     1.0  0.70843  0.27902  0.86693  1.0000
  C   C3916     1.0  0.71726  0.29120  0.83441  1.0000
  H   H6650     1.0  0.75115  0.27424  0.86007  1.0000
  H   H6651     1.0  0.75332  0.28483  0.84373  1.0000
  H   H6652     1.0  0.72639  0.26598  0.84680  1.0000
  H   H6653     1.0  0.73863  0.25969  0.85680  1.0000
  H   H6654     1.0  0.72732  0.27298  0.87375  1.0000
  H   H6655     1.0  0.72069  0.29080  0.86942  1.0000
  H   H6656     1.0  0.72182  0.30255  0.84637  1.0000
  H   H6657     1.0  0.73579  0.29665  0.83354  1.0000
  C   C3917     1.0  0.70946  0.42775  0.74252  1.0000
  C   C3918     1.0  0.82536  0.27124  0.81211  1.0000
  Fe  Fe572     1.0  0.71427  0.23933  0.85494  1.0000
  H   H6658     1.0  0.81163  0.47155  0.90069  1.0000
  H   H6659     1.0  0.97830  0.29469  0.80702  1.0000
  C   C3919     1.0  0.88741  0.23986  0.74612  1.0000
  H   H6660     1.0  0.70220  0.28811  0.86136  1.0000
  H   H6661     1.0  0.70285  0.27759  0.87775  1.0000
  H   H6662     1.0  0.70880  0.26982  0.86352  1.0000
  H   H6663     1.0  0.70988  0.30096  0.83179  1.0000
  H   H6664     1.0  0.71102  0.28371  0.84032  1.0000
  H   H6665     1.0  0.72295  0.28841  0.82455  1.0000
  H   H6666     1.0  0.82057  0.37731  0.87149  1.0000
  H   H6667     1.0  0.86120  0.38238  0.89713  1.0000
  N   N279      1.0  0.88156  0.30037  0.85035  1.0000
  C   C3920     1.0  0.88895  0.31175  0.84724  1.0000
  C   C3921     1.0  0.87357  0.30342  0.83949  1.0000
  C   C3922     1.0  0.89227  0.28724  0.84974  1.0000
  C   C3923     1.0  0.87245  0.29995  0.86439  1.0000
  C   C3924     1.0  0.89948  0.30976  0.85586  1.0000
  C   C3925     1.0  0.86200  0.31641  0.83912  1.0000
  C   C3926     1.0  0.88812  0.27538  0.84707  1.0000
  C   C3927     1.0  0.86244  0.29034  0.86913  1.0000
  H   H6668     1.0  0.89456  0.31352  0.83641  1.0000
  H   H6669     1.0  0.88158  0.32153  0.84857  1.0000
  H   H6670     1.0  0.86865  0.29505  0.84032  1.0000
  H   H6671     1.0  0.88068  0.30428  0.82926  1.0000
  H   H6672     1.0  0.90141  0.28899  0.84146  1.0000
  H   H6673     1.0  0.89614  0.28334  0.85928  1.0000
  H   H6674     1.0  0.87876  0.29678  0.87216  1.0000
  H   H6675     1.0  0.86639  0.31028  0.86576  1.0000
  H   H6676     1.0  0.89468  0.30894  0.86681  1.0000
  H   H6677     1.0  0.90812  0.30087  0.85434  1.0000
  H   H6678     1.0  0.90414  0.31879  0.85252  1.0000
  H   H6679     1.0  0.86604  0.32575  0.83632  1.0000
  H   H6680     1.0  0.85657  0.31715  0.83113  1.0000
  H   H6681     1.0  0.85420  0.31615  0.84883  1.0000
  H   H6682     1.0  0.88704  0.27745  0.83642  1.0000
  H   H6683     1.0  0.87862  0.27294  0.85412  1.0000
  H   H6684     1.0  0.89639  0.26607  0.84838  1.0000
  H   H6685     1.0  0.86739  0.27992  0.87386  1.0000
  H   H6686     1.0  0.85791  0.28985  0.86101  1.0000
  H   H6687     1.0  0.85349  0.29430  0.87680  1.0000
  C   C3928     1.0  0.75287  0.38497  0.74623  1.0000
  C   C3929     1.0  0.87207  0.29624  0.91811  1.0000
  C   C3930     1.0  0.83994  0.46422  0.89834  1.0000
  H   H6688     1.0  0.61115  0.27477  0.77311  1.0000
  H   H6689     1.0  0.81552  0.26803  0.81667  1.0000
  H   H6690     1.0  0.86656  0.30465  0.94249  1.0000
  H   H6691     1.0  0.79069  0.36809  0.76368  1.0000
  C   C3931     1.0  0.85919  0.29988  0.94054  1.0000
  H   H6692     1.0  0.86551  0.31877  0.89922  1.0000
  H   H6693     1.0  0.76209  0.37150  0.86681  1.0000
  H   H6694     1.0  0.78934  0.40324  0.85694  1.0000
  H   H6695     1.0  0.66990  0.28494  0.76368  1.0000
  C   C3932     1.0  0.80751  0.37703  0.84648  1.0000
  C   C3933     1.0  0.60074  0.28007  0.77771  1.0000
  H   H6696     1.0  0.88270  0.40954  0.79128  1.0000
  C   C3934     1.0  0.87362  0.39192  0.79812  1.0000
  C   C3935     1.0  0.77369  0.25250  0.87167  1.0000
  C   C3936     1.0  0.87517  0.37698  0.82100  1.0000
  H   H6697     1.0  0.88487  0.31106  0.91398  1.0000
  H   H6698     1.0  0.85235  0.38053  0.81114  1.0000
  H   H6699     1.0  0.97128  0.32709  0.82413  1.0000
  H   H6700     1.0  0.85776  0.24442  0.77003  1.0000
  H   H6701     1.0  0.84724  0.30729  0.90229  1.0000
  H   H6702     1.0  0.60239  0.28424  0.78565  1.0000
  H   H6703     1.0  0.84054  0.45787  0.89127  1.0000
  H   H6704     1.0  0.68612  0.30478  0.74266  1.0000
  C   C3937     1.0  0.59223  0.26926  0.78529  1.0000
  H   H6705     1.0  0.84644  0.32403  0.92627  1.0000
  C   C3938     1.0  0.69839  0.43109  0.73415  1.0000
  H   H6706     1.0  0.82518  0.27702  0.80153  1.0000
  H   H6707     1.0  0.60087  0.27262  0.74213  1.0000
  N   N280      1.0  0.71429  0.41293  0.74854  1.0000
  C   C3939     1.0  0.72533  0.41147  0.75590  1.0000
  H   H6708     1.0  0.88595  0.24829  0.78771  1.0000
  C   C3940     1.0  0.70217  0.40773  0.75808  1.0000
  H   H6709     1.0  0.65174  0.33302  0.73209  1.0000
  C   C3941     1.0  0.72102  0.41853  0.76802  1.0000
  C   C3942     1.0  0.97285  0.29996  0.83278  1.0000
  C   C3943     1.0  0.70553  0.39330  0.76690  1.0000
  H   H6710     1.0  0.75726  0.26415  0.83773  1.0000
  H   H6711     1.0  0.72974  0.40058  0.75975  1.0000
  H   H6712     1.0  0.83541  0.26755  0.74706  1.0000
  C   C3944     1.0  0.85695  0.24674  0.86662  1.0000
  H   H6713     1.0  0.82805  0.34322  0.75918  1.0000
  H   H6714     1.0  0.69624  0.41471  0.76505  1.0000
  H   H6715     1.0  0.69475  0.40755  0.75230  1.0000
  C   C3945     1.0  0.90689  0.23966  0.78924  1.0000
  H   H6716     1.0  0.80718  0.35021  0.73840  1.0000
  H   H6717     1.0  0.72980  0.41575  0.77307  1.0000
  H   H6718     1.0  0.71872  0.42976  0.76469  1.0000
  H   H6719     1.0  0.71225  0.41521  0.77580  1.0000
  H   H6720     1.0  0.90880  0.24995  0.78761  1.0000
  H   H6721     1.0  0.82883  0.36766  0.73490  1.0000
  C   C3946     1.0  0.78032  0.38536  0.86712  1.0000
  H   H6722     1.0  0.69580  0.39014  0.77261  1.0000
  H   H6723     1.0  0.71124  0.39289  0.77453  1.0000
  H   H6724     1.0  0.71143  0.38568  0.76072  1.0000
  C   C3947     1.0  0.67388  0.34958  0.73570  1.0000
  C   C3948     1.0  0.80388  0.38200  0.74342  1.0000
  H   H6725     1.0  0.83345  0.26174  0.81183  1.0000
  H   H6726     1.0  0.56464  0.31708  0.77139  1.0000
  H   H6727     1.0  0.61679  0.30070  0.77435  1.0000
  N   N281      1.0  0.81615  0.28836  0.82798  1.0000
  C   C3949     1.0  0.82106  0.29587  0.83537  1.0000
  C   C3950     1.0  0.80702  0.27965  0.83833  1.0000
  C   C3951     1.0  0.80803  0.29815  0.81806  1.0000
  C   C3952     1.0  0.82846  0.27981  0.82026  1.0000
  C   C3953     1.0  0.82946  0.30641  0.82638  1.0000
  H   H6728     1.0  0.67680  0.29401  0.74037  1.0000
  C   C3954     1.0  0.79585  0.30875  0.82408  1.0000
  H   H6729     1.0  0.74068  0.29366  0.87093  1.0000
  H   H6730     1.0  0.81232  0.30126  0.84228  1.0000
  H   H6731     1.0  0.82761  0.28863  0.84210  1.0000
  H   H6732     1.0  0.70480  0.43362  0.75068  1.0000
  H   H6733     1.0  0.79958  0.28553  0.84573  1.0000
  H   H6734     1.0  0.81475  0.30377  0.80950  1.0000
  H   H6735     1.0  0.80376  0.29258  0.81321  1.0000
  H   H6736     1.0  0.83506  0.28627  0.81266  1.0000
  H   H6737     1.0  0.83545  0.27313  0.82694  1.0000
  H   H6738     1.0  0.83907  0.30176  0.81999  1.0000
  H   H6739     1.0  0.82343  0.31484  0.81996  1.0000
  H   H6740     1.0  0.83261  0.31104  0.83299  1.0000
  H   H6741     1.0  0.80793  0.38617  0.73248  1.0000
  C   C3955     1.0  0.78916  0.36092  0.86749  1.0000
  C   C3956     1.0  0.75009  0.25618  0.88415  1.0000
  H   H6742     1.0  0.79930  0.31593  0.82771  1.0000
  H   H6743     1.0  0.80772  0.33906  0.76184  1.0000
  C   C3957     1.0  0.99262  0.34312  0.85054  1.0000
  H   H6744     1.0  0.90357  0.25051  0.74236  1.0000
  H   H6745     1.0  0.80677  0.26188  0.85503  1.0000
  C   C3958     1.0  0.68234  0.24688  0.84154  1.0000
  C   C3959     1.0  0.75221  0.26676  0.88868  1.0000
  H   H6746     1.0  0.68779  0.28403  0.76046  1.0000
  H   H6747     1.0  0.86129  0.38196  0.88027  1.0000
  H   H6748     1.0  0.80441  0.41631  0.89848  1.0000
  H   H6749     1.0  0.57332  0.31144  0.75598  1.0000
  S   S1146     1.0  0.70397  0.25769  0.84134  1.0000
  H   H6750     1.0  0.81461  0.32806  0.79638  1.0000
  H   H6751     1.0  0.61133  0.31696  0.76360  1.0000
  C   C3960     1.0  0.79841  0.34689  0.76450  1.0000
  H   H6752     1.0  0.75337  0.38218  0.84621  1.0000
  C   C3961     1.0  0.82460  0.47923  0.87570  1.0000
  H   H6753     1.0  0.82122  0.37943  0.89997  1.0000
  H   H6754     1.0  0.83447  0.37085  0.88849  1.0000
  H   H6755     1.0  0.58923  0.29432  0.74795  1.0000
  H   H6756     1.0  0.82797  0.34194  0.74220  1.0000
  N   N282      1.0  0.90204  0.38147  0.89386  1.0000
  C   C3962     1.0  0.89397  0.37165  0.90401  1.0000
  C   C3963     1.0  0.89511  0.38729  0.88202  1.0000
  C   C3964     1.0  0.90162  0.39262  0.90063  1.0000
  C   C3965     1.0  0.91653  0.37363  0.88978  1.0000
  C   C3966     1.0  0.89772  0.36615  0.91805  1.0000
  C   C3967     1.0  0.89490  0.37704  0.87402  1.0000
  C   C3968     1.0  0.90364  0.40650  0.89136  1.0000
  C   C3969     1.0  0.92663  0.38143  0.87901  1.0000
  H   H6757     1.0  0.88280  0.37634  0.90584  1.0000
  H   H6758     1.0  0.89510  0.36258  0.89999  1.0000
  H   H6759     1.0  0.89992  0.39521  0.87445  1.0000
  H   H6760     1.0  0.88429  0.39264  0.88553  1.0000
  H   H6761     1.0  0.89151  0.39504  0.90771  1.0000
  H   H6762     1.0  0.90935  0.38919  0.90706  1.0000
  H   H6763     1.0  0.92134  0.36941  0.89871  1.0000
  H   H6764     1.0  0.91682  0.36440  0.88639  1.0000
  H   H6765     1.0  0.90843  0.36018  0.91738  1.0000
  H   H6766     1.0  0.89582  0.37431  0.92363  1.0000
  H   H6767     1.0  0.89104  0.35909  0.92440  1.0000
  H   H6768     1.0  0.88964  0.38265  0.86559  1.0000
  H   H6769     1.0  0.90541  0.37208  0.86928  1.0000
  H   H6770     1.0  0.88908  0.36927  0.88032  1.0000
  H   H6771     1.0  0.89468  0.41185  0.88670  1.0000
  H   H6772     1.0  0.91306  0.40577  0.88324  1.0000
  H   H6773     1.0  0.90437  0.41313  0.89763  1.0000
  H   H6774     1.0  0.93098  0.38707  0.88369  1.0000
  H   H6775     1.0  0.92210  0.38835  0.87061  1.0000
  H   H6776     1.0  0.93520  0.37403  0.87414  1.0000
  N   N283      1.0  0.67511  0.29849  0.77288  1.0000
  H   H6777     1.0  0.84737  0.30202  0.96087  1.0000
  H   H6778     1.0  0.75796  0.39417  0.85222  1.0000
  C   C3970     1.0  0.84687  0.29898  0.92424  1.0000
  C   C3971     1.0  0.66037  0.30631  0.77532  1.0000
  H   H6779     1.0  0.89422  0.29427  0.91247  1.0000
  C   C3972     1.0  0.66948  0.27708  0.79066  1.0000
  C   C3973     1.0  0.68454  0.31626  0.77860  1.0000
  C   C3974     1.0  0.65418  0.31069  0.78914  1.0000
  S   S1147     1.0  0.89515  0.26780  0.76173  1.0000
  H   H6780     1.0  0.83823  0.29736  0.95144  1.0000
  H   H6781     1.0  0.67795  0.29202  0.79377  1.0000
  C   C3975     1.0  0.88687  0.36787  0.80018  1.0000
  H   H6782     1.0  0.81345  0.36662  0.84990  1.0000
  S   S1148     1.0  0.62391  0.32768  0.73372  1.0000
  H   H6783     1.0  0.65894  0.31560  0.76716  1.0000
  H   H6784     1.0  0.65356  0.30020  0.77457  1.0000
  C   C3976     1.0  0.96967  0.32135  0.80664  1.0000
  H   H6785     1.0  0.80684  0.36160  0.76832  1.0000
  Fe  Fe573     1.0  0.63724  0.30675  0.73372  1.0000
  C   C3977     1.0  0.88511  0.30017  0.91854  1.0000
  H   H6786     1.0  0.65845  0.28184  0.79368  1.0000
  C   C3978     1.0  0.88670  0.25700  0.75830  1.0000
  H   H6787     1.0  0.82657  0.36718  0.75246  1.0000
  H   H6788     1.0  0.69275  0.32209  0.77416  1.0000
  H   H6789     1.0  0.68659  0.30991  0.78846  1.0000
  H   H6790     1.0  0.64891  0.32161  0.78731  1.0000
  H   H6791     1.0  0.66153  0.30949  0.79539  1.0000
  H   H6792     1.0  0.64612  0.30506  0.79532  1.0000
  H   H6793     1.0  0.68297  0.31566  0.75921  1.0000
  H   H6794     1.0  0.72675  0.24086  0.80345  1.0000
  C   C3979     1.0  0.76225  0.38511  0.84762  1.0000
  Fe  Fe574     1.0  0.72714  0.36727  0.73794  1.0000
  H   H6795     1.0  0.74019  0.25352  0.88733  1.0000
  H   H6796     1.0  0.89512  0.39388  0.79189  1.0000
  H   H6797     1.0  0.70092  0.24127  0.79539  1.0000
  C   C3980     1.0  0.66992  0.24786  0.83800  1.0000
  H   H6798     1.0  0.87223  0.29762  0.90724  1.0000
  H   H6799     1.0  0.74651  0.25733  0.83209  1.0000
  C   C3981     1.0  0.77989  0.35544  0.88106  1.0000
  H   H6800     1.0  0.85480  0.28922  0.90658  1.0000
  H   H6801     1.0  0.86374  0.32274  0.92493  1.0000
  H   H6802     1.0  0.79034  0.31498  0.81600  1.0000
  C   C3982     1.0  0.76076  0.24918  0.87539  1.0000
  H   H6803     1.0  0.81913  0.38994  0.74814  1.0000
  H   H6804     1.0  0.84639  0.28871  0.93084  1.0000
  C   C3983     1.0  0.82364  0.36300  0.74528  1.0000
  H   H6805     1.0  0.76866  0.38766  0.83730  1.0000
  H   H6806     1.0  0.66682  0.33154  0.74715  1.0000
  H   H6807     1.0  0.78206  0.24704  0.86503  1.0000
  H   H6808     1.0  0.67250  0.27010  0.79993  1.0000
  H   H6809     1.0  0.86858  0.36456  0.78869  1.0000
  H   H6810     1.0  0.96528  0.33218  0.80253  1.0000
  Fe  Fe575     1.0  0.64199  0.24375  0.82500  1.0000
  H   H6811     1.0  0.84808  0.32844  0.90320  1.0000
  Fe  Fe576     1.0  0.70268  0.35833  0.73471  1.0000
  C   C3984     1.0  0.84541  0.30377  0.95059  1.0000
  H   H6812     1.0  0.87371  0.39211  0.78745  1.0000
  H   H6813     1.0  0.69569  0.30208  0.76573  1.0000
  H   H6814     1.0  0.79249  0.38535  0.74510  1.0000
  H   H6815     1.0  0.88904  0.37112  0.78889  1.0000
  H   H6816     1.0  0.84486  0.38290  0.86710  1.0000
  N   N284      1.0  0.83180  0.39281  0.88339  1.0000
  C   C3985     1.0  0.84157  0.39237  0.89185  1.0000
  C   C3986     1.0  0.82060  0.40552  0.88449  1.0000
  C   C3987     1.0  0.83979  0.39334  0.86882  1.0000
  C   C3988     1.0  0.82614  0.38017  0.88899  1.0000
  C   C3989     1.0  0.85491  0.38117  0.89074  1.0000
  C   C3990     1.0  0.81089  0.40587  0.89860  1.0000
  C   C3991     1.0  0.83195  0.40085  0.85742  1.0000
  C   C3992     1.0  0.81565  0.37882  0.88194  1.0000
  H   H6817     1.0  0.84476  0.40224  0.88909  1.0000
  H   H6818     1.0  0.83661  0.39084  0.90285  1.0000
  H   H6819     1.0  0.81370  0.40735  0.87753  1.0000
  H   H6820     1.0  0.82519  0.41462  0.88128  1.0000
  H   H6821     1.0  0.84833  0.39864  0.86658  1.0000
  C   C3993     1.0  0.60462  0.30040  0.76039  1.0000
  H   H6822     1.0  0.59946  0.31050  0.77787  1.0000
  H   H6823     1.0  0.80212  0.40022  0.75051  1.0000
  C   C3994     1.0  0.77948  0.40017  0.85881  1.0000
  H   H6824     1.0  0.83673  0.29542  0.91058  1.0000
  N   N285      1.0  0.78296  0.37442  0.85929  1.0000
  H   H6825     1.0  0.87335  0.28506  0.92215  1.0000
  C   C3995     1.0  0.86177  0.37322  0.80726  1.0000
  H   H6826     1.0  0.85060  0.36766  0.79570  1.0000
  H   H6827     1.0  0.90001  0.35897  0.81506  1.0000
  H   H6828     1.0  0.82470  0.46821  0.87933  1.0000
  H   H6829     1.0  0.83100  0.25684  0.73868  1.0000
  H   H6830     1.0  0.77068  0.38519  0.87512  1.0000
  H   H6831     1.0  0.96528  0.30650  0.83946  1.0000
  H   H6832     1.0  0.82010  0.25887  0.84051  1.0000
  H   H6833     1.0  0.88464  0.37960  0.82135  1.0000
  H   H6834     1.0  0.79408  0.36875  0.84028  1.0000
  C   C3996     1.0  0.59197  0.28588  0.75654  1.0000
  H   H6835     1.0  0.86297  0.28870  0.94382  1.0000
  N   N286      1.0  0.59460  0.29134  0.76723  1.0000
  H   H6836     1.0  0.78925  0.38646  0.83902  1.0000
  C   C3997     1.0  0.85989  0.37177  0.79367  1.0000
  H   H6837     1.0  0.85807  0.38172  0.78650  1.0000
  H   H6838     1.0  0.80731  0.38373  0.85306  1.0000
  H   H6839     1.0  0.58294  0.28110  0.76062  1.0000
  C   C3998     1.0  0.81447  0.26655  0.84675  1.0000
  C   C3999     1.0  0.83048  0.34776  0.74815  1.0000
  H   H6840     1.0  0.97952  0.28719  0.85127  1.0000
  H   H6841     1.0  0.81314  0.38105  0.83610  1.0000
  H   H6842     1.0  0.58184  0.30110  0.78377  1.0000
  N   N287      1.0  0.87459  0.37765  0.80661  1.0000
  H   H6843     1.0  0.78865  0.38325  0.87262  1.0000
  H   H6844     1.0  0.84999  0.46100  0.90131  1.0000
  H   H6845     1.0  0.84029  0.31460  0.94785  1.0000
  H   H6846     1.0  0.79862  0.36144  0.87009  1.0000
  H   H6847     1.0  0.77165  0.35171  0.87938  1.0000
  H   H6848     1.0  0.85324  0.38341  0.83082  1.0000
  C   C4000     1.0  0.84667  0.29779  0.90999  1.0000
  H   H6849     1.0  0.96080  0.31650  0.81143  1.0000
  C   C4001     1.0  0.67850  0.28769  0.78510  1.0000
  C   C4002     1.0  0.86318  0.38628  0.82895  1.0000
  H   H6850     1.0  0.85756  0.23785  0.87483  1.0000
  S   S1149     1.0  0.71668  0.23992  0.87536  1.0000
  H   H6851     1.0  0.67089  0.27061  0.78340  1.0000
  C   C4003     1.0  0.81185  0.48254  0.89831  1.0000
  C   C4004     1.0  0.68491  0.30790  0.76849  1.0000
  H   H6852     1.0  0.86237  0.33457  0.90359  1.0000
  H   H6853     1.0  0.86520  0.38522  0.83908  1.0000
  H   H6854     1.0  0.68938  0.28201  0.78270  1.0000
  C   C4005     1.0  0.85678  0.31895  0.92125  1.0000
  H   H6855     1.0  0.59006  0.26428  0.77834  1.0000
  H   H6856     1.0  0.86366  0.39865  0.80186  1.0000
  C   C4006     1.0  0.85823  0.32530  0.90594  1.0000
  C   C4007     1.0  0.88503  0.39897  0.79727  1.0000
  H   H6857     1.0  0.58248  0.27359  0.79185  1.0000
  C   C4008     1.0  0.86773  0.24579  0.76389  1.0000
  H   H6858     1.0  0.96668  0.29841  0.82654  1.0000
  C   C4009     1.0  0.80478  0.36148  0.73631  1.0000
  C   C4010     1.0  0.67694  0.30034  0.74723  1.0000
  H   H6859     1.0  0.78230  0.36601  0.74500  1.0000
  C   C4011     1.0  0.78964  0.36640  0.73500  1.0000
  H   H6860     1.0  0.67478  0.32398  0.78006  1.0000
  H   H6861     1.0  0.87384  0.23715  0.85266  1.0000
  H   H6862     1.0  0.88867  0.24438  0.80439  1.0000
  H   H6863     1.0  0.99099  0.27992  0.81244  1.0000
  H   H6864     1.0  0.75116  0.38624  0.73622  1.0000
  H   H6865     1.0  0.80454  0.47990  0.92022  1.0000
  H   H6866     1.0  0.86748  0.23778  0.79237  1.0000
  H   H6867     1.0  0.68793  0.43266  0.74079  1.0000
  S   S1150     1.0  0.63151  0.23843  0.78361  1.0000
  H   H6868     1.0  0.80267  0.48414  0.87483  1.0000
  C   C4012     1.0  0.98919  0.29092  0.80757  1.0000
  H   H6869     1.0  0.80604  0.38490  0.76273  1.0000
  H   H6870     1.0  0.84001  0.24948  0.75205  1.0000
  H   H6871     1.0  0.84624  0.48110  0.88292  1.0000
  C   C4013     1.0  0.89139  0.24030  0.79502  1.0000
  H   H6872     1.0  0.73413  0.41557  0.74887  1.0000
  H   H6873     1.0  0.66550  0.23905  0.84066  1.0000
  C   C4014     1.0  0.97810  0.32083  0.81678  1.0000
  H   H6874     1.0  0.83427  0.47990  0.86787  1.0000
  H   H6875     1.0  0.85305  0.23738  0.81587  1.0000
  H   H6876     1.0  0.98403  0.31571  0.84092  1.0000
  C   C4015     1.0  0.72026  0.40470  0.73765  1.0000
  H   H6877     1.0  0.85616  0.27958  0.73889  1.0000
  H   H6878     1.0  0.91049  0.23690  0.77916  1.0000
  C   C4016     1.0  0.87463  0.23785  0.75417  1.0000
  H   H6879     1.0  0.68304  0.24156  0.80003  1.0000
  H   H6880     1.0  0.71209  0.40303  0.73379  1.0000
  H   H6881     1.0  0.84348  0.29462  0.73615  1.0000
  H   H6882     1.0  0.71140  0.24072  0.81607  1.0000
  H   H6883     1.0  0.83856  0.48460  0.89913  1.0000
  H   H6884     1.0  0.68747  0.23731  0.84691  1.0000
  C   C4017     1.0  0.85188  0.28744  0.73078  1.0000
  C   C4018     1.0  0.99390  0.34767  0.83650  1.0000
  S   S1151     1.0  0.75840  0.23677  0.86819  1.0000
  Fe  Fe577     1.0  0.91873  0.64992  0.16319  1.0000
  S   S1152     1.0  0.93342  0.62981  0.16721  1.0000
  S   S1153     1.0  0.90274  0.65775  0.18039  1.0000
  Fe  Fe578     1.0  0.92314  0.64980  0.13325  1.0000
  S   S1154     1.0  0.93801  0.62952  0.13497  1.0000
  S   S1155     1.0  0.91342  0.66238  0.11574  1.0000
  Fe  Fe579     1.0  0.92335  0.62332  0.15456  1.0000
  S   S1156     1.0  0.91467  0.60463  0.16421  1.0000
  Fe  Fe580     1.0  0.94709  0.63779  0.14747  1.0000
  S   S1157     1.0  0.90794  0.64284  0.15175  1.0000
  S   S1158     1.0  0.93299  0.65870  0.14436  1.0000
  Fe  Fe581     1.0  0.88311  0.56303  0.13545  1.0000
  S   S1159     1.0  0.86208  0.57620  0.13508  1.0000
  S   S1160     1.0  0.90109  0.57327  0.12787  1.0000
  Fe  Fe582     1.0  0.87298  0.53652  0.14119  1.0000
  S   S1161     1.0  0.85117  0.54785  0.14144  1.0000
  S   S1162     1.0  0.88074  0.51389  0.14144  1.0000
  Fe  Fe583     1.0  0.86012  0.56228  0.12325  1.0000
  S   S1163     1.0  0.85365  0.56882  0.10333  1.0000
  Fe  Fe584     1.0  0.85525  0.56061  0.15342  1.0000
  S   S1164     1.0  0.83919  0.56686  0.17153  1.0000
  S   S1165     1.0  0.88166  0.55030  0.12217  1.0000
  S   S1166     1.0  0.87656  0.54814  0.15467  1.0000
  Fe  Fe585     1.0  0.86459  0.66558  0.05308  1.0000
  S   S1167     1.0  0.88529  0.65358  0.04451  1.0000
  S   S1168     1.0  0.85911  0.68803  0.04447  1.0000
  Fe  Fe586     1.0  0.85508  0.64048  0.07055  1.0000
  S   S1169     1.0  0.87467  0.62652  0.06281  1.0000
  S   S1170     1.0  0.83935  0.63286  0.08847  1.0000
  Fe  Fe587     1.0  0.88470  0.64146  0.06585  1.0000
  S   S1171     1.0  0.90183  0.63172  0.07717  1.0000
  Fe  Fe588     1.0  0.87337  0.63983  0.04217  1.0000
  S   S1172     1.0  0.88117  0.63287  0.02207  1.0000
  S   S1173     1.0  0.86512  0.65481  0.07457  1.0000
  S   S1174     1.0  0.85265  0.65247  0.04972  1.0000
  C   C4019     1.0  0.82928  0.70163  0.17913  1.0000
  C   C4020     1.0  0.91205  0.71822  0.22588  1.0000
  N   N288      1.0  0.88127  0.61909  0.19793  1.0000
  C   C4021     1.0  0.95738  0.59382  0.18045  1.0000
  H   H6885     1.0  0.81438  0.70906  0.22831  1.0000
  S   S1175     1.0  0.81323  0.71547  0.11840  1.0000
  H   H6886     1.0  0.88394  0.67013  0.01709  1.0000
  H   H6887     1.0  0.84641  0.67514  0.99373  1.0000
  S   S1176     1.0  0.82384  0.71724  0.14431  1.0000
  Fe  Fe589     1.0  0.82829  0.70251  0.13093  1.0000
  S   S1177     1.0  0.83043  0.68019  0.13994  1.0000
  S   S1178     1.0  0.84655  0.70980  0.11671  1.0000
  H   H6888     1.0  0.91577  0.60254  0.05071  1.0000
  H   H6889     1.0  0.81138  0.64104  0.15943  1.0000
  H   H6890     1.0  0.88332  0.71065  0.12500  1.0000
  H   H6891     1.0  0.98953  0.58059  0.15117  1.0000
  C   C4022     1.0  0.97800  0.64970  0.15428  1.0000
  H   H6892     1.0  0.91286  0.56578  0.08836  1.0000
  H   H6893     1.0  0.88920  0.68270  0.00201  1.0000
  H   H6894     1.0  0.88378  0.62336  0.10499  1.0000
  H   H6895     1.0  0.97231  0.60100  0.15417  1.0000
  H   H6896     1.0  0.90269  0.61084  0.06267  1.0000
  C   C4023     1.0  0.83271  0.59538  0.19339  1.0000
  H   H6897     1.0  0.89664  0.56663  0.07429  1.0000
  H   H6898     1.0  0.88470  0.69045  0.20962  1.0000
  C   C4024     1.0  0.84125  0.69200  0.20435  1.0000
  C   C4025     1.0  0.94936  0.58518  0.15038  1.0000
  S   S1179     1.0  0.97052  0.63120  0.14458  1.0000
  H   H6899     1.0  0.81528  0.63090  0.12523  1.0000
  H   H6900     1.0  0.89392  0.55547  0.09058  1.0000
  H   H6901     1.0  0.86928  0.60091  0.10097  1.0000
  C   C4026     1.0  0.82006  0.67781  0.15636  1.0000
  C   C4027     1.0  0.80944  0.68836  0.16070  1.0000
  C   C4028     1.0  0.80201  0.68661  0.17424  1.0000
  C   C4029     1.0  0.80504  0.67423  0.18334  1.0000
  C   C4030     1.0  0.81508  0.66346  0.17875  1.0000
  C   C4031     1.0  0.82273  0.66532  0.16537  1.0000
  H   H6902     1.0  0.80695  0.69788  0.15366  1.0000
  H   H6903     1.0  0.79408  0.69491  0.17768  1.0000
  H   H6904     1.0  0.81704  0.65368  0.18551  1.0000
  H   H6905     1.0  0.83091  0.65718  0.16212  1.0000
  H   H6906     1.0  0.88974  0.59994  0.21034  1.0000
  H   H6907     1.0  0.98293  0.58153  0.16874  1.0000
  C   C4032     1.0  0.94131  0.57391  0.15770  1.0000
  C   C4033     1.0  0.84174  0.67609  0.01945  1.0000
  H   H6908     1.0  0.82574  0.68252  0.19247  1.0000
  C   C4034     1.0  0.87095  0.63276  0.01116  1.0000
  H   H6909     1.0  0.92745  0.72405  0.19558  1.0000
  S   S1180     1.0  0.86082  0.71220  0.21210  1.0000
  Fe  Fe590     1.0  0.80791  0.65286  0.21195  1.0000
  C   C4035     1.0  0.84905  0.63380  0.00646  1.0000
  C   C4036     1.0  0.85677  0.63391  0.01551  1.0000
  H   H6910     1.0  0.80534  0.59735  0.15452  1.0000
  C   C4037     1.0  0.97140  0.59901  0.13465  1.0000
  H   H6911     1.0  0.83811  0.63450  0.00996  1.0000
  H   H6912     1.0  0.85176  0.63470  0.02589  1.0000
  C   C4038     1.0  0.85188  0.69924  0.05570  1.0000
  C   C4039     1.0  0.84790  0.71310  0.05014  1.0000
  C   C4040     1.0  0.84214  0.72247  0.05857  1.0000
  C   C4041     1.0  0.84034  0.71812  0.07267  1.0000
  C   C4042     1.0  0.84429  0.70424  0.07836  1.0000
  C   C4043     1.0  0.85004  0.69478  0.06985  1.0000
  H   H6913     1.0  0.84932  0.71661  0.03924  1.0000
  C   C4044     1.0  0.89868  0.62806  0.20448  1.0000
  H   H6914     1.0  0.84289  0.70082  0.08926  1.0000
  H   H6915     1.0  0.85308  0.68410  0.07423  1.0000
  C   C4045     1.0  0.87036  0.50416  0.13929  1.0000
  C   C4046     1.0  0.86058  0.73258  0.16086  1.0000
  Fe  Fe591     1.0  0.82782  0.62639  0.20731  1.0000
  H   H6916     1.0  0.82237  0.67575  0.21634  1.0000
  C   C4047     1.0  0.84805  0.50081  0.13966  1.0000
  C   C4048     1.0  0.85605  0.50825  0.14224  1.0000
  H   H6917     1.0  0.94175  0.59483  0.14783  1.0000
  H   H6918     1.0  0.83699  0.50421  0.14177  1.0000
  H   H6919     1.0  0.85114  0.51719  0.14646  1.0000
  C   C4049     1.0  0.84883  0.58657  0.09905  1.0000
  C   C4050     1.0  0.84259  0.59397  0.10924  1.0000
  C   C4051     1.0  0.83939  0.60822  0.10587  1.0000
  C   C4052     1.0  0.84265  0.61507  0.09234  1.0000
  C   C4053     1.0  0.84880  0.60767  0.08211  1.0000
  C   C4054     1.0  0.85175  0.59340  0.08546  1.0000
  H   H6920     1.0  0.84019  0.58867  0.11970  1.0000
  H   H6921     1.0  0.83467  0.61395  0.11373  1.0000
  H   H6922     1.0  0.85109  0.61293  0.07161  1.0000
  H   H6923     1.0  0.85653  0.58769  0.07754  1.0000
  C   C4055     1.0  0.84120  0.58015  0.17749  1.0000
  C   C4056     1.0  0.85149  0.58727  0.17048  1.0000
  C   C4057     1.0  0.85220  0.59857  0.17472  1.0000
  S   S1181     1.0  0.85712  0.72997  0.13685  1.0000
  H   H6924     1.0  0.90089  0.73309  0.21197  1.0000
  H   H6925     1.0  0.93106  0.58924  0.09446  1.0000
  H   H6926     1.0  0.85880  0.58416  0.16168  1.0000
  H   H6927     1.0  0.86006  0.60414  0.16908  1.0000
  H   H6928     1.0  0.84076  0.50119  0.09390  1.0000
  H   H6929     1.0  0.83171  0.71116  0.22091  1.0000
  H   H6930     1.0  0.96749  0.65543  0.15507  1.0000
  C   C4058     1.0  0.91040  0.65378  0.10498  1.0000
  C   C4059     1.0  0.91546  0.63976  0.10607  1.0000
  C   C4060     1.0  0.91276  0.63313  0.09747  1.0000
  C   C4061     1.0  0.90485  0.64041  0.08785  1.0000
  C   C4062     1.0  0.89959  0.65438  0.08690  1.0000
  C   C4063     1.0  0.90247  0.66106  0.09536  1.0000
  H   H6931     1.0  0.92152  0.63405  0.11347  1.0000
  H   H6932     1.0  0.91682  0.62231  0.09828  1.0000
  H   H6933     1.0  0.89353  0.66009  0.07947  1.0000
  H   H6934     1.0  0.89853  0.67190  0.09445  1.0000
  C   C4064     1.0  0.90979  0.59710  0.15378  1.0000
  C   C4065     1.0  0.91508  0.59944  0.13975  1.0000
  C   C4066     1.0  0.91213  0.59224  0.13185  1.0000
  C   C4067     1.0  0.90363  0.58292  0.13788  1.0000
  C   C4068     1.0  0.89789  0.58102  0.15181  1.0000
  C   C4069     1.0  0.90112  0.58796  0.15977  1.0000
  H   H6935     1.0  0.92174  0.60651  0.13504  1.0000
  H   H6936     1.0  0.91657  0.59378  0.12106  1.0000
  H   H6937     1.0  0.89135  0.57383  0.15653  1.0000
  H   H6938     1.0  0.89703  0.58606  0.17063  1.0000
  C   C4070     1.0  0.90309  0.67212  0.18562  1.0000
  C   C4071     1.0  0.91267  0.68010  0.17863  1.0000
  C   C4072     1.0  0.91205  0.69196  0.18279  1.0000
  C   C4073     1.0  0.90181  0.69586  0.19384  1.0000
  C   C4074     1.0  0.89236  0.68775  0.20086  1.0000
  C   C4075     1.0  0.89300  0.67593  0.19676  1.0000
  H   H6939     1.0  0.92047  0.67720  0.17001  1.0000
  H   H6940     1.0  0.91941  0.69818  0.17737  1.0000
  H   H6941     1.0  0.88854  0.60676  0.08327  1.0000
  H   H6942     1.0  0.88564  0.66972  0.20226  1.0000
  C   C4076     1.0  0.86196  0.69065  0.99590  1.0000
  H   H6943     1.0  0.96265  0.60229  0.17526  1.0000
  H   H6944     1.0  0.87956  0.61527  0.16630  1.0000
  C   C4077     1.0  0.87656  0.49222  0.13427  1.0000
  H   H6945     1.0  0.93156  0.58472  0.07911  1.0000
  H   H6946     1.0  0.88047  0.65740  0.00091  1.0000
  H   H6947     1.0  0.82899  0.58604  0.14720  1.0000
  H   H6948     1.0  0.88230  0.59445  0.07959  1.0000
  H   H6949     1.0  0.89058  0.63679  0.20757  1.0000
  N   N289      1.0  0.86405  0.67541  0.00080  1.0000
  H   H6950     1.0  0.92239  0.71506  0.21958  1.0000
  C   C4078     1.0  0.85750  0.67122  0.01562  1.0000
  C   C4079     1.0  0.87912  0.66864  0.99834  1.0000
  H   H6951     1.0  0.84050  0.70023  0.17755  1.0000
  C   C4080     1.0  0.80346  0.69021  0.22166  1.0000
  C   C4081     1.0  0.98198  0.63748  0.14981  1.0000
  C   C4082     1.0  0.88791  0.67209  0.00596  1.0000
  H   H6952     1.0  0.89723  0.62578  0.13142  1.0000
  S   S1182     1.0  0.84519  0.63260  0.98202  1.0000
  C   C4083     1.0  0.85738  0.65649  0.12360  1.0000
  H   H6953     1.0  0.86169  0.67469  0.02232  1.0000
  H   H6954     1.0  0.85993  0.65993  0.01892  1.0000
  H   H6955     1.0  0.89835  0.66542  0.00418  1.0000
  H   H6956     1.0  0.79842  0.69726  0.21362  1.0000
  N   N290      1.0  0.82597  0.69559  0.20522  1.0000
  C   C4084     1.0  0.85118  0.73321  0.15330  1.0000
  H   H6957     1.0  0.93607  0.57239  0.15053  1.0000
  H   H6958     1.0  0.85770  0.67792  0.11590  1.0000
  H   H6959     1.0  0.83915  0.73316  0.05412  1.0000
  H   H6960     1.0  0.82727  0.62313  0.13573  1.0000
  H   H6961     1.0  0.86676  0.70785  0.00003  1.0000
  H   H6962     1.0  0.97780  0.60672  0.13045  1.0000
  S   S1183     1.0  0.82870  0.61928  0.22929  1.0000
  Fe  Fe592     1.0  0.85125  0.73441  0.20862  1.0000
  H   H6963     1.0  0.85812  0.61037  0.21597  1.0000
  H   H6964     1.0  0.87895  0.64650  0.13255  1.0000
  H   H6965     1.0  0.86895  0.69331  0.01334  1.0000
  H   H6966     1.0  0.90834  0.63172  0.19985  1.0000
  C   C4085     1.0  0.87262  0.62644  0.10539  1.0000
  H   H6967     1.0  0.88150  0.62196  0.14187  1.0000
  C   C4086     1.0  0.84902  0.67802  0.20100  1.0000
  C   C4087     1.0  0.86251  0.69883  0.00591  1.0000
  C   C4088     1.0  0.86963  0.63129  0.20001  1.0000
  C   C4089     1.0  0.87729  0.63168  0.99765  1.0000
  H   H6968     1.0  0.83834  0.67509  0.03063  1.0000
  H   H6969     1.0  0.84634  0.69985  0.19678  1.0000
  H   H6970     1.0  0.86108  0.65062  0.18778  1.0000
  H   H6971     1.0  0.87853  0.64445  0.18034  1.0000
  H   H6972     1.0  0.85617  0.64411  0.10586  1.0000
  C   C4090     1.0  0.87120  0.64507  0.19016  1.0000
  H   H6973     1.0  0.94809  0.56403  0.16114  1.0000
  H   H6974     1.0  0.85994  0.67636  0.20138  1.0000
  H   H6975     1.0  0.87148  0.73023  0.15650  1.0000
  H   H6976     1.0  0.97807  0.58895  0.13334  1.0000
  H   H6977     1.0  0.84894  0.67748  0.19064  1.0000
  H   H6978     1.0  0.96350  0.60182  0.12852  1.0000
  H   H6979     1.0  0.86215  0.66875  0.10276  1.0000
  C   C4091     1.0  0.86649  0.64071  0.10843  1.0000
  C   C4092     1.0  0.85539  0.63276  0.99293  1.0000
  S   S1184     1.0  0.83076  0.64704  0.20617  1.0000
  C   C4093     1.0  0.85286  0.63456  0.14737  1.0000
  H   H6980     1.0  0.82441  0.63486  0.16912  1.0000
  C   C4094     1.0  0.82117  0.71388  0.21921  1.0000
  H   H6981     1.0  0.87439  0.66700  0.11285  1.0000
  H   H6982     1.0  0.82661  0.71683  0.19755  1.0000
  C   C4095     1.0  0.98771  0.65468  0.15749  1.0000
  H   H6983     1.0  0.88417  0.67128  0.98743  1.0000
  H   H6984     1.0  0.87722  0.58340  0.10462  1.0000
  H   H6985     1.0  0.90631  0.59026  0.10233  1.0000
  H   H6986     1.0  0.95517  0.58250  0.14047  1.0000
  H   H6987     1.0  0.85986  0.62926  0.19958  1.0000
  N   N291      1.0  0.84771  0.52778  0.10335  1.0000
  C   C4096     1.0  0.86223  0.52084  0.10479  1.0000
  C   C4097     1.0  0.84064  0.51688  0.10379  1.0000
  C   C4098     1.0  0.84060  0.53471  0.11515  1.0000
  C   C4099     1.0  0.84857  0.53805  0.09006  1.0000
  C   C4100     1.0  0.87054  0.52953  0.10748  1.0000
  C   C4101     1.0  0.84737  0.50823  0.09293  1.0000
  C   C4102     1.0  0.82481  0.53722  0.11937  1.0000
  C   C4103     1.0  0.83495  0.54598  0.08592  1.0000
  H   H6988     1.0  0.86229  0.51168  0.11320  1.0000
  H   H6989     1.0  0.86842  0.51702  0.09553  1.0000
  H   H6990     1.0  0.82981  0.52105  0.10296  1.0000
  H   H6991     1.0  0.84002  0.50971  0.11387  1.0000
  H   H6992     1.0  0.84412  0.52860  0.12449  1.0000
  H   H6993     1.0  0.84339  0.54465  0.11326  1.0000
  H   H6994     1.0  0.85363  0.54600  0.09024  1.0000
  H   H6995     1.0  0.85546  0.53349  0.08146  1.0000
  H   H6996     1.0  0.87176  0.53865  0.09927  1.0000
  H   H6997     1.0  0.86601  0.53261  0.11737  1.0000
  H   H6998     1.0  0.88101  0.52329  0.10814  1.0000
  H   H6999     1.0  0.85168  0.69494  0.99336  1.0000
  S   S1185     1.0  0.83300  0.73046  0.08265  1.0000
  H   H7000     1.0  0.99019  0.56547  0.16410  1.0000
  H   H7001     1.0  0.81971  0.54283  0.11091  1.0000
  H   H7002     1.0  0.82112  0.54344  0.12725  1.0000
  H   H7003     1.0  0.82141  0.52751  0.12409  1.0000
  H   H7004     1.0  0.83051  0.55502  0.09059  1.0000
  H   H7005     1.0  0.82727  0.53976  0.08833  1.0000
  H   H7006     1.0  0.83695  0.54951  0.07470  1.0000
  H   H7007     1.0  0.92711  0.57349  0.09549  1.0000
  H   H7008     1.0  0.84371  0.64301  0.14843  1.0000
  H   H7009     1.0  0.89911  0.57054  0.10171  1.0000
  H   H7010     1.0  0.88227  0.57150  0.08766  1.0000
  H   H7011     1.0  0.97217  0.56889  0.15156  1.0000
  H   H7012     1.0  0.88861  0.60352  0.18606  1.0000
  H   H7013     1.0  0.88861  0.62618  0.16862  1.0000
  H   H7014     1.0  0.90162  0.58684  0.06402  1.0000
  H   H7015     1.0  0.93469  0.73258  0.20953  1.0000
  H   H7016     1.0  0.83816  0.68689  0.01474  1.0000
  C   C4104     1.0  0.85745  0.67001  0.99288  1.0000
  H   H7017     1.0  0.92006  0.60475  0.06513  1.0000
  H   H7018     1.0  0.91827  0.58066  0.06732  1.0000
  H   H7019     1.0  0.82750  0.69806  0.17088  1.0000
  C   C4105     1.0  0.82278  0.69347  0.19291  1.0000
  H   H7020     1.0  0.80745  0.63305  0.17730  1.0000
  H   H7021     1.0  0.88396  0.59580  0.10824  1.0000
  N   N292      1.0  0.88206  0.68669  0.14625  1.0000
  C   C4106     1.0  0.87930  0.68998  0.13219  1.0000
  C   C4107     1.0  0.87685  0.67401  0.15398  1.0000
  C   C4108     1.0  0.89737  0.68314  0.14547  1.0000
  C   C4109     1.0  0.87458  0.69837  0.15316  1.0000
  C   C4110     1.0  0.88604  0.70094  0.12159  1.0000
  C   C4111     1.0  0.86135  0.67499  0.15594  1.0000
  C   C4112     1.0  0.90419  0.69486  0.14430  1.0000
  C   C4113     1.0  0.87515  0.69566  0.16824  1.0000
  H   H7022     1.0  0.88274  0.68070  0.12780  1.0000
  H   H7023     1.0  0.86811  0.69358  0.13258  1.0000
  H   H7024     1.0  0.87918  0.67051  0.16428  1.0000
  H   H7025     1.0  0.88245  0.66542  0.14880  1.0000
  H   H7026     1.0  0.90004  0.67552  0.15460  1.0000
  H   H7027     1.0  0.90300  0.67795  0.13692  1.0000
  H   H7028     1.0  0.87847  0.70769  0.14772  1.0000
  H   H7029     1.0  0.86358  0.70128  0.15259  1.0000
  H   H7030     1.0  0.85891  0.66509  0.16187  1.0000
  H   H7031     1.0  0.85489  0.68276  0.16178  1.0000
  H   H7032     1.0  0.85831  0.67696  0.14616  1.0000
  H   H7033     1.0  0.91551  0.69105  0.14220  1.0000
  H   H7034     1.0  0.90126  0.69836  0.15399  1.0000
  H   H7035     1.0  0.90185  0.70369  0.13604  1.0000
  H   H7036     1.0  0.87656  0.70489  0.17044  1.0000
  H   H7037     1.0  0.88373  0.68727  0.17102  1.0000
  H   H7038     1.0  0.86531  0.69364  0.17496  1.0000
  H   H7039     1.0  0.88221  0.70315  0.11217  1.0000
  H   H7040     1.0  0.84342  0.69197  0.21414  1.0000
  C   C4114     1.0  0.86774  0.60249  0.21634  1.0000
  H   H7041     1.0  0.82901  0.61788  0.15668  1.0000
  N   N293      1.0  0.80837  0.61506  0.15923  1.0000
  C   C4115     1.0  0.79554  0.61583  0.17046  1.0000
  C   C4116     1.0  0.81901  0.61863  0.16403  1.0000
  C   C4117     1.0  0.81319  0.60051  0.15754  1.0000
  C   C4118     1.0  0.80499  0.62465  0.14636  1.0000
  C   C4119     1.0  0.78360  0.61113  0.16844  1.0000
  C   C4120     1.0  0.81515  0.63276  0.16756  1.0000
  H   H7042     1.0  0.80989  0.71409  0.20471  1.0000
  H   H7043     1.0  0.86823  0.59485  0.21061  1.0000
  H   H7044     1.0  0.79794  0.60970  0.18038  1.0000
  H   H7045     1.0  0.79122  0.62645  0.17191  1.0000
  H   H7046     1.0  0.90059  0.62008  0.21360  1.0000
  H   H7047     1.0  0.82126  0.61109  0.17329  1.0000
  H   H7048     1.0  0.81475  0.59349  0.16739  1.0000
  H   H7049     1.0  0.81713  0.64021  0.13603  1.0000
  H   H7050     1.0  0.79998  0.61991  0.14135  1.0000
  H   H7051     1.0  0.79735  0.63397  0.14886  1.0000
  H   H7052     1.0  0.77424  0.61408  0.17622  1.0000
  H   H7053     1.0  0.78114  0.61594  0.15835  1.0000
  H   H7054     1.0  0.78573  0.59989  0.17003  1.0000
  H   H7055     1.0  0.85759  0.65905  0.99717  1.0000
  H   H7056     1.0  0.86321  0.73463  0.17984  1.0000
  Fe  Fe593     1.0  0.84102  0.72555  0.12926  1.0000
  H   H7057     1.0  0.83659  0.66965  0.01664  1.0000
  H   H7058     1.0  0.87395  0.65165  0.19519  1.0000
  Fe  Fe594     1.0  0.81053  0.73119  0.13032  1.0000
  H   H7059     1.0  0.88094  0.61303  0.21951  1.0000
  C   C4121     1.0  0.82641  0.59715  0.14680  1.0000
  H   H7060     1.0  0.91023  0.60273  0.08776  1.0000
  H   H7061     1.0  0.84760  0.63325  0.12941  1.0000
  H   H7062     1.0  0.96600  0.56695  0.16931  1.0000
  H   H7063     1.0  0.86719  0.59707  0.22711  1.0000
  H   H7064     1.0  0.82315  0.68630  0.22655  1.0000
  H   H7065     1.0  0.81155  0.69630  0.19348  1.0000
  C   C4122     1.0  0.84267  0.60280  0.18601  1.0000
  H   H7066     1.0  0.84497  0.66956  0.20853  1.0000
  H   H7067     1.0  0.83541  0.59941  0.14866  1.0000
  H   H7068     1.0  0.90344  0.61317  0.19230  1.0000
  C   C4123     1.0  0.86343  0.66805  0.11310  1.0000
  H   H7069     1.0  0.81757  0.72505  0.21833  1.0000
  N   N294      1.0  0.95882  0.58717  0.15792  1.0000
  H   H7070     1.0  0.85745  0.50168  0.09454  1.0000
  H   H7071     1.0  0.89734  0.69730  0.11872  1.0000
  C   C4124     1.0  0.85716  0.63247  0.13267  1.0000
  S   S1186     1.0  0.90080  0.71089  0.19878  1.0000
  H   H7072     1.0  0.82399  0.57858  0.19456  1.0000
  H   H7073     1.0  0.88757  0.61823  0.12520  1.0000
  H   H7074     1.0  0.88647  0.64409  0.11589  1.0000
  C   C4125     1.0  0.88664  0.62568  0.13124  1.0000
  H   H7075     1.0  0.82487  0.60218  0.13643  1.0000
  S   S1187     1.0  0.84281  0.61811  0.18969  1.0000
  H   H7076     1.0  0.86278  0.62172  0.13306  1.0000
  H   H7077     1.0  0.84661  0.65799  0.12264  1.0000
  H   H7078     1.0  0.87301  0.64733  0.10082  1.0000
  H   H7079     1.0  0.82438  0.71261  0.17791  1.0000
  S   S1188     1.0  0.79715  0.67250  0.20064  1.0000
  H   H7080     1.0  0.85651  0.65849  0.13372  1.0000
  C   C4126     1.0  0.81934  0.68645  0.21762  1.0000
  C   C4127     1.0  0.87936  0.64026  0.12534  1.0000
  H   H7081     1.0  0.88762  0.48889  0.13211  1.0000
  H   H7082     1.0  0.94559  0.58163  0.17771  1.0000
  H   H7083     1.0  0.86117  0.63671  0.15058  1.0000
  C   C4128     1.0  0.96977  0.57429  0.16001  1.0000
  C   C4129     1.0  0.89324  0.56631  0.08534  1.0000
  H   H7084     1.0  0.82533  0.59857  0.20213  1.0000
  N   N295      1.0  0.86535  0.64219  0.12263  1.0000
  H   H7085     1.0  0.87152  0.62675  0.09507  1.0000
  H   H7086     1.0  0.86795  0.63310  0.21040  1.0000
  C   C4130     1.0  0.83191  0.58413  0.18906  1.0000
  H   H7087     1.0  0.84997  0.62529  0.15446  1.0000
  C   C4131     1.0  0.88063  0.60860  0.21113  1.0000
  H   H7088     1.0  0.93306  0.57685  0.16639  1.0000
  H   H7089     1.0  0.85201  0.70297  0.01144  1.0000
  H   H7090     1.0  0.98455  0.66423  0.16076  1.0000
  H   H7091     1.0  0.88827  0.63074  0.99421  1.0000
  H   H7092     1.0  0.86716  0.61870  0.11242  1.0000
  H   H7093     1.0  0.94134  0.59902  0.16961  1.0000
  C   C4132     1.0  0.86955  0.63181  0.98853  1.0000
  H   H7094     1.0  0.95641  0.60879  0.14982  1.0000
  S   S1189     1.0  0.80477  0.63270  0.21158  1.0000
  C   C4133     1.0  0.96461  0.59934  0.14969  1.0000
  C   C4134     1.0  0.89525  0.62240  0.19404  1.0000
  Fe  Fe595     1.0  0.87995  0.71843  0.21137  1.0000
  Fe  Fe596     1.0  0.83113  0.72408  0.10520  1.0000
  H   H7095     1.0  0.84841  0.51453  0.08248  1.0000
  C   C4135     1.0  0.87954  0.62167  0.17315  1.0000
  H   H7096     1.0  0.89685  0.62972  0.18420  1.0000
  H   H7097     1.0  0.98344  0.65694  0.11467  1.0000
  H   H7098     1.0  0.86990  0.62963  0.17337  1.0000
  C   C4136     1.0  0.81702  0.62982  0.13550  1.0000
  C   C4137     1.0  0.88003  0.61257  0.18732  1.0000
  H   H7099     1.0  0.87052  0.60868  0.19044  1.0000
  C   C4138     1.0  0.85425  0.48915  0.13420  1.0000
  C   C4139     1.0  0.95016  0.59032  0.17133  1.0000
  N   N296      1.0  0.90251  0.58704  0.08433  1.0000
  C   C4140     1.0  0.91075  0.59162  0.09127  1.0000
  C   C4141     1.0  0.88818  0.59582  0.08630  1.0000
  C   C4142     1.0  0.90868  0.58855  0.06931  1.0000
  C   C4143     1.0  0.90236  0.57228  0.09045  1.0000
  C   C4144     1.0  0.92598  0.58422  0.08983  1.0000
  C   C4145     1.0  0.87937  0.59370  0.10092  1.0000
  C   C4146     1.0  0.91194  0.60250  0.06172  1.0000
  C   C4147     1.0  0.82064  0.71034  0.20605  1.0000
  C   C4148     1.0  0.98378  0.57575  0.16108  1.0000
  H   H7100     1.0  0.79947  0.68082  0.22441  1.0000
  H   H7101     1.0  0.94947  0.59729  0.18915  1.0000
  Fe  Fe597     1.0  0.83005  0.64046  0.22830  1.0000
  H   H7102     1.0  0.86957  0.69325  0.98629  1.0000
  H   H7103     1.0  0.77797  0.72962  0.10426  1.0000
  H   H7104     1.0  0.96446  0.58472  0.18492  1.0000
  H   H7105     1.0  0.78444  0.73062  0.11780  1.0000
  C   C4149     1.0  0.90506  0.73310  0.22056  1.0000
  H   H7106     1.0  0.86676  0.66073  0.22724  1.0000
  H   H7107     1.0  0.90580  0.71132  0.22567  1.0000
  H   H7108     1.0  0.80108  0.73453  0.09518  1.0000
  C   C4150     1.0  0.85591  0.73507  0.17407  1.0000
  Fe  Fe598     1.0  0.56019  0.65617  0.34378  1.0000
  S   S1190     1.0  0.55018  0.64686  0.36497  1.0000
  S   S1191     1.0  0.55927  0.67827  0.33418  1.0000
  Fe  Fe599     1.0  0.57208  0.62922  0.33561  1.0000
  S   S1192     1.0  0.56328  0.61747  0.35591  1.0000
  S   S1193     1.0  0.58396  0.62095  0.31719  1.0000
  Fe  Fe600     1.0  0.54398  0.63382  0.35479  1.0000
  Fe  Fe601     1.0  0.57029  0.63140  0.36420  1.0000
  S   S1194     1.0  0.58233  0.62161  0.38066  1.0000
  S   S1195     1.0  0.55238  0.64447  0.33373  1.0000
  S   S1196     1.0  0.58063  0.64174  0.34382  1.0000
  Fe  Fe602     1.0  0.63947  0.56023  0.34154  1.0000
  S   S1197     1.0  0.62556  0.55400  0.36161  1.0000
  S   S1198     1.0  0.63384  0.57041  0.32151  1.0000
  Fe  Fe603     1.0  0.66514  0.54929  0.35263  1.0000
  S   S1199     1.0  0.65358  0.54205  0.37378  1.0000
  S   S1200     1.0  0.68814  0.54521  0.34633  1.0000
  Fe  Fe604     1.0  0.64156  0.53439  0.36372  1.0000
  S   S1201     1.0  0.63717  0.51327  0.37327  1.0000
  Fe  Fe605     1.0  0.63876  0.56210  0.36980  1.0000
  S   S1202     1.0  0.62844  0.57708  0.38330  1.0000
  S   S1203     1.0  0.65443  0.54007  0.34288  1.0000
  S   S1204     1.0  0.65128  0.56992  0.34946  1.0000
  Fe  Fe606     1.0  0.65989  0.64280  0.41293  1.0000
  S   S1205     1.0  0.63917  0.65405  0.42221  1.0000
  S   S1206     1.0  0.67832  0.65104  0.40034  1.0000
  Fe  Fe607     1.0  0.65120  0.61602  0.42033  1.0000
  S   S1207     1.0  0.66075  0.59520  0.41567  1.0000
  Fe  Fe608     1.0  0.63067  0.64236  0.41263  1.0000
  S   S1208     1.0  0.61559  0.65329  0.39905  1.0000
  S   S1209     1.0  0.65140  0.63279  0.40190  1.0000
  S   S1210     1.0  0.66132  0.62528  0.43077  1.0000
  H   H7109     1.0  0.62928  0.70856  0.35354  1.0000
  S   S1211     1.0  0.84320  0.69910  0.24952  1.0000
  S   S1212     1.0  0.63178  0.63864  0.46148  1.0000
  S   S1213     1.0  0.63012  0.72773  0.31597  1.0000
  Fe  Fe609     1.0  0.62113  0.70961  0.31936  1.0000
  H   H7110     1.0  0.67344  0.67758  0.46908  1.0000
  S   S1214     1.0  0.60780  0.70084  0.33892  1.0000
  Fe  Fe610     1.0  0.65024  0.71420  0.30880  1.0000
  S   S1215     1.0  0.64881  0.71924  0.28702  1.0000
  Fe  Fe611     1.0  0.63846  0.70177  0.29307  1.0000
  S   S1216     1.0  0.64326  0.68611  0.28047  1.0000
  S   S1217     1.0  0.64161  0.69572  0.31425  1.0000
  C   C4151     1.0  0.67480  0.69553  0.44331  1.0000
  C   C4152     1.0  0.51133  0.62875  0.35232  1.0000
  Fe  Fe612     1.0  0.72044  0.70884  0.35559  1.0000
  S   S1218     1.0  0.69927  0.70908  0.36838  1.0000
  S   S1219     1.0  0.73031  0.69480  0.34070  1.0000
  C   C4153     1.0  0.67328  0.50141  0.36657  1.0000
  Fe  Fe613     1.0  0.70733  0.71107  0.38510  1.0000
  S   S1220     1.0  0.70151  0.69778  0.40596  1.0000
  H   H7111     1.0  0.69271  0.65449  0.44601  1.0000
  S   S1221     1.0  0.72919  0.70901  0.37288  1.0000
  C   C4154     1.0  0.63317  0.49725  0.34366  1.0000
  H   H7112     1.0  0.67208  0.66718  0.43875  1.0000
  H   H7113     1.0  0.52993  0.60464  0.33582  1.0000
  H   H7114     1.0  0.82402  0.68213  0.25613  1.0000
  S   S1222     1.0  0.79283  0.61536  0.25114  1.0000
  N   N297      1.0  0.64365  0.69009  0.36039  1.0000
  Fe  Fe614     1.0  0.71453  0.61052  0.32553  1.0000
  S   S1223     1.0  0.71306  0.61457  0.30374  1.0000
  S   S1224     1.0  0.72171  0.58984  0.33792  1.0000
  Fe  Fe615     1.0  0.70316  0.63972  0.32784  1.0000
  S   S1225     1.0  0.70032  0.64623  0.30651  1.0000
  S   S1226     1.0  0.69521  0.65392  0.34225  1.0000
  Fe  Fe616     1.0  0.69239  0.62745  0.31097  1.0000
  S   S1227     1.0  0.67323  0.62687  0.30545  1.0000
  Fe  Fe617     1.0  0.72133  0.63302  0.30112  1.0000
  S   S1228     1.0  0.73475  0.64386  0.28270  1.0000
  S   S1229     1.0  0.69331  0.62200  0.33284  1.0000
  S   S1230     1.0  0.72469  0.62782  0.32238  1.0000
  C   C4155     1.0  0.77641  0.62323  0.25947  1.0000
  C   C4156     1.0  0.76926  0.61570  0.27120  1.0000
  C   C4157     1.0  0.75644  0.62185  0.27841  1.0000
  C   C4158     1.0  0.75072  0.63559  0.27394  1.0000
  C   C4159     1.0  0.75791  0.64312  0.26224  1.0000
  C   C4160     1.0  0.77068  0.63697  0.25501  1.0000
  H   H7115     1.0  0.77365  0.60507  0.27472  1.0000
  H   H7116     1.0  0.75100  0.61596  0.28740  1.0000
  H   H7117     1.0  0.75354  0.65375  0.25871  1.0000
  H   H7118     1.0  0.77609  0.64287  0.24599  1.0000
  C   C4161     1.0  0.72000  0.68483  0.33900  1.0000
  C   C4162     1.0  0.70620  0.68649  0.34571  1.0000
  C   C4163     1.0  0.69877  0.67693  0.34667  1.0000
  C   C4164     1.0  0.70482  0.66597  0.34026  1.0000
  C   C4165     1.0  0.71839  0.66468  0.33274  1.0000
  C   C4166     1.0  0.72601  0.67405  0.33222  1.0000
  H   H7119     1.0  0.70125  0.69500  0.35041  1.0000
  H   H7120     1.0  0.68835  0.67799  0.35259  1.0000
  H   H7121     1.0  0.72312  0.65627  0.32768  1.0000
  H   H7122     1.0  0.73667  0.67271  0.32691  1.0000
  C   C4167     1.0  0.68453  0.71807  0.32820  1.0000
  C   C4168     1.0  0.68588  0.72474  0.33746  1.0000
  H   H7123     1.0  0.69337  0.71112  0.32365  1.0000
  H   H7124     1.0  0.69574  0.72293  0.33991  1.0000
  C   C4169     1.0  0.65179  0.66976  0.28747  1.0000
  C   C4170     1.0  0.65142  0.65862  0.28280  1.0000
  C   C4171     1.0  0.65772  0.64541  0.28859  1.0000
  C   C4172     1.0  0.66488  0.64336  0.29870  1.0000
  C   C4173     1.0  0.66541  0.65450  0.30325  1.0000
  C   C4174     1.0  0.65883  0.66767  0.29769  1.0000
  H   H7125     1.0  0.64623  0.66022  0.27472  1.0000
  H   H7126     1.0  0.65739  0.63684  0.28495  1.0000
  H   H7127     1.0  0.67079  0.65298  0.31116  1.0000
  H   H7128     1.0  0.65959  0.67621  0.30102  1.0000
  C   C4175     1.0  0.84441  0.68391  0.24482  1.0000
  H   H7129     1.0  0.50077  0.65175  0.36232  1.0000
  H   H7130     1.0  0.82541  0.66060  0.24973  1.0000
  H   H7131     1.0  0.62002  0.67186  0.36048  1.0000
  H   H7132     1.0  0.72362  0.70166  0.27391  1.0000
  H   H7133     1.0  0.69871  0.59981  0.27340  1.0000
  C   C4176     1.0  0.69555  0.57424  0.30715  1.0000
  H   H7134     1.0  0.57102  0.70089  0.31807  1.0000
  C   C4177     1.0  0.63350  0.70317  0.36276  1.0000
  H   H7135     1.0  0.68368  0.49935  0.36851  1.0000
  C   C4178     1.0  0.68144  0.66480  0.40457  1.0000
  C   C4179     1.0  0.67840  0.67785  0.39651  1.0000
  C   C4180     1.0  0.68383  0.68828  0.39749  1.0000
  C   C4181     1.0  0.69251  0.68567  0.40636  1.0000
  C   C4182     1.0  0.69480  0.67287  0.41509  1.0000
  C   C4183     1.0  0.68944  0.66239  0.41406  1.0000
  H   H7136     1.0  0.67243  0.67974  0.38900  1.0000
  H   H7137     1.0  0.68145  0.69829  0.39120  1.0000
  H   H7138     1.0  0.70146  0.67081  0.42202  1.0000
  H   H7139     1.0  0.69209  0.65226  0.42010  1.0000
  C   C4184     1.0  0.63543  0.50209  0.36419  1.0000
  C   C4185     1.0  0.63420  0.50648  0.35067  1.0000
  C   C4186     1.0  0.54212  0.61742  0.30910  1.0000
  S   S1231     1.0  0.80729  0.64845  0.23425  1.0000
  H   H7140     1.0  0.71052  0.58721  0.29730  1.0000
  H   H7141     1.0  0.62594  0.67174  0.37492  1.0000
  H   H7142     1.0  0.63395  0.51701  0.34562  1.0000
  H   H7143     1.0  0.69070  0.67106  0.44870  1.0000
  Fe  Fe618     1.0  0.62794  0.73159  0.29441  1.0000
  H   H7144     1.0  0.69384  0.56698  0.31712  1.0000
  C   C4187     1.0  0.63786  0.58190  0.39201  1.0000
  C   C4188     1.0  0.65103  0.57456  0.39349  1.0000
  C   C4189     1.0  0.65804  0.57869  0.40078  1.0000
  C   C4190     1.0  0.65202  0.59029  0.40635  1.0000
  C   C4191     1.0  0.63904  0.59783  0.40448  1.0000
  C   C4192     1.0  0.63194  0.59354  0.39748  1.0000
  H   H7145     1.0  0.65568  0.56557  0.38929  1.0000
  H   H7146     1.0  0.66806  0.57279  0.40226  1.0000
  H   H7147     1.0  0.63434  0.60678  0.40873  1.0000
  H   H7148     1.0  0.62182  0.59929  0.39627  1.0000
  C   C4193     1.0  0.69682  0.55792  0.34486  1.0000
  C   C4194     1.0  0.68991  0.57136  0.34559  1.0000
  C   C4195     1.0  0.69742  0.58139  0.34320  1.0000
  C   C4196     1.0  0.71182  0.57784  0.34060  1.0000
  C   C4197     1.0  0.71860  0.56433  0.34041  1.0000
  C   C4198     1.0  0.71116  0.55449  0.34229  1.0000
  H   H7149     1.0  0.67884  0.57402  0.34789  1.0000
  H   H7150     1.0  0.69210  0.59178  0.34359  1.0000
  H   H7151     1.0  0.72969  0.56150  0.33852  1.0000
  H   H7152     1.0  0.71657  0.54413  0.34177  1.0000
  H   H7153     1.0  0.52365  0.63597  0.33283  1.0000
  C   C4199     1.0  0.59170  0.63061  0.38537  1.0000
  C   C4200     1.0  0.59164  0.64431  0.37953  1.0000
  C   C4201     1.0  0.59900  0.65116  0.38380  1.0000
  C   C4202     1.0  0.60664  0.64432  0.39378  1.0000
  C   C4203     1.0  0.60697  0.63054  0.39936  1.0000
  C   C4204     1.0  0.59944  0.62377  0.39524  1.0000
  H   H7154     1.0  0.58568  0.64972  0.37195  1.0000
  H   H7155     1.0  0.59864  0.66185  0.37948  1.0000
  H   H7156     1.0  0.61272  0.62520  0.40711  1.0000
  H   H7157     1.0  0.59945  0.61324  0.39992  1.0000
  C   C4205     1.0  0.59829  0.60751  0.31891  1.0000
  C   C4206     1.0  0.60568  0.60225  0.30745  1.0000
  C   C4207     1.0  0.61666  0.59100  0.30845  1.0000
  C   C4208     1.0  0.62036  0.58489  0.32090  1.0000
  C   C4209     1.0  0.61321  0.59032  0.33240  1.0000
  C   C4210     1.0  0.60214  0.60171  0.33139  1.0000
  H   H7158     1.0  0.60276  0.60672  0.29780  1.0000
  H   H7159     1.0  0.62217  0.58685  0.29955  1.0000
  H   H7160     1.0  0.61611  0.58566  0.34204  1.0000
  H   H7161     1.0  0.59651  0.60588  0.34022  1.0000
  C   C4211     1.0  0.57290  0.68437  0.33545  1.0000
  C   C4212     1.0  0.58010  0.67790  0.34574  1.0000
  C   C4213     1.0  0.59069  0.68312  0.34683  1.0000
  C   C4214     1.0  0.59442  0.69458  0.33739  1.0000
  C   C4215     1.0  0.58743  0.70085  0.32689  1.0000
  C   C4216     1.0  0.57658  0.69584  0.32603  1.0000
  H   H7162     1.0  0.57722  0.66914  0.35313  1.0000
  H   H7163     1.0  0.59597  0.67829  0.35504  1.0000
  H   H7164     1.0  0.59016  0.70975  0.31964  1.0000
  C   C4217     1.0  0.69450  0.48900  0.34513  1.0000
  H   H7165     1.0  0.65421  0.59947  0.32652  1.0000
  H   H7166     1.0  0.74123  0.62802  0.39864  1.0000
  H   H7167     1.0  0.70058  0.58212  0.27997  1.0000
  H   H7168     1.0  0.55693  0.61763  0.31975  1.0000
  H   H7169     1.0  0.65498  0.66208  0.38468  1.0000
  H   H7170     1.0  0.68606  0.59139  0.27266  1.0000
  H   H7171     1.0  0.63874  0.68321  0.46078  1.0000
  C   C4218     1.0  0.53995  0.60314  0.33849  1.0000
  C   C4219     1.0  0.67089  0.56259  0.31148  1.0000
  C   C4220     1.0  0.59720  0.55325  0.40689  1.0000
  H   H7172     1.0  0.50362  0.68535  0.33596  1.0000
  C   C4221     1.0  0.67393  0.58846  0.31685  1.0000
  H   H7173     1.0  0.66794  0.66844  0.37087  1.0000
  C   C4222     1.0  0.70619  0.58169  0.30756  1.0000
  C   C4223     1.0  0.73382  0.63743  0.39515  1.0000
  H   H7174     1.0  0.67419  0.68659  0.33518  1.0000
  C   C4224     1.0  0.83328  0.67754  0.24969  1.0000
  C   C4225     1.0  0.59226  0.58719  0.40077  1.0000
  C   C4226     1.0  0.65690  0.66808  0.37408  1.0000
  H   H7175     1.0  0.66027  0.51619  0.32942  1.0000
  N   N298      1.0  0.58532  0.57824  0.39721  1.0000
  H   H7176     1.0  0.55699  0.59395  0.40298  1.0000
  H   H7177     1.0  0.66419  0.56554  0.32091  1.0000
  C   C4227     1.0  0.58054  0.58576  0.38426  1.0000
  N   N299      1.0  0.67998  0.49448  0.34321  1.0000
  C   C4228     1.0  0.53875  0.59456  0.35312  1.0000
  H   H7178     1.0  0.63214  0.50078  0.33321  1.0000
  C   C4229     1.0  0.64767  0.68248  0.37364  1.0000
  H   H7179     1.0  0.67353  0.63381  0.47763  1.0000
  H   H7180     1.0  0.50659  0.63675  0.31993  1.0000
  H   H7181     1.0  0.54676  0.59534  0.35779  1.0000
  H   H7182     1.0  0.58069  0.59220  0.31367  1.0000
  C   C4230     1.0  0.55419  0.60992  0.31612  1.0000
  H   H7183     1.0  0.72046  0.68955  0.26062  1.0000
  Fe  Fe619     1.0  0.63986  0.63568  0.43959  1.0000
  H   H7184     1.0  0.67228  0.70680  0.44016  1.0000
  H   H7185     1.0  0.66507  0.55754  0.30771  1.0000
  H   H7186     1.0  0.68884  0.60226  0.29541  1.0000
  H   H7187     1.0  0.56784  0.60034  0.33545  1.0000
  H   H7188     1.0  0.67843  0.51433  0.34694  1.0000
  C   C4231     1.0  0.57729  0.58516  0.32328  1.0000
  H   H7189     1.0  0.57422  0.59609  0.38520  1.0000
  H   H7190     1.0  0.66297  0.69663  0.35417  1.0000
  H   H7191     1.0  0.64507  0.66560  0.46656  1.0000
  H   H7192     1.0  0.56337  0.58451  0.34251  1.0000
  C   C4232     1.0  0.74181  0.64726  0.38422  1.0000
  H   H7193     1.0  0.65265  0.70293  0.34190  1.0000
  H   H7194     1.0  0.53805  0.59205  0.31921  1.0000
  H   H7195     1.0  0.58703  0.59323  0.36254  1.0000
  C   C4233     1.0  0.54815  0.58779  0.32214  1.0000
  H   H7196     1.0  0.61514  0.68689  0.36685  1.0000
  H   H7197     1.0  0.58786  0.54905  0.41144  1.0000
  C   C4234     1.0  0.67338  0.50552  0.35125  1.0000
  C   C4235     1.0  0.50549  0.67762  0.34534  1.0000
  C   C4236     1.0  0.54696  0.57388  0.33170  1.0000
  H   H7198     1.0  0.57540  0.57622  0.32101  1.0000
  H   H7199     1.0  0.52726  0.67142  0.33663  1.0000
  H   H7200     1.0  0.60826  0.57538  0.41193  1.0000
  H   H7201     1.0  0.67370  0.58003  0.32597  1.0000
  H   H7202     1.0  0.63851  0.68188  0.38220  1.0000
  H   H7203     1.0  0.58611  0.58137  0.32834  1.0000
  H   H7204     1.0  0.60123  0.58939  0.39257  1.0000
  H   H7205     1.0  0.55332  0.58442  0.41992  1.0000
  H   H7206     1.0  0.52083  0.65850  0.34991  1.0000
  C   C4237     1.0  0.66481  0.68304  0.34141  1.0000
  H   H7207     1.0  0.54050  0.61334  0.33929  1.0000
  H   H7208     1.0  0.58559  0.59749  0.40109  1.0000
  H   H7209     1.0  0.70058  0.56759  0.29970  1.0000
  H   H7210     1.0  0.59815  0.59061  0.41761  1.0000
  C   C4238     1.0  0.59515  0.56507  0.39456  1.0000
  C   C4239     1.0  0.57283  0.57535  0.40804  1.0000
  H   H7211     1.0  0.54472  0.62676  0.30186  1.0000
  H   H7212     1.0  0.59098  0.57629  0.42236  1.0000
  H   H7213     1.0  0.54033  0.61117  0.30307  1.0000
  C   C4240     1.0  0.50437  0.63347  0.33088  1.0000
  H   H7214     1.0  0.69993  0.49747  0.34246  1.0000
  C   C4241     1.0  0.59195  0.58792  0.37125  1.0000
  H   H7215     1.0  0.65269  0.69837  0.44908  1.0000
  C   C4242     1.0  0.51409  0.63297  0.33816  1.0000
  S   S1232     1.0  0.52305  0.62818  0.36207  1.0000
  H   H7216     1.0  0.70824  0.69705  0.29603  1.0000
  H   H7217     1.0  0.59176  0.56082  0.38772  1.0000
  H   H7218     1.0  0.65944  0.68189  0.33419  1.0000
  H   H7219     1.0  0.50884  0.67046  0.37097  1.0000
  C   C4243     1.0  0.67188  0.72035  0.32486  1.0000
  C   C4244     1.0  0.56173  0.58790  0.41163  1.0000
  H   H7220     1.0  0.68079  0.57095  0.29131  1.0000
  H   H7221     1.0  0.59861  0.57824  0.36874  1.0000
  H   H7222     1.0  0.73209  0.67504  0.26749  1.0000
  H   H7223     1.0  0.60547  0.56687  0.38905  1.0000
  H   H7224     1.0  0.62450  0.70115  0.37109  1.0000
  H   H7225     1.0  0.74984  0.64859  0.38853  1.0000
  H   H7226     1.0  0.54980  0.56603  0.32552  1.0000
  H   H7227     1.0  0.64362  0.67288  0.35253  1.0000
  H   H7228     1.0  0.56574  0.59451  0.41547  1.0000
  H   H7229     1.0  0.75781  0.67216  0.34995  1.0000
  H   H7230     1.0  0.70185  0.58884  0.31451  1.0000
  H   H7231     1.0  0.66817  0.67303  0.34783  1.0000
  H   H7232     1.0  0.65469  0.66218  0.36805  1.0000
  H   H7233     1.0  0.59837  0.59449  0.37179  1.0000
  H   H7234     1.0  0.55407  0.57023  0.33866  1.0000
  N   N300      1.0  0.80747  0.62887  0.27810  1.0000
  C   C4245     1.0  0.80383  0.61512  0.28374  1.0000
  C   C4246     1.0  0.81783  0.62807  0.26485  1.0000
  C   C4247     1.0  0.79457  0.63910  0.27528  1.0000
  C   C4248     1.0  0.81289  0.63227  0.28840  1.0000
  C   C4249     1.0  0.79205  0.61406  0.29651  1.0000
  C   C4250     1.0  0.83077  0.61649  0.26559  1.0000
  C   C4251     1.0  0.79563  0.65403  0.26977  1.0000
  C   C4252     1.0  0.82308  0.64181  0.28288  1.0000
  H   H7235     1.0  0.80098  0.61178  0.27590  1.0000
  H   H7236     1.0  0.81284  0.60719  0.28653  1.0000
  H   H7237     1.0  0.82133  0.63770  0.26016  1.0000
  H   H7238     1.0  0.81304  0.62659  0.25728  1.0000
  H   H7239     1.0  0.79062  0.63623  0.26792  1.0000
  H   H7240     1.0  0.78622  0.63924  0.28459  1.0000
  H   H7241     1.0  0.80424  0.63693  0.29595  1.0000
  H   H7242     1.0  0.81831  0.62288  0.29450  1.0000
  H   H7243     1.0  0.79314  0.61864  0.30437  1.0000
  H   H7244     1.0  0.78188  0.61871  0.29385  1.0000
  H   H7245     1.0  0.79206  0.60315  0.30105  1.0000
  H   H7246     1.0  0.83894  0.61869  0.25639  1.0000
  H   H7247     1.0  0.83488  0.61525  0.27461  1.0000
  H   H7248     1.0  0.82859  0.60670  0.26562  1.0000
  H   H7249     1.0  0.80399  0.65545  0.26069  1.0000
  H   H7250     1.0  0.79660  0.65849  0.27779  1.0000
  H   H7251     1.0  0.78593  0.65998  0.26663  1.0000
  H   H7252     1.0  0.83314  0.63683  0.27727  1.0000
  H   H7253     1.0  0.82513  0.64443  0.29156  1.0000
  H   H7254     1.0  0.81921  0.65149  0.27623  1.0000
  N   N301      1.0  0.63884  0.62183  0.35679  1.0000
  C   C4253     1.0  0.64263  0.60647  0.35982  1.0000
  C   C4254     1.0  0.62393  0.62594  0.35597  1.0000
  C   C4255     1.0  0.64033  0.62638  0.36864  1.0000
  C   C4256     1.0  0.64840  0.62705  0.34379  1.0000
  C   C4257     1.0  0.65706  0.59971  0.36269  1.0000
  C   C4258     1.0  0.62052  0.62121  0.34487  1.0000
  C   C4259     1.0  0.63713  0.64180  0.36764  1.0000
  C   C4260     1.0  0.64351  0.64171  0.33592  1.0000
  H   H7255     1.0  0.63507  0.60232  0.36869  1.0000
  H   H7256     1.0  0.64213  0.60247  0.35124  1.0000
  H   H7257     1.0  0.61985  0.63706  0.35449  1.0000
  H   H7258     1.0  0.61740  0.62184  0.36586  1.0000
  H   H7259     1.0  0.63369  0.62192  0.37827  1.0000
  H   H7260     1.0  0.65100  0.62275  0.37015  1.0000
  H   H7261     1.0  0.65854  0.62645  0.34580  1.0000
  H   H7262     1.0  0.65071  0.62035  0.33646  1.0000
  H   H7263     1.0  0.65911  0.58865  0.36305  1.0000
  H   H7264     1.0  0.66530  0.60376  0.35466  1.0000
  H   H7265     1.0  0.65764  0.60052  0.37282  1.0000
  H   H7266     1.0  0.60994  0.62656  0.34372  1.0000
  H   H7267     1.0  0.62757  0.62345  0.33486  1.0000
  H   H7268     1.0  0.62060  0.61018  0.34781  1.0000
  H   H7269     1.0  0.63810  0.64363  0.37722  1.0000
  H   H7270     1.0  0.62649  0.64681  0.36660  1.0000
  H   H7271     1.0  0.64464  0.64670  0.35939  1.0000
  H   H7272     1.0  0.65205  0.64709  0.33284  1.0000
  H   H7273     1.0  0.63464  0.64815  0.34153  1.0000
  H   H7274     1.0  0.64123  0.64147  0.32627  1.0000
  N   N302      1.0  0.69960  0.68911  0.28406  1.0000
  C   C4261     1.0  0.68944  0.68361  0.29635  1.0000
  C   C4262     1.0  0.69233  0.69453  0.27245  1.0000
  C   C4263     1.0  0.70326  0.70067  0.28720  1.0000
  C   C4264     1.0  0.71211  0.67780  0.28144  1.0000
  C   C4265     1.0  0.69402  0.67915  0.30997  1.0000
  C   C4266     1.0  0.68666  0.68413  0.26894  1.0000
  C   C4267     1.0  0.72116  0.67914  0.26685  1.0000
  H   H7275     1.0  0.67949  0.69119  0.29778  1.0000
  H   H7276     1.0  0.68688  0.67456  0.29492  1.0000
  H   H7277     1.0  0.69892  0.69897  0.26295  1.0000
  H   H7278     1.0  0.68348  0.70314  0.27470  1.0000
  H   H7279     1.0  0.69379  0.70839  0.29018  1.0000
  C   C4268     1.0  0.67135  0.66531  0.44987  1.0000
  H   H7280     1.0  0.71887  0.67630  0.28853  1.0000
  H   H7281     1.0  0.70896  0.66797  0.28368  1.0000
  H   H7282     1.0  0.68678  0.67334  0.31760  1.0000
  H   H7283     1.0  0.70441  0.67244  0.30925  1.0000
  H   H7284     1.0  0.69364  0.68798  0.31404  1.0000
  H   H7285     1.0  0.69425  0.67438  0.26828  1.0000
  H   H7286     1.0  0.67715  0.68215  0.27645  1.0000
  H   H7287     1.0  0.68377  0.68838  0.25895  1.0000
  H   H7288     1.0  0.71425  0.71690  0.27941  1.0000
  H   H7289     1.0  0.50729  0.65413  0.38029  1.0000
  H   H7290     1.0  0.71907  0.67255  0.26134  1.0000
  N   N303      1.0  0.73340  0.66086  0.37862  1.0000
  C   C4269     1.0  0.74316  0.66949  0.36930  1.0000
  C   C4270     1.0  0.72485  0.66835  0.38964  1.0000
  C   C4271     1.0  0.72438  0.65920  0.37038  1.0000
  C   C4272     1.0  0.75202  0.66436  0.35641  1.0000
  C   C4273     1.0  0.73281  0.67141  0.39844  1.0000
  C   C4274     1.0  0.70958  0.65783  0.37768  1.0000
  H   H7291     1.0  0.73739  0.68005  0.36591  1.0000
  H   H7292     1.0  0.75054  0.67047  0.37465  1.0000
  H   H7293     1.0  0.71727  0.66270  0.39679  1.0000
  H   H7294     1.0  0.71863  0.67827  0.38514  1.0000
  H   H7295     1.0  0.72294  0.66822  0.36202  1.0000
  H   H7296     1.0  0.72933  0.65046  0.36529  1.0000
  H   H7297     1.0  0.75968  0.65483  0.35889  1.0000
  H   H7298     1.0  0.74578  0.66297  0.35011  1.0000
  H   H7299     1.0  0.73966  0.66220  0.40305  1.0000
  H   H7300     1.0  0.73863  0.67936  0.39266  1.0000
  H   H7301     1.0  0.72536  0.67557  0.40699  1.0000
  H   H7302     1.0  0.70313  0.66783  0.37953  1.0000
  H   H7303     1.0  0.70885  0.65028  0.38739  1.0000
  H   H7304     1.0  0.70496  0.65471  0.37100  1.0000
  H   H7305     1.0  0.72677  0.63432  0.39103  1.0000
  N   N304      1.0  0.60777  0.65782  0.30384  1.0000
  C   C4275     1.0  0.60848  0.64269  0.30799  1.0000
  C   C4276     1.0  0.59339  0.66482  0.30977  1.0000
  C   C4277     1.0  0.61795  0.66067  0.30989  1.0000
  C   C4278     1.0  0.61142  0.66157  0.28852  1.0000
  C   C4279     1.0  0.62284  0.63336  0.30450  1.0000
  C   C4280     1.0  0.58185  0.66248  0.30473  1.0000
  C   C4281     1.0  0.61627  0.67546  0.31080  1.0000
  C   C4282     1.0  0.60884  0.67683  0.28162  1.0000
  H   H7306     1.0  0.60446  0.63959  0.31914  1.0000
  H   H7307     1.0  0.60184  0.63981  0.30309  1.0000
  H   H7308     1.0  0.59208  0.67597  0.30798  1.0000
  H   H7309     1.0  0.59110  0.66161  0.32105  1.0000
  H   H7310     1.0  0.61752  0.65464  0.32050  1.0000
  H   H7311     1.0  0.62862  0.65745  0.30415  1.0000
  H   H7312     1.0  0.62250  0.65738  0.28468  1.0000
  H   H7313     1.0  0.60620  0.65656  0.28400  1.0000
  H   H7314     1.0  0.62720  0.63500  0.29341  1.0000
  H   H7315     1.0  0.63019  0.63450  0.30976  1.0000
  H   H7316     1.0  0.62188  0.62260  0.30799  1.0000
  H   H7317     1.0  0.58359  0.66506  0.29350  1.0000
  H   H7318     1.0  0.58040  0.65192  0.30870  1.0000
  H   H7319     1.0  0.57200  0.66922  0.30863  1.0000
  H   H7320     1.0  0.61611  0.68273  0.30096  1.0000
  H   H7321     1.0  0.62512  0.67616  0.31429  1.0000
  H   H7322     1.0  0.60698  0.67863  0.31846  1.0000
  H   H7323     1.0  0.61842  0.68058  0.27891  1.0000
  H   H7324     1.0  0.60067  0.68355  0.28754  1.0000
  H   H7325     1.0  0.60552  0.67824  0.27206  1.0000
  C   C4283     1.0  0.66305  0.67645  0.46955  1.0000
  C   C4284     1.0  0.71319  0.70826  0.27589  1.0000
  C   C4285     1.0  0.83404  0.66538  0.24608  1.0000
  C   C4286     1.0  0.65887  0.59601  0.31681  1.0000
  H   H7326     1.0  0.53626  0.57412  0.33768  1.0000
  N   N305      1.0  0.55175  0.59788  0.32761  1.0000
  H   H7327     1.0  0.67895  0.59557  0.31883  1.0000
  H   H7328     1.0  0.70940  0.71269  0.26640  1.0000
  H   H7329     1.0  0.66114  0.63193  0.46133  1.0000
  S   S1233     1.0  0.62965  0.62478  0.43064  1.0000
  C   C4287     1.0  0.68016  0.50121  0.32848  1.0000
  C   C4288     1.0  0.51826  0.66664  0.34112  1.0000
  H   H7330     1.0  0.53906  0.58379  0.35386  1.0000
  H   H7331     1.0  0.51715  0.66214  0.33320  1.0000
  H   H7332     1.0  0.65799  0.60522  0.30856  1.0000
  H   H7333     1.0  0.63272  0.67025  0.44849  1.0000
  C   C4289     1.0  0.59772  0.58184  0.41388  1.0000
  C   C4290     1.0  0.85733  0.66551  0.23334  1.0000
  H   H7334     1.0  0.66794  0.65557  0.45425  1.0000
  C   C4291     1.0  0.66169  0.69022  0.44606  1.0000
  C   C4292     1.0  0.65595  0.69378  0.34966  1.0000
  H   H7335     1.0  0.64227  0.68559  0.48003  1.0000
  H   H7336     1.0  0.66495  0.58143  0.29740  1.0000
  N   N306      1.0  0.69570  0.60573  0.38046  1.0000
  C   C4293     1.0  0.69481  0.59121  0.38732  1.0000
  C   C4294     1.0  0.69983  0.61151  0.39000  1.0000
  C   C4295     1.0  0.70659  0.60546  0.36743  1.0000
  C   C4296     1.0  0.68184  0.61333  0.37755  1.0000
  C   C4297     1.0  0.69270  0.58264  0.37853  1.0000
  C   C4298     1.0  0.68981  0.61208  0.40388  1.0000
  C   C4299     1.0  0.71358  0.61764  0.36166  1.0000
  C   C4300     1.0  0.67988  0.62876  0.37167  1.0000
  H   H7337     1.0  0.70427  0.58559  0.39113  1.0000
  H   H7338     1.0  0.68618  0.59083  0.39640  1.0000
  H   H7339     1.0  0.70127  0.62202  0.38551  1.0000
  H   H7340     1.0  0.71002  0.60551  0.39199  1.0000
  H   H7341     1.0  0.71519  0.59637  0.36875  1.0000
  H   H7342     1.0  0.70238  0.60440  0.35922  1.0000
  H   H7343     1.0  0.67949  0.60920  0.37001  1.0000
  H   H7344     1.0  0.67338  0.61156  0.38663  1.0000
  H   H7345     1.0  0.69220  0.57227  0.38477  1.0000
  H   H7346     1.0  0.68290  0.58682  0.37514  1.0000
  H   H7347     1.0  0.70137  0.58134  0.36966  1.0000
  H   H7348     1.0  0.68932  0.60181  0.41031  1.0000
  H   H7349     1.0  0.69340  0.61745  0.40951  1.0000
  H   H7350     1.0  0.67939  0.61790  0.40276  1.0000
  H   H7351     1.0  0.72027  0.61779  0.36816  1.0000
  H   H7352     1.0  0.70623  0.62753  0.36010  1.0000
  H   H7353     1.0  0.72039  0.61648  0.35161  1.0000
  H   H7354     1.0  0.68341  0.63089  0.36045  1.0000
  H   H7355     1.0  0.68488  0.63400  0.37605  1.0000
  H   H7356     1.0  0.66882  0.63367  0.37420  1.0000
  H   H7357     1.0  0.68016  0.55493  0.31390  1.0000
  H   H7358     1.0  0.68278  0.69149  0.43497  1.0000
  H   H7359     1.0  0.53249  0.62071  0.31634  1.0000
  C   C4301     1.0  0.69284  0.59182  0.27896  1.0000
  H   H7360     1.0  0.78945  0.72379  0.35038  1.0000
  H   H7361     1.0  0.65257  0.58932  0.31628  1.0000
  H   H7362     1.0  0.65339  0.68824  0.37667  1.0000
  C   C4302     1.0  0.67456  0.57498  0.30045  1.0000
  C   C4303     1.0  0.56477  0.59217  0.33288  1.0000
  H   H7363     1.0  0.52871  0.59874  0.35944  1.0000
  H   H7364     1.0  0.56303  0.60693  0.30787  1.0000
  H   H7365     1.0  0.74751  0.64171  0.37595  1.0000
  S   S1234     1.0  0.67082  0.71220  0.31281  1.0000
  H   H7366     1.0  0.60038  0.55600  0.41476  1.0000
  C   C4304     1.0  0.68427  0.59521  0.29272  1.0000
  H   H7367     1.0  0.67429  0.60166  0.29066  1.0000
  H   H7368     1.0  0.60554  0.54485  0.40334  1.0000
  H   H7369     1.0  0.57379  0.58039  0.38215  1.0000
  H   H7370     1.0  0.71490  0.57411  0.31135  1.0000
  H   H7371     1.0  0.72814  0.64169  0.40425  1.0000
  N   N307      1.0  0.68208  0.58322  0.30426  1.0000
  C   C4305     1.0  0.85638  0.67797  0.23648  1.0000
  S   S1235     1.0  0.61719  0.71452  0.29843  1.0000
  H   H7372     1.0  0.57558  0.56929  0.41774  1.0000
  H   H7373     1.0  0.56782  0.56893  0.40496  1.0000
  H   H7374     1.0  0.55542  0.58598  0.31241  1.0000
  C   C4306     1.0  0.84614  0.65924  0.23809  1.0000
  H   H7375     1.0  0.66244  0.50961  0.35068  1.0000
  C   C4307     1.0  0.64684  0.67432  0.45792  1.0000
  C   C4308     1.0  0.66050  0.72929  0.33085  1.0000
  H   H7376     1.0  0.64436  0.67985  0.43662  1.0000
  H   H7377     1.0  0.64799  0.71651  0.35900  1.0000
  H   H7378     1.0  0.63369  0.68843  0.34565  1.0000
  H   H7379     1.0  0.66710  0.51009  0.37135  1.0000
  Fe  Fe620     1.0  0.72359  0.73191  0.36663  1.0000
  H   H7380     1.0  0.66837  0.49269  0.37182  1.0000
  H   H7381     1.0  0.66741  0.51096  0.31370  1.0000
  C   C4309     1.0  0.65545  0.63544  0.47053  1.0000
  H   H7382     1.0  0.64996  0.66175  0.44300  1.0000
  C   C4310     1.0  0.49868  0.62521  0.35908  1.0000
  N   N308      1.0  0.66102  0.67671  0.45579  1.0000
  C   C4311     1.0  0.66597  0.50728  0.32488  1.0000
  C   C4312     1.0  0.63666  0.68231  0.35529  1.0000
  C   C4313     1.0  0.68608  0.66209  0.45205  1.0000
  H   H7383     1.0  0.79995  0.69446  0.23096  1.0000
  H   H7384     1.0  0.49638  0.65783  0.34058  1.0000
  C   C4314     1.0  0.64110  0.63903  0.47312  1.0000
  H   H7385     1.0  0.65960  0.49965  0.32786  1.0000
  S   S1236     1.0  0.84774  0.64332  0.23467  1.0000
  C   C4315     1.0  0.65285  0.68729  0.47702  1.0000
  H   H7386     1.0  0.64165  0.70957  0.37678  1.0000
  C   C4316     1.0  0.62375  0.67805  0.36511  1.0000
  C   C4317     1.0  0.63902  0.71346  0.36667  1.0000
  H   H7387     1.0  0.63086  0.72287  0.36734  1.0000
  Fe  Fe621     1.0  0.80580  0.62765  0.23366  1.0000
  H   H7388     1.0  0.68581  0.50956  0.32523  1.0000
  H   H7389     1.0  0.91271  0.71655  0.23661  1.0000
  H   H7390     1.0  0.68585  0.49422  0.32158  1.0000
  C   C4318     1.0  0.64350  0.67144  0.44568  1.0000
  C   C4319     1.0  0.63561  0.48837  0.37061  1.0000
  H   H7391     1.0  0.66076  0.68979  0.43589  1.0000
  H   H7392     1.0  0.67121  0.73328  0.28154  1.0000
  H   H7393     1.0  0.67913  0.69342  0.45233  1.0000
  H   H7394     1.0  0.68641  0.65736  0.46285  1.0000
  H   H7395     1.0  0.66238  0.66633  0.47640  1.0000
  H   H7396     1.0  0.50862  0.68307  0.35122  1.0000
  C   C4320     1.0  0.67461  0.73383  0.34334  1.0000
  H   H7397     1.0  0.65299  0.69775  0.47097  1.0000
  S   S1237     1.0  0.87556  0.71756  0.23384  1.0000
  H   H7398     1.0  0.66069  0.48826  0.35087  1.0000
  H   H7399     1.0  0.65067  0.73100  0.32842  1.0000
  Fe  Fe622     1.0  0.85544  0.71331  0.23403  1.0000
  H   H7400     1.0  0.86505  0.68276  0.23280  1.0000
  S   S1238     1.0  0.71665  0.73143  0.34826  1.0000
  Fe  Fe623     1.0  0.69591  0.73166  0.36210  1.0000
  H   H7401     1.0  0.92592  0.73216  0.23210  1.0000
  C   C4321     1.0  0.50130  0.66399  0.37552  1.0000
  H   H7402     1.0  0.49639  0.62199  0.37003  1.0000
  S   S1239     1.0  0.70223  0.73400  0.38001  1.0000
  C   C4322     1.0  0.66243  0.63651  0.47979  1.0000
  C   C4323     1.0  0.78556  0.73471  0.35079  1.0000
  C   C4324     1.0  0.49470  0.66144  0.36527  1.0000
  H   H7403     1.0  0.78115  0.73513  0.36159  1.0000
  H   H7404     1.0  0.67998  0.63021  0.64917  1.0000
  H   H7405     1.0  0.68315  0.59382  0.65246  1.0000
  H   H7406     1.0  0.65797  0.69331  0.65078  1.0000
  Fe  Fe624     1.0  0.56537  0.65599  0.64752  1.0000
  S   S1240     1.0  0.55454  0.64171  0.64400  1.0000
  S   S1241     1.0  0.57188  0.65466  0.66683  1.0000
  Fe  Fe625     1.0  0.57139  0.67007  0.61792  1.0000
  S   S1242     1.0  0.56141  0.65727  0.61159  1.0000
  S   S1243     1.0  0.58072  0.68743  0.60437  1.0000
  Fe  Fe626     1.0  0.54451  0.66004  0.63014  1.0000
  S   S1244     1.0  0.52289  0.66614  0.62599  1.0000
  Fe  Fe627     1.0  0.57187  0.63980  0.62571  1.0000
  S   S1245     1.0  0.58197  0.62022  0.61850  1.0000
  S   S1246     1.0  0.55377  0.67451  0.63538  1.0000
  S   S1247     1.0  0.58349  0.65239  0.63026  1.0000
  Fe  Fe628     1.0  0.65571  0.64522  0.52486  1.0000
  S   S1248     1.0  0.63356  0.64636  0.53542  1.0000
  S   S1249     1.0  0.66450  0.64271  0.50286  1.0000
  Fe  Fe629     1.0  0.66393  0.64555  0.55091  1.0000
  S   S1250     1.0  0.64243  0.64638  0.56317  1.0000
  S   S1251     1.0  0.67825  0.64375  0.56438  1.0000
  Fe  Fe630     1.0  0.64181  0.63091  0.55249  1.0000
  S   S1252     1.0  0.63187  0.61333  0.56418  1.0000
  Fe  Fe631     1.0  0.63630  0.66164  0.54523  1.0000
  S   S1253     1.0  0.62172  0.68154  0.54795  1.0000
  S   S1254     1.0  0.66383  0.62871  0.54149  1.0000
  S   S1255     1.0  0.65791  0.66195  0.53336  1.0000
  Fe  Fe632     1.0  0.65998  0.55800  0.62133  1.0000
  S   S1256     1.0  0.63984  0.55196  0.63159  1.0000
  S   S1257     1.0  0.66814  0.56499  0.59893  1.0000
  Fe  Fe633     1.0  0.66892  0.55352  0.64768  1.0000
  S   S1258     1.0  0.64970  0.54689  0.66020  1.0000
  S   S1259     1.0  0.68676  0.55476  0.65539  1.0000
  Fe  Fe634     1.0  0.65217  0.53472  0.64460  1.0000
  S   S1260     1.0  0.64656  0.51391  0.65349  1.0000
  Fe  Fe635     1.0  0.63890  0.56436  0.64632  1.0000
  S   S1261     1.0  0.62015  0.57836  0.65590  1.0000
  S   S1262     1.0  0.67249  0.53988  0.63318  1.0000
  S   S1263     1.0  0.65792  0.57192  0.63495  1.0000
  Fe  Fe636     1.0  0.62553  0.69659  0.68296  1.0000
  H   H7407     1.0  0.64218  0.66596  0.59493  1.0000
  H   H7408     1.0  0.56252  0.61541  0.60637  1.0000
  Fe  Fe637     1.0  0.61806  0.72676  0.67205  1.0000
  S   S1264     1.0  0.61413  0.70914  0.66698  1.0000
  S   S1265     1.0  0.73189  0.59596  0.72656  1.0000
  Fe  Fe638     1.0  0.59579  0.71045  0.68425  1.0000
  S   S1266     1.0  0.57608  0.70877  0.68025  1.0000
  H   H7409     1.0  0.49895  0.62892  0.65074  1.0000
  S   S1267     1.0  0.63127  0.71415  0.68656  1.0000
  Fe  Fe639     1.0  0.70162  0.69676  0.58549  1.0000
  S   S1268     1.0  0.71405  0.68318  0.60057  1.0000
  S   S1269     1.0  0.70208  0.69303  0.56511  1.0000
  Fe  Fe640     1.0  0.68669  0.71673  0.60377  1.0000
  S   S1270     1.0  0.69736  0.70468  0.62043  1.0000
  H   H7410     1.0  0.66055  0.66787  0.71585  1.0000
  Fe  Fe641     1.0  0.71647  0.70265  0.60401  1.0000
  Fe  Fe642     1.0  0.69400  0.68659  0.61559  1.0000
  S   S1271     1.0  0.68619  0.67060  0.63274  1.0000
  S   S1272     1.0  0.70600  0.71596  0.58745  1.0000
  S   S1273     1.0  0.68135  0.69885  0.60043  1.0000
  Fe  Fe643     1.0  0.71978  0.61686  0.68005  1.0000
  S   S1274     1.0  0.69688  0.62182  0.68432  1.0000
  S   S1275     1.0  0.73050  0.62380  0.65839  1.0000
  Fe  Fe644     1.0  0.69811  0.60095  0.69725  1.0000
  S   S1276     1.0  0.68080  0.59249  0.69589  1.0000
  S   S1277     1.0  0.72128  0.59522  0.69181  1.0000
  S   S1278     1.0  0.72079  0.62531  0.69704  1.0000
  H   H7411     1.0  0.66024  0.62990  0.59121  1.0000
  H   H7412     1.0  0.65337  0.65559  0.58356  1.0000
  C   C4325     1.0  0.88319  0.72036  0.71145  1.0000
  H   H7413     1.0  0.89252  0.71473  0.70599  1.0000
  H   H7414     1.0  0.63819  0.65103  0.69493  1.0000
  C   C4326     1.0  0.69928  0.65832  0.63935  1.0000
  C   C4327     1.0  0.70991  0.65070  0.63107  1.0000
  C   C4328     1.0  0.71980  0.64027  0.63684  1.0000
  C   C4329     1.0  0.71904  0.63755  0.65083  1.0000
  C   C4330     1.0  0.70882  0.64565  0.65889  1.0000
  C   C4331     1.0  0.69883  0.65586  0.65321  1.0000
  H   H7415     1.0  0.71029  0.65264  0.62031  1.0000
  H   H7416     1.0  0.72782  0.63413  0.63054  1.0000
  H   H7417     1.0  0.70859  0.64406  0.66956  1.0000
  H   H7418     1.0  0.69075  0.66187  0.65956  1.0000
  H   H7419     1.0  0.66478  0.68696  0.58090  1.0000
  H   H7420     1.0  0.64264  0.68025  0.70259  1.0000
  C   C4332     1.0  0.63647  0.63017  0.68229  1.0000
  H   H7421     1.0  0.61789  0.69215  0.60213  1.0000
  C   C4333     1.0  0.65518  0.72715  0.62862  1.0000
  S   S1279     1.0  0.68519  0.64726  0.71012  1.0000
  H   H7422     1.0  0.85908  0.71390  0.70882  1.0000
  H   H7423     1.0  0.54557  0.60551  0.64362  1.0000
  H   H7424     1.0  0.64056  0.72011  0.64670  1.0000
  H   H7425     1.0  0.66023  0.71709  0.62678  1.0000
  H   H7426     1.0  0.55077  0.64195  0.58888  1.0000
  C   C4334     1.0  0.66160  0.66606  0.70590  1.0000
  H   H7427     1.0  0.54915  0.63530  0.61387  1.0000
  H   H7428     1.0  0.64079  0.70646  0.54117  1.0000
  H   H7429     1.0  0.82773  0.71885  0.72267  1.0000
  C   C4335     1.0  0.64895  0.50053  0.64513  1.0000
  C   C4336     1.0  0.65652  0.50078  0.63179  1.0000
  C   C4337     1.0  0.63925  0.60421  0.70493  1.0000
  C   C4338     1.0  0.64552  0.61667  0.59602  1.0000
  H   H7430     1.0  0.61702  0.65318  0.68719  1.0000
  H   H7431     1.0  0.66097  0.50941  0.62619  1.0000
  H   H7432     1.0  0.65906  0.71319  0.65816  1.0000
  C   C4339     1.0  0.68484  0.56524  0.66673  1.0000
  C   C4340     1.0  0.69661  0.56655  0.66988  1.0000
  C   C4341     1.0  0.69555  0.57500  0.67864  1.0000
  C   C4342     1.0  0.68267  0.58204  0.68453  1.0000
  C   C4343     1.0  0.67089  0.58071  0.68142  1.0000
  C   C4344     1.0  0.67196  0.57243  0.67248  1.0000
  H   H7433     1.0  0.70659  0.56094  0.66553  1.0000
  H   H7434     1.0  0.70468  0.57585  0.68105  1.0000
  H   H7435     1.0  0.66088  0.58603  0.68600  1.0000
  H   H7436     1.0  0.66284  0.57145  0.67016  1.0000
  C   C4345     1.0  0.64190  0.59993  0.57392  1.0000
  C   C4346     1.0  0.63554  0.59120  0.58509  1.0000
  C   C4347     1.0  0.64345  0.58065  0.59314  1.0000
  C   C4348     1.0  0.65778  0.57854  0.58971  1.0000
  C   C4349     1.0  0.66411  0.58716  0.57843  1.0000
  C   C4350     1.0  0.65620  0.59797  0.57071  1.0000
  H   H7437     1.0  0.62447  0.59271  0.58764  1.0000
  H   H7438     1.0  0.63851  0.57397  0.60179  1.0000
  H   H7439     1.0  0.67519  0.58554  0.57575  1.0000
  H   H7440     1.0  0.66122  0.60464  0.56219  1.0000
  C   C4351     1.0  0.68472  0.65763  0.56435  1.0000
  C   C4352     1.0  0.68800  0.65822  0.57624  1.0000
  C   C4353     1.0  0.69316  0.66911  0.57663  1.0000
  C   C4354     1.0  0.69561  0.67922  0.56495  1.0000
  C   C4355     1.0  0.69264  0.67847  0.55295  1.0000
  C   C4356     1.0  0.68693  0.66786  0.55273  1.0000
  H   H7441     1.0  0.68643  0.65028  0.58524  1.0000
  H   H7442     1.0  0.69549  0.66955  0.58590  1.0000
  H   H7443     1.0  0.69455  0.68623  0.54387  1.0000
  H   H7444     1.0  0.68460  0.66742  0.54347  1.0000
  C   C4357     1.0  0.50996  0.65680  0.62982  1.0000
  H   H7445     1.0  0.57186  0.54477  0.68400  1.0000
  H   H7446     1.0  0.57514  0.73135  0.65141  1.0000
  H   H7447     1.0  0.72859  0.64004  0.71343  1.0000
  H   H7448     1.0  0.56702  0.59393  0.60220  1.0000
  C   C4358     1.0  0.74320  0.60509  0.72785  1.0000
  C   C4359     1.0  0.66081  0.70810  0.57163  1.0000
  H   H7449     1.0  0.64184  0.62038  0.67914  1.0000
  H   H7450     1.0  0.70637  0.72966  0.62815  1.0000
  C   C4360     1.0  0.69796  0.71248  0.66072  1.0000
  C   C4361     1.0  0.59215  0.60824  0.62910  1.0000
  C   C4362     1.0  0.59111  0.60981  0.64217  1.0000
  C   C4363     1.0  0.59969  0.60047  0.65034  1.0000
  C   C4364     1.0  0.60961  0.58980  0.64534  1.0000
  C   C4365     1.0  0.61072  0.58826  0.63223  1.0000
  C   C4366     1.0  0.60181  0.59733  0.62422  1.0000
  H   H7451     1.0  0.58370  0.61822  0.64600  1.0000
  H   H7452     1.0  0.59877  0.60167  0.66050  1.0000
  H   H7453     1.0  0.61835  0.58004  0.62830  1.0000
  H   H7454     1.0  0.60267  0.59614  0.61407  1.0000
  C   C4367     1.0  0.59130  0.68503  0.58852  1.0000
  C   C4368     1.0  0.59847  0.67210  0.58622  1.0000
  C   C4369     1.0  0.60780  0.67076  0.57372  1.0000
  C   C4370     1.0  0.60973  0.68236  0.56350  1.0000
  C   C4371     1.0  0.60223  0.69518  0.56577  1.0000
  C   C4372     1.0  0.59317  0.69652  0.57825  1.0000
  H   H7455     1.0  0.59689  0.66322  0.59412  1.0000
  H   H7456     1.0  0.61336  0.66080  0.57195  1.0000
  H   H7457     1.0  0.60356  0.70415  0.55788  1.0000
  H   H7458     1.0  0.58756  0.70651  0.57992  1.0000
  C   C4373     1.0  0.57312  0.66974  0.67041  1.0000
  C   C4374     1.0  0.58415  0.66968  0.67569  1.0000
  C   C4375     1.0  0.58525  0.68158  0.67869  1.0000
  C   C4376     1.0  0.57505  0.69349  0.67689  1.0000
  C   C4377     1.0  0.56384  0.69340  0.67199  1.0000
  C   C4378     1.0  0.56300  0.68167  0.66853  1.0000
  H   H7459     1.0  0.59194  0.66045  0.67731  1.0000
  H   H7460     1.0  0.59390  0.68151  0.68252  1.0000
  H   H7461     1.0  0.55580  0.70249  0.67078  1.0000
  H   H7462     1.0  0.55432  0.68174  0.66476  1.0000
  H   H7463     1.0  0.53152  0.62411  0.59309  1.0000
  H   H7464     1.0  0.84601  0.67312  0.71563  1.0000
  H   H7465     1.0  0.57644  0.72334  0.60999  1.0000
  C   C4379     1.0  0.65518  0.64112  0.49177  1.0000
  C   C4380     1.0  0.64084  0.64456  0.49444  1.0000
  H   H7466     1.0  0.56393  0.70707  0.62491  1.0000
  S   S1280     1.0  0.61131  0.71910  0.72309  1.0000
  H   H7467     1.0  0.62231  0.53396  0.64833  1.0000
  H   H7468     1.0  0.63511  0.64822  0.50355  1.0000
  H   H7469     1.0  0.62276  0.64625  0.48732  1.0000
  H   H7470     1.0  0.61674  0.61935  0.63400  1.0000
  H   H7471     1.0  0.60988  0.52906  0.68702  1.0000
  H   H7472     1.0  0.66688  0.69030  0.56313  1.0000
  N   N309      1.0  0.63424  0.62219  0.60712  1.0000
  C   C4381     1.0  0.69478  0.61092  0.65474  1.0000
  C   C4382     1.0  0.54095  0.64480  0.59611  1.0000
  H   H7473     1.0  0.71381  0.60398  0.61541  1.0000
  H   H7474     1.0  0.71004  0.58607  0.65162  1.0000
  H   H7475     1.0  0.69750  0.61356  0.61142  1.0000
  C   C4383     1.0  0.58302  0.54382  0.68279  1.0000
  H   H7476     1.0  0.60521  0.68281  0.65034  1.0000
  H   H7477     1.0  0.69592  0.59161  0.62262  1.0000
  C   C4384     1.0  0.64467  0.61378  0.51957  1.0000
  H   H7478     1.0  0.67418  0.68305  0.67919  1.0000
  H   H7479     1.0  0.52882  0.60918  0.60524  1.0000
  H   H7480     1.0  0.74722  0.61472  0.70666  1.0000
  H   H7481     1.0  0.84221  0.71865  0.72849  1.0000
  C   C4385     1.0  0.65832  0.62575  0.70815  1.0000
  C   C4386     1.0  0.65149  0.67305  0.69843  1.0000
  H   H7482     1.0  0.55286  0.59789  0.59393  1.0000
  H   H7483     1.0  0.66968  0.62383  0.70605  1.0000
  C   C4387     1.0  0.66757  0.69379  0.65312  1.0000
  H   H7484     1.0  0.60624  0.53308  0.63571  1.0000
  H   H7485     1.0  0.62209  0.68181  0.58999  1.0000
  H   H7486     1.0  0.63851  0.58758  0.50173  1.0000
  H   H7487     1.0  0.65589  0.68648  0.48661  1.0000
  C   C4388     1.0  0.64327  0.48918  0.65224  1.0000
  C   C4389     1.0  0.56864  0.70266  0.63388  1.0000
  H   H7488     1.0  0.64303  0.62112  0.58590  1.0000
  C   C4390     1.0  0.69131  0.58802  0.63341  1.0000
  H   H7489     1.0  0.59372  0.55089  0.64426  1.0000
  C   C4391     1.0  0.62170  0.64547  0.61397  1.0000
  N   N310      1.0  0.84463  0.70134  0.71994  1.0000
  C   C4392     1.0  0.87580  0.73234  0.70448  1.0000
  H   H7490     1.0  0.63867  0.60233  0.69525  1.0000
  C   C4393     1.0  0.49907  0.63806  0.64284  1.0000
  C   C4394     1.0  0.61756  0.53462  0.67992  1.0000
  H   H7491     1.0  0.64148  0.65058  0.67347  1.0000
  H   H7492     1.0  0.66515  0.65924  0.67046  1.0000
  H   H7493     1.0  0.85929  0.70151  0.70040  1.0000
  C   C4395     1.0  0.62097  0.62053  0.60530  1.0000
  H   H7494     1.0  0.60574  0.55466  0.67362  1.0000
  C   C4396     1.0  0.65269  0.67038  0.68575  1.0000
  H   H7495     1.0  0.62036  0.54972  0.66144  1.0000
  C   C4397     1.0  0.68584  0.70969  0.65708  1.0000
  H   H7496     1.0  0.51085  0.62248  0.62100  1.0000
  H   H7497     1.0  0.72637  0.60833  0.63606  1.0000
  H   H7498     1.0  0.63596  0.70496  0.58788  1.0000
  C   C4398     1.0  0.72922  0.64811  0.71799  1.0000
  C   C4399     1.0  0.61515  0.63055  0.59337  1.0000
  C   C4400     1.0  0.68053  0.62071  0.65711  1.0000
  C   C4401     1.0  0.65998  0.61897  0.59439  1.0000
  H   H7499     1.0  0.62995  0.60913  0.64237  1.0000
  C   C4402     1.0  0.63440  0.63678  0.60597  1.0000
  C   C4403     1.0  0.66408  0.66110  0.68039  1.0000
  H   H7500     1.0  0.60748  0.70575  0.63964  1.0000
  C   C4404     1.0  0.67288  0.65653  0.70062  1.0000
  H   H7501     1.0  0.64240  0.68816  0.59604  1.0000
  H   H7502     1.0  0.70443  0.70296  0.66532  1.0000
  C   C4405     1.0  0.63720  0.69415  0.58762  1.0000
  H   H7503     1.0  0.63572  0.64221  0.59511  1.0000
  H   H7504     1.0  0.56025  0.69934  0.64230  1.0000
  H   H7505     1.0  0.59697  0.52290  0.65054  1.0000
  C   C4406     1.0  0.85910  0.73477  0.72558  1.0000
  H   H7506     1.0  0.62906  0.69800  0.56379  1.0000
  H   H7507     1.0  0.76299  0.62746  0.70879  1.0000
  H   H7508     1.0  0.59260  0.57056  0.66170  1.0000
  H   H7509     1.0  0.65230  0.63741  0.66501  1.0000
  H   H7510     1.0  0.71558  0.58968  0.63388  1.0000
  C   C4407     1.0  0.63705  0.61322  0.62046  1.0000
  H   H7511     1.0  0.55248  0.61928  0.63232  1.0000
  H   H7512     1.0  0.57851  0.56412  0.66060  1.0000
  H   H7513     1.0  0.71140  0.63045  0.72590  1.0000
  H   H7514     1.0  0.66736  0.60089  0.50493  1.0000
  H   H7515     1.0  0.61265  0.62142  0.61446  1.0000
  C   C4408     1.0  0.67423  0.65435  0.68774  1.0000
  N   N311      1.0  0.63874  0.62992  0.69592  1.0000
  C   C4409     1.0  0.57347  0.71354  0.63763  1.0000
  H   H7516     1.0  0.64671  0.61770  0.50839  1.0000
  H   H7517     1.0  0.63365  0.59726  0.71322  1.0000
  H   H7518     1.0  0.64938  0.62003  0.52319  1.0000
  H   H7519     1.0  0.59294  0.72678  0.65256  1.0000
  C   C4410     1.0  0.62250  0.69178  0.59131  1.0000
  H   H7520     1.0  0.64352  0.63726  0.60923  1.0000
  C   C4411     1.0  0.62783  0.61753  0.63356  1.0000
  H   H7521     1.0  0.63775  0.67517  0.57175  1.0000
  H   H7522     1.0  0.73352  0.59099  0.64282  1.0000
  H   H7523     1.0  0.70228  0.61665  0.65479  1.0000
  H   H7524     1.0  0.69491  0.60252  0.66394  1.0000
  H   H7525     1.0  0.69048  0.70277  0.64987  1.0000
  H   H7526     1.0  0.73277  0.72780  0.58764  1.0000
  H   H7527     1.0  0.66005  0.66674  0.58871  1.0000
  H   H7528     1.0  0.55035  0.59318  0.61213  1.0000
  H   H7529     1.0  0.82645  0.70101  0.71366  1.0000
  H   H7530     1.0  0.51780  0.64107  0.64558  1.0000
  C   C4412     1.0  0.84176  0.68296  0.70929  1.0000
  H   H7531     1.0  0.67742  0.71299  0.68425  1.0000
  H   H7532     1.0  0.83378  0.68145  0.70504  1.0000
  H   H7533     1.0  0.85020  0.72308  0.68775  1.0000
  H   H7534     1.0  0.63483  0.64466  0.66304  1.0000
  H   H7535     1.0  0.71038  0.68266  0.64660  1.0000
  H   H7536     1.0  0.73222  0.65306  0.66329  1.0000
  H   H7537     1.0  0.65005  0.60119  0.70601  1.0000
  C   C4413     1.0  0.85468  0.69173  0.72816  1.0000
  H   H7538     1.0  0.69001  0.68423  0.66776  1.0000
  H   H7539     1.0  0.64995  0.68954  0.54643  1.0000
  C   C4414     1.0  0.59689  0.70396  0.64230  1.0000
  C   C4415     1.0  0.59439  0.71112  0.61856  1.0000
  H   H7540     1.0  0.67180  0.70840  0.56963  1.0000
  C   C4416     1.0  0.63899  0.70048  0.56302  1.0000
  H   H7541     1.0  0.65944  0.61786  0.69077  1.0000
  H   H7542     1.0  0.60090  0.72887  0.62771  1.0000
  H   H7543     1.0  0.58548  0.53751  0.69256  1.0000
  H   H7544     1.0  0.67961  0.68943  0.69681  1.0000
  H   H7545     1.0  0.65541  0.67392  0.56458  1.0000
  C   C4417     1.0  0.85225  0.70863  0.70673  1.0000
  H   H7546     1.0  0.65840  0.63543  0.68734  1.0000
  H   H7547     1.0  0.62149  0.53927  0.68596  1.0000
  H   H7548     1.0  0.70713  0.62315  0.63114  1.0000
  H   H7549     1.0  0.69342  0.67666  0.69047  1.0000
  H   H7550     1.0  0.62146  0.62059  0.70631  1.0000
  S   S1281     1.0  0.64002  0.67813  0.67647  1.0000
  S   S1282     1.0  0.60700  0.69663  0.70013  1.0000
  H   H7551     1.0  0.61026  0.64263  0.70319  1.0000
  N   N312      1.0  0.69885  0.60529  0.64202  1.0000
  C   C4418     1.0  0.63246  0.61900  0.70641  1.0000
  H   H7552     1.0  0.67207  0.61581  0.65803  1.0000
  C   C4419     1.0  0.60699  0.52562  0.64543  1.0000
  H   H7553     1.0  0.67867  0.62378  0.66689  1.0000
  H   H7554     1.0  0.63156  0.64228  0.71115  1.0000
  H   H7555     1.0  0.65667  0.70388  0.54591  1.0000
  H   H7556     1.0  0.54039  0.65514  0.59737  1.0000
  H   H7557     1.0  0.69456  0.71985  0.66745  1.0000
  H   H7558     1.0  0.63024  0.62654  0.63513  1.0000
  C   C4420     1.0  0.70607  0.61362  0.61576  1.0000
  H   H7559     1.0  0.65466  0.57849  0.55531  1.0000
  H   H7560     1.0  0.72276  0.67611  0.65692  1.0000
  H   H7561     1.0  0.55811  0.60251  0.62854  1.0000
  H   H7562     1.0  0.67404  0.69791  0.64334  1.0000
  H   H7563     1.0  0.59245  0.70549  0.65285  1.0000
  H   H7564     1.0  0.68602  0.60083  0.51479  1.0000
  H   H7565     1.0  0.49874  0.68247  0.64065  1.0000
  H   H7566     1.0  0.65428  0.63523  0.71209  1.0000
  C   C4421     1.0  0.74924  0.61375  0.71648  1.0000
  H   H7567     1.0  0.83605  0.71499  0.69496  1.0000
  H   H7568     1.0  0.62710  0.61989  0.53579  1.0000
  H   H7569     1.0  0.68184  0.58493  0.63374  1.0000
  C   C4422     1.0  0.64410  0.72884  0.63988  1.0000
  H   H7570     1.0  0.62548  0.63084  0.68274  1.0000
  H   H7571     1.0  0.57041  0.71235  0.64885  1.0000
  H   H7572     1.0  0.64661  0.60552  0.59756  1.0000
  C   C4423     1.0  0.61155  0.54594  0.66886  1.0000
  H   H7573     1.0  0.61161  0.64105  0.59502  1.0000
  H   H7574     1.0  0.59447  0.52566  0.67577  1.0000
  H   H7575     1.0  0.83785  0.72835  0.70192  1.0000
  C   C4424     1.0  0.49939  0.66168  0.62262  1.0000
  H   H7576     1.0  0.62245  0.63054  0.58346  1.0000
  C   C4425     1.0  0.63386  0.64344  0.48521  1.0000
  S   S1283     1.0  0.69741  0.60806  0.71587  1.0000
  H   H7577     1.0  0.67883  0.60688  0.63845  1.0000
  H   H7578     1.0  0.68318  0.64764  0.68331  1.0000
  H   H7579     1.0  0.59368  0.70095  0.61804  1.0000
  H   H7580     1.0  0.63455  0.60491  0.50304  1.0000
  H   H7581     1.0  0.63243  0.61956  0.71686  1.0000
  N   N313      1.0  0.54014  0.62055  0.61067  1.0000
  C   C4426     1.0  0.54026  0.63501  0.61016  1.0000
  C   C4427     1.0  0.53730  0.61330  0.62540  1.0000
  C   C4428     1.0  0.52916  0.61993  0.60424  1.0000
  C   C4429     1.0  0.55388  0.61410  0.60292  1.0000
  H   H7582     1.0  0.60326  0.68559  0.63344  1.0000
  H   H7583     1.0  0.65568  0.69936  0.67186  1.0000
  C   C4430     1.0  0.51444  0.62718  0.61018  1.0000
  C   C4431     1.0  0.55599  0.59895  0.60281  1.0000
  H   H7584     1.0  0.65579  0.71139  0.58136  1.0000
  H   H7585     1.0  0.58715  0.57455  0.64624  1.0000
  H   H7586     1.0  0.70462  0.71700  0.65126  1.0000
  H   H7587     1.0  0.52833  0.61946  0.63142  1.0000
  H   H7588     1.0  0.58848  0.68569  0.64774  1.0000
  H   H7589     1.0  0.55563  0.61945  0.59207  1.0000
  C   C4432     1.0  0.50978  0.64489  0.63991  1.0000
  H   H7590     1.0  0.70131  0.65411  0.72414  1.0000
  H   H7591     1.0  0.64768  0.61234  0.62124  1.0000
  H   H7592     1.0  0.60559  0.71091  0.61559  1.0000
  C   C4433     1.0  0.71193  0.59455  0.64274  1.0000
  H   H7593     1.0  0.66171  0.70802  0.68758  1.0000
  H   H7594     1.0  0.87517  0.69124  0.71464  1.0000
  H   H7595     1.0  0.84976  0.68590  0.70031  1.0000
  H   H7596     1.0  0.50728  0.62623  0.60457  1.0000
  H   H7597     1.0  0.51345  0.63820  0.60910  1.0000
  C   C4434     1.0  0.86829  0.68418  0.72034  1.0000
  C   C4435     1.0  0.73990  0.72027  0.60624  1.0000
  H   H7598     1.0  0.59116  0.71701  0.59795  1.0000
  C   C4436     1.0  0.83519  0.69390  0.71784  1.0000
  C   C4437     1.0  0.58779  0.72132  0.60722  1.0000
  C   C4438     1.0  0.65994  0.69345  0.57242  1.0000
  H   H7599     1.0  0.61620  0.52153  0.66228  1.0000
  H   H7600     1.0  0.63855  0.59589  0.54356  1.0000
  H   H7601     1.0  0.74936  0.64508  0.66562  1.0000
  H   H7602     1.0  0.65308  0.60200  0.54222  1.0000
  H   H7603     1.0  0.63625  0.71123  0.56408  1.0000
  H   H7604     1.0  0.74853  0.71553  0.62386  1.0000
  Fe  Fe645     1.0  0.72045  0.60423  0.70944  1.0000
  H   H7605     1.0  0.61591  0.69996  0.58521  1.0000
  H   H7606     1.0  0.61430  0.51627  0.64267  1.0000
  N   N314      1.0  0.64582  0.69120  0.57416  1.0000
  C   C4439     1.0  0.84335  0.71931  0.69749  1.0000
  H   H7607     1.0  0.67258  0.68320  0.65716  1.0000
  C   C4440     1.0  0.64165  0.64129  0.67035  1.0000
  N   N315      1.0  0.58850  0.71389  0.63265  1.0000
  C   C4441     1.0  0.68795  0.68745  0.68780  1.0000
  H   H7608     1.0  0.60805  0.55732  0.64356  1.0000
  H   H7609     1.0  0.68070  0.71934  0.65108  1.0000
  C   C4442     1.0  0.66955  0.71254  0.67924  1.0000
  H   H7610     1.0  0.62445  0.62704  0.51871  1.0000
  H   H7611     1.0  0.65201  0.59656  0.49651  1.0000
  H   H7612     1.0  0.53215  0.64578  0.59168  1.0000
  H   H7613     1.0  0.65529  0.61702  0.71608  1.0000
  C   C4443     1.0  0.58873  0.56633  0.65532  1.0000
  C   C4444     1.0  0.68192  0.68939  0.67536  1.0000
  H   H7614     1.0  0.66825  0.57862  0.54053  1.0000
  H   H7615     1.0  0.72254  0.60128  0.65423  1.0000
  H   H7616     1.0  0.69065  0.62436  0.62951  1.0000
  C   C4445     1.0  0.54914  0.61003  0.63272  1.0000
  H   H7617     1.0  0.71149  0.62155  0.60890  1.0000
  S   S1284     1.0  0.73480  0.70463  0.61044  1.0000
  C   C4446     1.0  0.61725  0.64966  0.69812  1.0000
  C   C4447     1.0  0.64726  0.67666  0.57349  1.0000
  H   H7618     1.0  0.62349  0.61001  0.52626  1.0000
  C   C4448     1.0  0.59889  0.55381  0.65060  1.0000
  H   H7619     1.0  0.65664  0.71553  0.56319  1.0000
  H   H7620     1.0  0.61767  0.65495  0.60701  1.0000
  H   H7621     1.0  0.74408  0.66285  0.66323  1.0000
  C   C4449     1.0  0.83590  0.71200  0.72787  1.0000
  N   N316      1.0  0.67556  0.70374  0.66884  1.0000
  H   H7622     1.0  0.61306  0.64041  0.61898  1.0000
  H   H7623     1.0  0.53416  0.60365  0.62670  1.0000
  H   H7624     1.0  0.67121  0.58581  0.51718  1.0000
  H   H7625     1.0  0.67538  0.59994  0.53144  1.0000
  H   H7626     1.0  0.60603  0.62754  0.59260  1.0000
  C   C4450     1.0  0.64961  0.59491  0.53843  1.0000
  C   C4451     1.0  0.62909  0.61779  0.52552  1.0000
  H   H7627     1.0  0.62456  0.64862  0.62187  1.0000
  H   H7628     1.0  0.66713  0.61413  0.58609  1.0000
  C   C4452     1.0  0.65694  0.58029  0.54404  1.0000
  H   H7629     1.0  0.65115  0.57971  0.51943  1.0000
  C   C4453     1.0  0.64724  0.69993  0.54838  1.0000
  H   H7630     1.0  0.58442  0.55416  0.68156  1.0000
  C   C4454     1.0  0.73761  0.72992  0.59446  1.0000
  H   H7631     1.0  0.66423  0.61424  0.60357  1.0000
  C   C4455     1.0  0.64477  0.59025  0.51879  1.0000
  C   C4456     1.0  0.58569  0.73241  0.64590  1.0000
  C   C4457     1.0  0.66627  0.59683  0.51606  1.0000
  C   C4458     1.0  0.64242  0.59525  0.50417  1.0000
  N   N317      1.0  0.65132  0.59894  0.52324  1.0000
  H   H7632     1.0  0.63475  0.58898  0.52577  1.0000
  C   C4459     1.0  0.61277  0.53071  0.65466  1.0000
  H   H7633     1.0  0.67211  0.61475  0.51799  1.0000
  C   C4460     1.0  0.70062  0.61696  0.62999  1.0000
  Fe  Fe646     1.0  0.69794  0.62855  0.70236  1.0000
  H   H7634     1.0  0.70641  0.73117  0.61089  1.0000
  C   C4461     1.0  0.63200  0.64330  0.70020  1.0000
  C   C4462     1.0  0.65397  0.62715  0.69486  1.0000
  H   H7635     1.0  0.65320  0.57260  0.54150  1.0000
  H   H7636     1.0  0.83000  0.68844  0.72779  1.0000
  S   S1285     1.0  0.59861  0.72953  0.68810  1.0000
  C   C4463     1.0  0.74656  0.72300  0.61481  1.0000
  H   H7637     1.0  0.56707  0.72347  0.63348  1.0000
  H   H7638     1.0  0.69532  0.69386  0.68606  1.0000
  C   C4464     1.0  0.59004  0.72793  0.63216  1.0000
  H   H7639     1.0  0.58364  0.53678  0.66503  1.0000
  C   C4465     1.0  0.75822  0.62092  0.71771  1.0000
  H   H7640     1.0  0.63630  0.60263  0.62112  1.0000
  C   C4466     1.0  0.67525  0.60352  0.52051  1.0000
  C   C4467     1.0  0.61822  0.73207  0.72478  1.0000
  H   H7641     1.0  0.53114  0.63964  0.61719  1.0000
  H   H7642     1.0  0.49947  0.67085  0.61476  1.0000
  N   N318      1.0  0.60326  0.54187  0.66155  1.0000
  H   H7643     1.0  0.69823  0.57865  0.63775  1.0000
  Fe  Fe647     1.0  0.61165  0.71564  0.70245  1.0000
  C   C4468     1.0  0.68751  0.59895  0.64195  1.0000
  C   C4469     1.0  0.72417  0.59928  0.64399  1.0000
  C   C4470     1.0  0.65090  0.66577  0.58599  1.0000
  H   H7644     1.0  0.62214  0.61006  0.60394  1.0000
  N   N319      1.0  0.74540  0.66829  0.63520  1.0000
  C   C4471     1.0  0.75255  0.66664  0.62089  1.0000
  C   C4472     1.0  0.75082  0.67883  0.63817  1.0000
  C   C4473     1.0  0.73016  0.67313  0.63572  1.0000
  C   C4474     1.0  0.74843  0.65464  0.64464  1.0000
  C   C4475     1.0  0.74735  0.65745  0.61511  1.0000
  C   C4476     1.0  0.76628  0.67516  0.63803  1.0000
  C   C4477     1.0  0.72137  0.68130  0.64655  1.0000
  C   C4478     1.0  0.74305  0.65409  0.65999  1.0000
  H   H7645     1.0  0.75172  0.67673  0.61369  1.0000
  H   H7646     1.0  0.76373  0.66224  0.62007  1.0000
  H   H7647     1.0  0.74544  0.68136  0.64817  1.0000
  H   H7648     1.0  0.74881  0.68861  0.63071  1.0000
  H   H7649     1.0  0.72820  0.67977  0.62587  1.0000
  H   H7650     1.0  0.72551  0.66442  0.63718  1.0000
  H   H7651     1.0  0.74387  0.64728  0.64250  1.0000
  H   H7652     1.0  0.75958  0.64979  0.64274  1.0000
  H   H7653     1.0  0.74931  0.64671  0.62070  1.0000
  H   H7654     1.0  0.73632  0.66111  0.61490  1.0000
  H   H7655     1.0  0.75303  0.65756  0.60441  1.0000
  H   H7656     1.0  0.76919  0.66561  0.64540  1.0000
  H   H7657     1.0  0.77273  0.67457  0.62773  1.0000
  H   H7658     1.0  0.76878  0.68338  0.64106  1.0000
  H   H7659     1.0  0.72347  0.69163  0.64395  1.0000
  C   C4479     1.0  0.59109  0.53657  0.67094  1.0000
  C   C4480     1.0  0.66389  0.70301  0.66339  1.0000
  C   C4481     1.0  0.59841  0.68873  0.64325  1.0000
  H   H7660     1.0  0.57649  0.69337  0.63217  1.0000
  H   H7661     1.0  0.62649  0.52731  0.67536  1.0000
  H   H7662     1.0  0.67005  0.73302  0.66605  1.0000
  H   H7663     1.0  0.72269  0.65791  0.71395  1.0000
  H   H7664     1.0  0.61311  0.65884  0.70260  1.0000
  H   H7665     1.0  0.74001  0.64933  0.71449  1.0000
  C   C4482     1.0  0.65849  0.48975  0.62570  1.0000
  H   H7666     1.0  0.59118  0.73104  0.60444  1.0000
  H   H7667     1.0  0.77750  0.59279  0.72212  1.0000
  H   H7668     1.0  0.78642  0.57559  0.72644  1.0000
  H   H7669     1.0  0.79971  0.59118  0.72715  1.0000
  C   C4483     1.0  0.66275  0.72751  0.67394  1.0000
  H   H7670     1.0  0.68861  0.48608  0.64160  1.0000
  H   H7671     1.0  0.65354  0.72858  0.67009  1.0000
  H   H7672     1.0  0.87377  0.67640  0.72776  1.0000
  H   H7673     1.0  0.65910  0.73285  0.68253  1.0000
  H   H7674     1.0  0.86683  0.67878  0.71337  1.0000
  C   C4484     1.0  0.87834  0.71541  0.72540  1.0000
  H   H7675     1.0  0.63738  0.48889  0.66256  1.0000
  H   H7676     1.0  0.66447  0.49002  0.61540  1.0000
  Fe  Fe648     1.0  0.85040  0.55331  0.85984  1.0000
  S   S1286     1.0  0.83011  0.56606  0.86864  1.0000
  Fe  Fe649     1.0  0.86272  0.57793  0.84560  1.0000
  S   S1287     1.0  0.84352  0.59231  0.85308  1.0000
  S   S1288     1.0  0.87943  0.58794  0.83115  1.0000
  Fe  Fe650     1.0  0.84258  0.57793  0.87325  1.0000
  S   S1289     1.0  0.83407  0.58949  0.89033  1.0000
  Fe  Fe651     1.0  0.83255  0.57971  0.84785  1.0000
  S   S1290     1.0  0.81432  0.59261  0.83938  1.0000
  S   S1291     1.0  0.86282  0.56418  0.86619  1.0000
  S   S1292     1.0  0.85188  0.56624  0.83861  1.0000
  Fe  Fe652     1.0  0.85996  0.62025  0.93476  1.0000
  S   S1293     1.0  0.85619  0.63996  0.91974  1.0000
  S   S1294     1.0  0.86673  0.60049  0.92745  1.0000
  S   S1295     1.0  0.84695  0.65477  0.94581  1.0000
  Fe  Fe653     1.0  0.83707  0.64545  0.93536  1.0000
  S   S1296     1.0  0.81646  0.65621  0.93037  1.0000
  Fe  Fe654     1.0  0.86643  0.64741  0.93147  1.0000
  S   S1297     1.0  0.87986  0.66227  0.92069  1.0000
  S   S1298     1.0  0.87208  0.62720  0.94538  1.0000
  Fe  Fe655     1.0  0.92973  0.61618  0.85216  1.0000
  S   S1299     1.0  0.92113  0.63510  0.83818  1.0000
  S   S1300     1.0  0.92131  0.59714  0.85939  1.0000
  Fe  Fe656     1.0  0.95000  0.62923  0.85797  1.0000
  S   S1301     1.0  0.94289  0.64925  0.84454  1.0000
  C   C4485     1.0  0.92003  0.64675  0.92650  1.0000
  Fe  Fe657     1.0  0.92158  0.64586  0.85369  1.0000
  S   S1302     1.0  0.90424  0.66357  0.85834  1.0000
  Fe  Fe658     1.0  0.94306  0.63686  0.83008  1.0000
  S   S1303     1.0  0.95280  0.64392  0.80815  1.0000
  S   S1304     1.0  0.92845  0.62688  0.86846  1.0000
  S   S1305     1.0  0.95184  0.61692  0.84279  1.0000
  H   H7677     1.0  0.90272  0.70612  0.79079  1.0000
  H   H7678     1.0  0.72932  0.62708  0.75869  1.0000
  C   C4486     1.0  0.84714  0.50007  0.84543  1.0000
  N   N320      1.0  0.93413  0.64590  0.90200  1.0000
  C   C4487     1.0  0.84443  0.52346  0.84751  1.0000
  H   H7679     1.0  0.65192  0.70752  0.82582  1.0000
  H   H7680     1.0  0.76759  0.68480  0.81355  1.0000
  C   C4488     1.0  0.70930  0.64038  0.75537  1.0000
  H   H7681     1.0  0.91929  0.67075  0.88682  1.0000
  Fe  Fe659     1.0  0.79544  0.61633  0.77142  1.0000
  S   S1306     1.0  0.77322  0.61847  0.77157  1.0000
  S   S1307     1.0  0.80971  0.59706  0.77940  1.0000
  Fe  Fe660     1.0  0.79582  0.64546  0.75669  1.0000
  S   S1308     1.0  0.77385  0.65009  0.75540  1.0000
  H   H7682     1.0  0.77179  0.58284  0.73845  1.0000
  Fe  Fe661     1.0  0.77036  0.63860  0.77701  1.0000
  S   S1309     1.0  0.75288  0.64926  0.79132  1.0000
  Fe  Fe662     1.0  0.77862  0.62980  0.74993  1.0000
  H   H7683     1.0  0.72626  0.72372  0.88616  1.0000
  S   S1310     1.0  0.79207  0.63539  0.77872  1.0000
  S   S1311     1.0  0.80114  0.62614  0.74932  1.0000
  Fe  Fe663     1.0  0.79181  0.66745  0.86491  1.0000
  S   S1312     1.0  0.76992  0.66545  0.87244  1.0000
  S   S1313     1.0  0.81017  0.65402  0.87305  1.0000
  Fe  Fe664     1.0  0.78604  0.68771  0.83925  1.0000
  S   S1314     1.0  0.76377  0.68724  0.84399  1.0000
  S   S1315     1.0  0.79636  0.70038  0.82044  1.0000
  Fe  Fe665     1.0  0.76434  0.68816  0.86496  1.0000
  S   S1316     1.0  0.74857  0.70277  0.87695  1.0000
  Fe  Fe666     1.0  0.77101  0.66470  0.85098  1.0000
  S   S1317     1.0  0.76547  0.64693  0.84749  1.0000
  S   S1318     1.0  0.78630  0.69023  0.85960  1.0000
  S   S1319     1.0  0.79323  0.66515  0.84397  1.0000
  Fe  Fe667     1.0  0.89493  0.67646  0.76833  1.0000
  S   S1320     1.0  0.88134  0.69471  0.77625  1.0000
  S   S1321     1.0  0.91778  0.67422  0.76364  1.0000
  Fe  Fe668     1.0  0.87095  0.66552  0.76813  1.0000
  S   S1322     1.0  0.85546  0.68281  0.77596  1.0000
  S   S1323     1.0  0.86445  0.64785  0.76537  1.0000
  Fe  Fe669     1.0  0.86918  0.69601  0.76113  1.0000
  S   S1324     1.0  0.85885  0.71608  0.74955  1.0000
  Fe  Fe670     1.0  0.86899  0.67994  0.79018  1.0000
  S   S1325     1.0  0.86041  0.67882  0.81257  1.0000
  S   S1326     1.0  0.88369  0.67885  0.75205  1.0000
  S   S1327     1.0  0.88360  0.66157  0.78351  1.0000
  H   H7684     1.0  0.86653  0.64114  0.79524  1.0000
  C   C4489     1.0  0.80354  0.56746  0.74515  1.0000
  H   H7685     1.0  0.91222  0.64686  0.90936  1.0000
  H   H7686     1.0  0.88127  0.53958  0.85474  1.0000
  C   C4490     1.0  0.92929  0.66547  0.88142  1.0000
  C   C4491     1.0  0.81419  0.69525  0.81883  1.0000
  C   C4492     1.0  0.82291  0.70042  0.80688  1.0000
  C   C4493     1.0  0.83716  0.69560  0.80508  1.0000
  C   C4494     1.0  0.84271  0.68569  0.81526  1.0000
  C   C4495     1.0  0.83403  0.68092  0.82745  1.0000
  C   C4496     1.0  0.81977  0.68566  0.82922  1.0000
  H   H7687     1.0  0.81866  0.70804  0.79895  1.0000
  H   H7688     1.0  0.84384  0.69967  0.79583  1.0000
  H   H7689     1.0  0.83829  0.67331  0.83538  1.0000
  H   H7690     1.0  0.81312  0.68182  0.83858  1.0000
  C   C4497     1.0  0.73258  0.71004  0.87244  1.0000
  C   C4498     1.0  0.72893  0.70594  0.86259  1.0000
  C   C4499     1.0  0.71648  0.71253  0.85859  1.0000
  H   H7691     1.0  0.96371  0.63868  0.89601  1.0000
  H   H7692     1.0  0.73568  0.69767  0.85808  1.0000
  H   H7693     1.0  0.71374  0.70931  0.85095  1.0000
  C   C4500     1.0  0.93253  0.65006  0.88748  1.0000
  C   C4501     1.0  0.75694  0.64888  0.80659  1.0000
  C   C4502     1.0  0.76619  0.63778  0.81230  1.0000
  C   C4503     1.0  0.76883  0.63732  0.82483  1.0000
  C   C4504     1.0  0.76273  0.64822  0.83139  1.0000
  C   C4505     1.0  0.75387  0.65958  0.82543  1.0000
  C   C4506     1.0  0.75079  0.65979  0.81316  1.0000
  H   H7694     1.0  0.77089  0.62930  0.80734  1.0000
  H   H7695     1.0  0.77555  0.62846  0.82947  1.0000
  H   H7696     1.0  0.74898  0.66793  0.83056  1.0000
  H   H7697     1.0  0.74362  0.66839  0.80876  1.0000
  C   C4507     1.0  0.82279  0.65808  0.75429  1.0000
  C   C4508     1.0  0.82992  0.64455  0.75713  1.0000
  C   C4509     1.0  0.84280  0.64146  0.76039  1.0000
  C   C4510     1.0  0.84835  0.65184  0.76123  1.0000
  C   C4511     1.0  0.84096  0.66530  0.75884  1.0000
  C   C4512     1.0  0.82829  0.66841  0.75523  1.0000
  H   H7698     1.0  0.69835  0.64052  0.76048  1.0000
  H   H7699     1.0  0.86803  0.62059  0.79283  1.0000
  H   H7700     1.0  0.84515  0.67334  0.75944  1.0000
  H   H7701     1.0  0.68813  0.63127  0.73985  1.0000
  H   H7702     1.0  0.81007  0.65134  0.80707  1.0000
  C   C4513     1.0  0.78351  0.68969  0.79520  1.0000
  H   H7703     1.0  0.78592  0.59880  0.93458  1.0000
  N   N321      1.0  0.66247  0.72210  0.84166  1.0000
  C   C4514     1.0  0.97858  0.63336  0.86857  1.0000
  C   C4515     1.0  0.79342  0.67254  0.78078  1.0000
  C   C4516     1.0  0.80768  0.67757  0.79285  1.0000
  H   H7704     1.0  0.82259  0.59562  0.74642  1.0000
  H   H7705     1.0  0.79261  0.56947  0.77726  1.0000
  C   C4517     1.0  0.77968  0.67107  0.77925  1.0000
  H   H7706     1.0  0.85535  0.62335  0.78366  1.0000
  H   H7707     1.0  0.92845  0.66701  0.87075  1.0000
  H   H7708     1.0  0.77951  0.66363  0.80728  1.0000
  C   C4518     1.0  0.90172  0.53897  0.85585  1.0000
  C   C4519     1.0  0.97800  0.64637  0.86029  1.0000
  H   H7709     1.0  0.75698  0.61021  0.75159  1.0000
  H   H7710     1.0  0.83026  0.67969  0.91018  1.0000
  C   C4520     1.0  0.84177  0.51412  0.84167  1.0000
  H   H7711     1.0  0.91697  0.66175  0.90859  1.0000
  H   H7712     1.0  0.91264  0.53553  0.85101  1.0000
  C   C4521     1.0  0.89440  0.66257  0.81516  1.0000
  S   S1328     1.0  0.84014  0.62523  0.94974  1.0000
  H   H7713     1.0  0.79656  0.68045  0.77180  1.0000
  C   C4522     1.0  0.94282  0.65136  0.79583  1.0000
  C   C4523     1.0  0.94818  0.66006  0.78404  1.0000
  C   C4524     1.0  0.94050  0.66666  0.77415  1.0000
  C   C4525     1.0  0.92736  0.66463  0.77589  1.0000
  C   C4526     1.0  0.92208  0.65555  0.78747  1.0000
  C   C4527     1.0  0.92982  0.64891  0.79746  1.0000
  H   H7714     1.0  0.95829  0.66184  0.78262  1.0000
  H   H7715     1.0  0.94469  0.67355  0.76518  1.0000
  H   H7716     1.0  0.91208  0.65367  0.78869  1.0000
  H   H7717     1.0  0.92583  0.64183  0.80634  1.0000
  C   C4528     1.0  0.88576  0.66242  0.90333  1.0000
  C   C4529     1.0  0.89055  0.65027  0.89870  1.0000
  C   C4530     1.0  0.89662  0.65050  0.88491  1.0000
  C   C4531     1.0  0.89716  0.66292  0.87567  1.0000
  C   C4532     1.0  0.89178  0.67508  0.88023  1.0000
  C   C4533     1.0  0.88640  0.67481  0.89409  1.0000
  H   H7718     1.0  0.89022  0.64069  0.90591  1.0000
  H   H7719     1.0  0.90094  0.64109  0.88145  1.0000
  H   H7720     1.0  0.89221  0.68470  0.87311  1.0000
  H   H7721     1.0  0.88275  0.68421  0.89768  1.0000
  C   C4534     1.0  0.81434  0.65523  0.91471  1.0000
  C   C4535     1.0  0.80262  0.66307  0.90994  1.0000
  C   C4536     1.0  0.80106  0.66266  0.89720  1.0000
  C   C4537     1.0  0.81122  0.65435  0.88929  1.0000
  C   C4538     1.0  0.82276  0.64631  0.89420  1.0000
  C   C4539     1.0  0.82432  0.64678  0.90686  1.0000
  H   H7722     1.0  0.79483  0.66961  0.91603  1.0000
  H   H7723     1.0  0.79211  0.66889  0.89344  1.0000
  H   H7724     1.0  0.83054  0.63978  0.88818  1.0000
  H   H7725     1.0  0.83321  0.64056  0.91057  1.0000
  C   C4540     1.0  0.89223  0.58949  0.83825  1.0000
  C   C4541     1.0  0.90010  0.59924  0.83147  1.0000
  C   C4542     1.0  0.90957  0.60133  0.83754  1.0000
  C   C4543     1.0  0.91124  0.59358  0.85040  1.0000
  C   C4544     1.0  0.90389  0.58336  0.85681  1.0000
  C   C4545     1.0  0.89431  0.58142  0.85083  1.0000
  H   H7726     1.0  0.89864  0.60543  0.82165  1.0000
  H   H7727     1.0  0.91534  0.60912  0.83245  1.0000
  H   H7728     1.0  0.90520  0.57730  0.86671  1.0000
  H   H7729     1.0  0.88835  0.57386  0.85611  1.0000
  C   C4546     1.0  0.84437  0.59283  0.89926  1.0000
  C   C4547     1.0  0.85527  0.58288  0.90367  1.0000
  C   C4548     1.0  0.86219  0.58539  0.91218  1.0000
  C   C4549     1.0  0.85831  0.59786  0.91626  1.0000
  C   C4550     1.0  0.84773  0.60796  0.91144  1.0000
  C   C4551     1.0  0.84077  0.60545  0.90300  1.0000
  H   H7730     1.0  0.85808  0.57309  0.90091  1.0000
  H   H7731     1.0  0.87043  0.57754  0.91581  1.0000
  H   H7732     1.0  0.84481  0.61761  0.91444  1.0000
  H   H7733     1.0  0.83245  0.61324  0.89948  1.0000
  C   C4552     1.0  0.81325  0.59338  0.82276  1.0000
  C   C4553     1.0  0.82343  0.58563  0.81430  1.0000
  C   C4554     1.0  0.82225  0.58671  0.80100  1.0000
  C   C4555     1.0  0.81096  0.59559  0.79613  1.0000
  C   C4556     1.0  0.80080  0.60330  0.80463  1.0000
  C   C4557     1.0  0.80196  0.60220  0.81790  1.0000
  H   H7734     1.0  0.83215  0.57878  0.81800  1.0000
  H   H7735     1.0  0.83011  0.58069  0.79446  1.0000
  H   H7736     1.0  0.79198  0.61003  0.80103  1.0000
  H   H7737     1.0  0.79404  0.60817  0.82442  1.0000
  H   H7738     1.0  0.83545  0.51779  0.83424  1.0000
  H   H7739     1.0  0.84020  0.53423  0.84452  1.0000
  H   H7740     1.0  0.93334  0.61142  0.90831  1.0000
  N   N322      1.0  0.79128  0.61731  0.87500  1.0000
  C   C4558     1.0  0.79136  0.60609  0.86855  1.0000
  C   C4559     1.0  0.80097  0.61174  0.88452  1.0000
  C   C4560     1.0  0.79593  0.62905  0.86440  1.0000
  C   C4561     1.0  0.77680  0.62240  0.88240  1.0000
  C   C4562     1.0  0.78382  0.61043  0.85679  1.0000
  C   C4563     1.0  0.79699  0.60041  0.89679  1.0000
  C   C4564     1.0  0.81048  0.62576  0.85551  1.0000
  C   C4565     1.0  0.77523  0.63162  0.89226  1.0000
  H   H7741     1.0  0.80203  0.60065  0.86477  1.0000
  H   H7742     1.0  0.78652  0.59812  0.87621  1.0000
  H   H7743     1.0  0.80253  0.61996  0.88833  1.0000
  H   H7744     1.0  0.81137  0.60725  0.87902  1.0000
  H   H7745     1.0  0.78875  0.63379  0.85751  1.0000
  H   H7746     1.0  0.79566  0.63736  0.86912  1.0000
  H   H7747     1.0  0.77023  0.62823  0.87503  1.0000
  H   H7748     1.0  0.77207  0.61368  0.88841  1.0000
  H   H7749     1.0  0.78375  0.60121  0.85358  1.0000
  H   H7750     1.0  0.77298  0.61578  0.85978  1.0000
  H   H7751     1.0  0.78919  0.61683  0.84773  1.0000
  H   H7752     1.0  0.80439  0.59780  0.90343  1.0000
  H   H7753     1.0  0.78664  0.60347  0.90309  1.0000
  H   H7754     1.0  0.79776  0.59098  0.89351  1.0000
  H   H7755     1.0  0.81183  0.61746  0.85031  1.0000
  H   H7756     1.0  0.81848  0.62326  0.86145  1.0000
  H   H7757     1.0  0.81221  0.63494  0.84750  1.0000
  H   H7758     1.0  0.76551  0.63946  0.89200  1.0000
  H   H7759     1.0  0.78356  0.63712  0.88981  1.0000
  H   H7760     1.0  0.77400  0.62578  0.90292  1.0000
  H   H7761     1.0  0.92139  0.67772  0.79791  1.0000
  H   H7762     1.0  0.82316  0.68946  0.78269  1.0000
  H   H7763     1.0  0.78829  0.62182  0.92536  1.0000
  H   H7764     1.0  0.74143  0.59709  0.74937  1.0000
  C   C4566     1.0  0.98907  0.62776  0.87584  1.0000
  H   H7765     1.0  0.71576  0.61808  0.76247  1.0000
  H   H7766     1.0  0.80025  0.64690  0.79773  1.0000
  S   S1329     1.0  0.80709  0.66244  0.74939  1.0000
  C   C4567     1.0  0.80391  0.58813  0.75240  1.0000
  C   C4568     1.0  0.79968  0.65117  0.80645  1.0000
  C   C4569     1.0  0.70097  0.66761  0.73659  1.0000
  H   H7767     1.0  0.82570  0.63651  0.75642  1.0000
  C   C4570     1.0  0.84797  0.67227  0.89442  1.0000
  H   H7768     1.0  0.61601  0.72490  0.74643  1.0000
  H   H7769     1.0  0.79632  0.62982  0.94524  1.0000
  C   C4571     1.0  0.65307  0.71435  0.85294  1.0000
  H   H7770     1.0  0.82797  0.58941  0.92755  1.0000
  H   H7771     1.0  0.83556  0.69964  0.74885  1.0000
  H   H7772     1.0  0.79962  0.62761  0.90978  1.0000
  H   H7773     1.0  0.81640  0.54801  0.75230  1.0000
  H   H7774     1.0  0.77417  0.66513  0.78849  1.0000
  H   H7775     1.0  0.82270  0.67882  0.75317  1.0000
  C   C4572     1.0  0.82846  0.70673  0.74256  1.0000
  C   C4573     1.0  0.80607  0.62261  0.94705  1.0000
  C   C4574     1.0  0.79081  0.58989  0.73584  1.0000
  C   C4575     1.0  0.65856  0.72466  0.82824  1.0000
  H   H7776     1.0  0.81550  0.66853  0.78993  1.0000
  H   H7777     1.0  0.80293  0.55403  0.76542  1.0000
  C   C4576     1.0  0.68803  0.72146  0.82988  1.0000
  H   H7778     1.0  0.96994  0.65084  0.85472  1.0000
  C   C4577     1.0  0.81043  0.61575  0.92569  1.0000
  N   N323      1.0  0.89416  0.53753  0.83496  1.0000
  C   C4578     1.0  0.89206  0.55280  0.83020  1.0000
  C   C4579     1.0  0.88332  0.53321  0.83116  1.0000
  C   C4580     1.0  0.90841  0.53106  0.82810  1.0000
  C   C4581     1.0  0.89227  0.55853  0.81494  1.0000
  C   C4582     1.0  0.88375  0.51788  0.83465  1.0000
  C   C4583     1.0  0.91482  0.51649  0.83509  1.0000
  H   H7779     1.0  0.88215  0.55798  0.83595  1.0000
  H   H7780     1.0  0.90010  0.55656  0.83229  1.0000
  H   H7781     1.0  0.87286  0.53840  0.83598  1.0000
  H   H7782     1.0  0.88398  0.53627  0.82003  1.0000
  H   H7783     1.0  0.90861  0.53080  0.81750  1.0000
  H   H7784     1.0  0.91574  0.53742  0.82711  1.0000
  H   H7785     1.0  0.90112  0.55305  0.80830  1.0000
  H   H7786     1.0  0.92414  0.64611  0.88643  1.0000
  H   H7787     1.0  0.89313  0.56931  0.81231  1.0000
  H   H7788     1.0  0.89299  0.51226  0.82852  1.0000
  H   H7789     1.0  0.87478  0.51632  0.83199  1.0000
  H   H7790     1.0  0.88293  0.51337  0.84562  1.0000
  H   H7791     1.0  0.92024  0.51041  0.82720  1.0000
  H   H7792     1.0  0.90753  0.51071  0.84251  1.0000
  H   H7793     1.0  0.75921  0.72032  0.84054  1.0000
  C   C4584     1.0  0.75589  0.73140  0.83649  1.0000
  H   H7794     1.0  0.84458  0.68785  0.90633  1.0000
  H   H7795     1.0  0.75229  0.73249  0.82720  1.0000
  H   H7796     1.0  0.71900  0.62049  0.73951  1.0000
  C   C4585     1.0  0.70072  0.65348  0.73504  1.0000
  H   H7797     1.0  0.81012  0.69099  0.87556  1.0000
  C   C4586     1.0  0.92743  0.68108  0.81965  1.0000
  H   H7798     1.0  0.83072  0.60692  0.93918  1.0000
  C   C4587     1.0  0.66094  0.71226  0.82202  1.0000
  H   H7799     1.0  0.84542  0.66212  0.89684  1.0000
  C   C4588     1.0  0.91276  0.69905  0.79160  1.0000
  H   H7800     1.0  0.69848  0.66825  0.74741  1.0000
  N   N324      1.0  0.80885  0.61044  0.94082  1.0000
  N   N325      1.0  0.84364  0.68087  0.88155  1.0000
  C   C4589     1.0  0.71120  0.72732  0.87431  1.0000
  H   H7801     1.0  0.84979  0.68384  0.73582  1.0000
  H   H7802     1.0  0.91061  0.69871  0.81917  1.0000
  H   H7803     1.0  0.93308  0.68461  0.80915  1.0000
  H   H7804     1.0  0.98953  0.61773  0.88234  1.0000
  H   H7805     1.0  0.96558  0.65473  0.89704  1.0000
  H   H7806     1.0  0.88483  0.69240  0.83734  1.0000
  C   C4590     1.0  0.85675  0.64510  0.80196  1.0000
  H   H7807     1.0  0.92219  0.65503  0.92973  1.0000
  C   C4591     1.0  0.81004  0.48680  0.91175  1.0000
  C   C4592     1.0  0.74612  0.60376  0.74051  1.0000
  C   C4593     1.0  0.98769  0.65377  0.85950  1.0000
  H   H7808     1.0  0.69025  0.65185  0.74035  1.0000
  C   C4594     1.0  0.79717  0.60325  0.94716  1.0000
  C   C4595     1.0  0.76107  0.61969  0.73034  1.0000
  H   H7809     1.0  0.93174  0.68422  0.82656  1.0000
  C   C4596     1.0  0.91188  0.68747  0.82175  1.0000
  C   C4597     1.0  0.81234  0.69006  0.78266  1.0000
  H   H7810     1.0  0.94769  0.62714  0.89712  1.0000
  H   H7811     1.0  0.92285  0.51671  0.84005  1.0000
  C   C4598     1.0  0.88051  0.69006  0.82994  1.0000
  H   H7812     1.0  0.85928  0.67023  0.89323  1.0000
  H   H7813     1.0  0.87039  0.69722  0.82961  1.0000
  C   C4599     1.0  0.82246  0.50078  0.88168  1.0000
  C   C4600     1.0  0.70768  0.72336  0.86430  1.0000
  H   H7814     1.0  0.78450  0.58716  0.77629  1.0000
  H   H7815     1.0  0.88391  0.70600  0.73062  1.0000
  H   H7816     1.0  0.94600  0.64867  0.91457  1.0000
  H   H7817     1.0  0.91865  0.70322  0.79615  1.0000
  C   C4601     1.0  0.93904  0.63063  0.90534  1.0000
  N   N326      1.0  0.90411  0.68309  0.81414  1.0000
  C   C4602     1.0  0.82708  0.58793  0.93857  1.0000
  C   C4603     1.0  0.85218  0.61806  0.81799  1.0000
  H   H7818     1.0  0.82260  0.50731  0.90006  1.0000
  C   C4604     1.0  0.85533  0.49546  0.85502  1.0000
  H   H7819     1.0  0.86864  0.66386  0.85793  1.0000
  H   H7820     1.0  0.76359  0.68404  0.79816  1.0000
  H   H7821     1.0  0.82365  0.69262  0.88980  1.0000
  H   H7822     1.0  0.89134  0.66867  0.80566  1.0000
  H   H7823     1.0  0.76230  0.70001  0.80184  1.0000
  C   C4605     1.0  0.82813  0.68409  0.88436  1.0000
  H   H7824     1.0  0.80877  0.67804  0.80298  1.0000
  H   H7825     1.0  0.79272  0.58445  0.94621  1.0000
  C   C4606     1.0  0.75492  0.61115  0.74179  1.0000
  H   H7826     1.0  0.92303  0.62536  0.89888  1.0000
  H   H7827     1.0  0.94189  0.64542  0.88057  1.0000
  H   H7828     1.0  0.90066  0.66652  0.83134  1.0000
  C   C4607     1.0  0.92819  0.62236  0.90749  1.0000
  H   H7829     1.0  0.90764  0.68493  0.83288  1.0000
  C   C4608     1.0  0.91105  0.68462  0.79930  1.0000
  H   H7830     1.0  0.87843  0.67974  0.83368  1.0000
  C   C4609     1.0  0.83379  0.62016  0.80672  1.0000
  C   C4610     1.0  0.88978  0.69188  0.81552  1.0000
  C   C4611     1.0  0.82817  0.62378  0.79373  1.0000
  H   H7831     1.0  0.80138  0.66325  0.77885  1.0000
  H   H7832     1.0  0.85984  0.69150  0.87861  1.0000
  H   H7833     1.0  0.91434  0.66185  0.81791  1.0000
  H   H7834     1.0  0.83320  0.62001  0.83372  1.0000
  C   C4612     1.0  0.76844  0.68941  0.80256  1.0000
  H   H7835     1.0  0.84057  0.63482  0.82880  1.0000
  C   C4613     1.0  0.80477  0.61968  0.96256  1.0000
  H   H7836     1.0  0.84575  0.66293  0.87416  1.0000
  H   H7837     1.0  0.92966  0.66983  0.82215  1.0000
  H   H7838     1.0  0.82690  0.63472  0.78886  1.0000
  H   H7839     1.0  0.82355  0.71552  0.74754  1.0000
  H   H7840     1.0  0.90536  0.68148  0.79361  1.0000
  H   H7841     1.0  0.85564  0.70907  0.86048  1.0000
  C   C4614     1.0  0.84742  0.70325  0.86404  1.0000
  H   H7842     1.0  0.94059  0.66355  0.90281  1.0000
  C   C4615     1.0  0.78986  0.66530  0.80603  1.0000
  C   C4616     1.0  0.94444  0.65235  0.90399  1.0000
  H   H7843     1.0  0.84623  0.67761  0.86121  1.0000
  H   H7844     1.0  0.86976  0.66087  0.87517  1.0000
  H   H7845     1.0  0.87018  0.67744  0.86397  1.0000
  C   C4617     1.0  0.82141  0.68760  0.87209  1.0000
  H   H7846     1.0  0.81783  0.62153  0.79646  1.0000
  H   H7847     1.0  0.82013  0.70199  0.74275  1.0000
  N   N327      1.0  0.87549  0.62017  0.87047  1.0000
  C   C4618     1.0  0.88468  0.62271  0.87797  1.0000
  C   C4619     1.0  0.88233  0.62309  0.85558  1.0000
  C   C4620     1.0  0.87499  0.60535  0.87511  1.0000
  C   C4621     1.0  0.86142  0.62917  0.87382  1.0000
  C   C4622     1.0  0.88095  0.61860  0.89362  1.0000
  C   C4623     1.0  0.88251  0.63809  0.84894  1.0000
  C   C4624     1.0  0.86659  0.60011  0.86851  1.0000
  C   C4625     1.0  0.85146  0.63114  0.86454  1.0000
  H   H7848     1.0  0.89555  0.61725  0.87475  1.0000
  H   H7849     1.0  0.88481  0.63366  0.87549  1.0000
  H   H7850     1.0  0.87788  0.61943  0.84924  1.0000
  H   H7851     1.0  0.89319  0.61738  0.85403  1.0000
  H   H7852     1.0  0.88559  0.59890  0.87373  1.0000
  H   H7853     1.0  0.87042  0.60291  0.88614  1.0000
  H   H7854     1.0  0.85606  0.62529  0.88438  1.0000
  H   H7855     1.0  0.86226  0.63949  0.87389  1.0000
  H   H7856     1.0  0.88748  0.62233  0.89785  1.0000
  H   H7857     1.0  0.87014  0.62302  0.89796  1.0000
  H   H7858     1.0  0.88323  0.60738  0.89725  1.0000
  H   H7859     1.0  0.88806  0.63867  0.83815  1.0000
  H   H7860     1.0  0.87203  0.64444  0.84892  1.0000
  H   H7861     1.0  0.88813  0.64242  0.85364  1.0000
  H   H7862     1.0  0.85547  0.60445  0.87144  1.0000
  H   H7863     1.0  0.86790  0.58897  0.87247  1.0000
  H   H7864     1.0  0.86993  0.60162  0.85735  1.0000
  H   H7865     1.0  0.84246  0.62670  0.87038  1.0000
  H   H7866     1.0  0.85601  0.62658  0.85554  1.0000
  H   H7867     1.0  0.84739  0.64215  0.86083  1.0000
  H   H7868     1.0  0.82304  0.67849  0.86789  1.0000
  C   C4626     1.0  0.89187  0.53450  0.85024  1.0000
  H   H7869     1.0  0.85310  0.60686  0.82092  1.0000
  C   C4627     1.0  0.86619  0.72256  0.73247  1.0000
  C   C4628     1.0  0.72358  0.72062  0.87841  1.0000
  Fe  Fe671     1.0  0.85171  0.63406  0.95914  1.0000
  C   C4629     1.0  0.81054  0.55731  0.75619  1.0000
  H   H7870     1.0  0.71151  0.64922  0.75760  1.0000
  H   H7871     1.0  0.78169  0.66514  0.77138  1.0000
  C   C4630     1.0  0.85790  0.50479  0.86093  1.0000
  H   H7872     1.0  0.78943  0.66857  0.81541  1.0000
  H   H7873     1.0  0.81210  0.69042  0.77211  1.0000
  H   H7874     1.0  0.94349  0.62716  0.91452  1.0000
  H   H7875     1.0  0.89010  0.70283  0.81231  1.0000
  H   H7876     1.0  0.84852  0.63102  0.76209  1.0000
  C   C4631     1.0  0.79505  0.59394  0.93907  1.0000
  H   H7877     1.0  0.93754  0.67039  0.88107  1.0000
  H   H7878     1.0  0.90041  0.53452  0.86692  1.0000
  H   H7879     1.0  0.90964  0.64516  0.93219  1.0000
  C   C4632     1.0  0.71819  0.62761  0.76278  1.0000
  H   H7880     1.0  0.84886  0.69796  0.85583  1.0000
  H   H7881     1.0  0.71605  0.62801  0.77367  1.0000
  H   H7882     1.0  0.83733  0.71059  0.86495  1.0000
  C   C4633     1.0  0.86545  0.66853  0.86692  1.0000
  H   H7883     1.0  0.86273  0.61942  0.81671  1.0000
  H   H7884     1.0  0.82042  0.58073  0.94439  1.0000
  H   H7885     1.0  0.82413  0.67530  0.89133  1.0000
  H   H7886     1.0  0.80214  0.48768  0.89484  1.0000
  H   H7887     1.0  0.82431  0.51984  0.88462  1.0000
  N   N328      1.0  0.71153  0.64181  0.74026  1.0000
  C   C4634     1.0  0.78268  0.57927  0.75960  1.0000
  H   H7888     1.0  0.78727  0.61085  0.94892  1.0000
  N   N329      1.0  0.79539  0.58097  0.74845  1.0000
  H   H7889     1.0  0.82833  0.50290  0.87097  1.0000
  H   H7890     1.0  0.77433  0.57474  0.78146  1.0000
  H   H7891     1.0  0.81905  0.62109  0.92164  1.0000
  H   H7892     1.0  0.81237  0.49624  0.86307  1.0000
  H   H7893     1.0  0.67930  0.70424  0.83986  1.0000
  H   H7894     1.0  0.81157  0.50577  0.88130  1.0000
  H   H7895     1.0  0.79745  0.59784  0.75515  1.0000
  H   H7896     1.0  0.77410  0.58835  0.75814  1.0000
  C   C4635     1.0  0.81671  0.59157  0.74167  1.0000
  H   H7897     1.0  0.79609  0.63583  0.92344  1.0000
  H   H7898     1.0  0.73363  0.63496  0.73645  1.0000
  H   H7899     1.0  0.69456  0.62279  0.75515  1.0000
  H   H7900     1.0  0.64823  0.69459  0.86264  1.0000
  H   H7901     1.0  0.81340  0.60748  0.92008  1.0000
  C   C4636     1.0  0.72576  0.64422  0.73365  1.0000
  H   H7902     1.0  0.79832  0.59698  0.95740  1.0000
  C   C4637     1.0  0.79776  0.62576  0.92102  1.0000
  H   H7903     1.0  0.66246  0.71572  0.81079  1.0000
  H   H7904     1.0  0.69838  0.71484  0.83032  1.0000
  C   C4638     1.0  0.65680  0.69870  0.85516  1.0000
  H   H7905     1.0  0.79699  0.61363  0.96833  1.0000
  C   C4639     1.0  0.81275  0.48540  0.86813  1.0000
  H   H7906     1.0  0.64746  0.72949  0.82908  1.0000
  H   H7907     1.0  0.92036  0.62323  0.91707  1.0000
  C   C4640     1.0  0.85248  0.51883  0.85722  1.0000
  H   H7908     1.0  0.78344  0.69676  0.78511  1.0000
  C   C4641     1.0  0.84160  0.67824  0.90730  1.0000
  H   H7909     1.0  0.86836  0.60011  0.78576  1.0000
  C   C4642     1.0  0.95881  0.64967  0.89458  1.0000
  H   H7910     1.0  0.88431  0.69033  0.80855  1.0000
  H   H7911     1.0  0.81474  0.61471  0.96548  1.0000
  H   H7912     1.0  0.88252  0.55859  0.81256  1.0000
  H   H7913     1.0  0.67036  0.70451  0.82362  1.0000
  H   H7914     1.0  0.84350  0.70006  0.88555  1.0000
  C   C4643     1.0  0.84494  0.63924  0.80143  1.0000
  H   H7915     1.0  0.85418  0.65631  0.79833  1.0000
  H   H7916     1.0  0.89925  0.55016  0.85474  1.0000
  H   H7917     1.0  0.83450  0.60912  0.81109  1.0000
  H   H7918     1.0  0.86544  0.59704  0.80377  1.0000
  C   C4644     1.0  0.86079  0.60280  0.79498  1.0000
  H   H7919     1.0  0.77878  0.57056  0.75920  1.0000
  H   H7920     1.0  0.85150  0.59930  0.79559  1.0000
  C   C4645     1.0  0.92048  0.65050  0.91111  1.0000
  H   H7921     1.0  0.80627  0.69976  0.78559  1.0000
  H   H7922     1.0  0.85830  0.64320  0.81239  1.0000
  H   H7923     1.0  0.86423  0.50109  0.86835  1.0000
  H   H7924     1.0  0.77299  0.68112  0.77608  1.0000
  H   H7925     1.0  0.82559  0.62528  0.81426  1.0000
  H   H7926     1.0  0.81421  0.62850  0.94215  1.0000
  H   H7927     1.0  0.80764  0.58208  0.76164  1.0000
  H   H7928     1.0  0.82497  0.69586  0.86391  1.0000
  N   N330      1.0  0.84722  0.62394  0.80497  1.0000
  H   H7929     1.0  0.84556  0.67095  0.91597  1.0000
  H   H7930     1.0  0.79567  0.64405  0.81578  1.0000
  S   S1330     1.0  0.96589  0.62414  0.87087  1.0000
  S   S1331     1.0  0.85622  0.53008  0.86489  1.0000
  H   H7931     1.0  0.89232  0.52360  0.85485  1.0000
  C   C4646     1.0  0.78379  0.57749  0.77440  1.0000
  C   C4647     1.0  0.85798  0.61831  0.79368  1.0000
  H   H7932     1.0  0.83463  0.61761  0.78623  1.0000
  C   C4648     1.0  0.90386  0.66832  0.82007  1.0000
  S   S1332     1.0  0.69243  0.73178  0.85864  1.0000
  H   H7933     1.0  0.73657  0.73153  0.85104  1.0000
  H   H7934     1.0  0.81805  0.56131  0.75879  1.0000
  H   H7935     1.0  0.83548  0.64398  0.80812  1.0000
  C   C4649     1.0  0.69692  0.62428  0.74395  1.0000
  H   H7936     1.0  0.84821  0.61955  0.83900  1.0000
  H   H7937     1.0  0.78691  0.69485  0.80117  1.0000
  C   C4650     1.0  0.84892  0.69370  0.87789  1.0000
  H   H7938     1.0  0.95853  0.65393  0.88374  1.0000
  H   H7939     1.0  0.89970  0.65223  0.81336  1.0000
  H   H7940     1.0  0.88503  0.66124  0.82317  1.0000
  H   H7941     1.0  0.84315  0.64333  0.79096  1.0000
  N   N331      1.0  0.79337  0.67622  0.79369  1.0000
  C   C4651     1.0  0.84289  0.62360  0.83046  1.0000
  H   H7942     1.0  0.91862  0.69856  0.78104  1.0000
  H   H7943     1.0  0.92729  0.63717  0.92967  1.0000
  C   C4652     1.0  0.84964  0.67247  0.87082  1.0000
  S   S1333     1.0  0.84307  0.48867  0.83818  1.0000
  C   C4653     1.0  0.82727  0.50881  0.88907  1.0000
  H   H7944     1.0  0.85781  0.69722  0.73408  1.0000
  H   H7945     1.0  0.80391  0.59074  0.93104  1.0000
  H   H7946     1.0  0.83863  0.50633  0.88744  1.0000
  C   C4654     1.0  0.67729  0.71480  0.84118  1.0000
  H   H7947     1.0  0.98705  0.66390  0.85318  1.0000
  H   H7948     1.0  0.79689  0.56207  0.74295  1.0000
  S   S1334     1.0  0.77250  0.62893  0.73112  1.0000
  H   H7949     1.0  0.69295  0.67535  0.73184  1.0000
  H   H7950     1.0  0.71090  0.67050  0.73139  1.0000
  H   H7951     1.0  0.85691  0.66889  0.97267  1.0000
  H   H7952     1.0  0.86511  0.68187  0.97246  1.0000
  H   H7953     1.0  0.81166  0.56898  0.73572  1.0000
  H   H7954     1.0  0.82191  0.59813  0.95469  1.0000
  H   H7955     1.0  0.67991  0.71366  0.85109  1.0000
  H   H7956     1.0  0.69799  0.61423  0.74173  1.0000
  H   H7957     1.0  0.65841  0.69503  0.84581  1.0000
  H   H7958     1.0  0.66601  0.69431  0.85960  1.0000
  H   H7959     1.0  0.64235  0.71780  0.85144  1.0000
  C   C4655     1.0  0.71041  0.62909  0.73699  1.0000
  C   C4656     1.0  0.82229  0.60133  0.94362  1.0000
  H   H7960     1.0  0.72782  0.65220  0.73745  1.0000
  H   H7961     1.0  0.65260  0.71648  0.86293  1.0000
  H   H7962     1.0  0.83755  0.58293  0.94037  1.0000
  H   H7963     1.0  0.80140  0.62953  0.96588  1.0000
  H   H7964     1.0  0.66453  0.73433  0.85432  1.0000
  H   H7965     1.0  0.78561  0.60031  0.73755  1.0000
  H   H7966     1.0  0.87455  0.63094  0.97818  1.0000
  H   H7967     1.0  0.87377  0.66398  0.97564  1.0000
  C   C4657     1.0  0.86382  0.67141  0.97753  1.0000
  H   H7968     1.0  0.68641  0.72252  0.81961  1.0000
  H   H7969     1.0  0.82370  0.58252  0.73809  1.0000
  C   C4658     1.0  0.78109  0.58480  0.73061  1.0000
  H   H7970     1.0  0.81392  0.59973  0.73297  1.0000
  C   C4659     1.0  0.61918  0.73260  0.73773  1.0000
  H   H7971     1.0  0.80392  0.49739  0.91145  1.0000
  H   H7972     1.0  0.68836  0.73143  0.83131  1.0000
  H   H7973     1.0  0.66365  0.73231  0.82042  1.0000
  N   N332      1.0  0.82404  0.48561  0.88717  1.0000
  H   H7974     1.0  0.81981  0.48577  0.91454  1.0000
  Fe  Fe672     1.0  0.67272  0.91434  0.14480  1.0000
  S   S1335     1.0  0.65177  0.92434  0.15522  1.0000
  S   S1336     1.0  0.69165  0.90135  0.15220  1.0000
  Fe  Fe673     1.0  0.66362  0.91730  0.11843  1.0000
  S   S1337     1.0  0.67341  0.90843  0.09961  1.0000
  Fe  Fe674     1.0  0.64351  0.91213  0.14602  1.0000
  S   S1338     1.0  0.63004  0.89727  0.15809  1.0000
  S   S1339     1.0  0.67347  0.93004  0.12525  1.0000
  S   S1340     1.0  0.66440  0.90110  0.13725  1.0000
  Fe  Fe675     1.0  0.54751  0.86179  0.14547  1.0000
  S   S1341     1.0  0.55828  0.84060  0.15392  1.0000
  H   H7975     1.0  0.62098  0.83238  0.17762  1.0000
  Fe  Fe676     1.0  0.57195  0.87376  0.14440  1.0000
  S   S1342     1.0  0.58416  0.85357  0.15312  1.0000
  S   S1343     1.0  0.58013  0.89299  0.13730  1.0000
  Fe  Fe677     1.0  0.57710  0.84598  0.13880  1.0000
  S   S1344     1.0  0.59392  0.83237  0.12672  1.0000
  Fe  Fe678     1.0  0.56431  0.85023  0.16735  1.0000
  S   S1345     1.0  0.55984  0.84215  0.18997  1.0000
  S   S1346     1.0  0.56595  0.86643  0.12917  1.0000
  S   S1347     1.0  0.55249  0.87117  0.15987  1.0000
  Fe  Fe679     1.0  0.64756  0.86906  0.03031  1.0000
  S   S1348     1.0  0.64379  0.84941  0.04424  1.0000
  S   S1349     1.0  0.65214  0.87261  0.00721  1.0000
  Fe  Fe680     1.0  0.64262  0.88296  0.05426  1.0000
  S   S1350     1.0  0.63853  0.86427  0.06973  1.0000
  S   S1351     1.0  0.63804  0.90206  0.06225  1.0000
  Fe  Fe681     1.0  0.65654  0.85322  0.05640  1.0000
  S   S1352     1.0  0.67177  0.83578  0.06580  1.0000
  Fe  Fe682     1.0  0.62628  0.86246  0.05622  1.0000
  S   S1353     1.0  0.60461  0.85980  0.06418  1.0000
  S   S1354     1.0  0.66165  0.87211  0.04165  1.0000
  S   S1355     1.0  0.62904  0.88192  0.04149  1.0000
  H   H7976     1.0  0.61043  0.86690  0.11744  1.0000
  H   H7977     1.0  0.66619  0.79588  0.14675  1.0000
  H   H7978     1.0  0.62106  0.84224  0.12614  1.0000
  H   H7979     1.0  0.70084  0.84231  0.20827  1.0000
  C   C4660     1.0  0.65820  0.80523  0.14838  1.0000
  Fe  Fe683     1.0  0.72219  0.83523  0.10871  1.0000
  S   S1356     1.0  0.72782  0.81232  0.11373  1.0000
  S   S1357     1.0  0.71107  0.85061  0.09331  1.0000
  Fe  Fe684     1.0  0.73441  0.83766  0.13100  1.0000
  S   S1358     1.0  0.74103  0.81517  0.13810  1.0000
  S   S1359     1.0  0.73521  0.85443  0.13996  1.0000
  Fe  Fe685     1.0  0.74787  0.81478  0.11592  1.0000
  S   S1360     1.0  0.76901  0.80327  0.10738  1.0000
  Fe  Fe686     1.0  0.72056  0.81453  0.13550  1.0000
  S   S1361     1.0  0.70823  0.80143  0.15236  1.0000
  S   S1362     1.0  0.74290  0.83753  0.10897  1.0000
  S   S1363     1.0  0.71333  0.83713  0.13031  1.0000
  C   C4661     1.0  0.49874  0.89772  0.12615  1.0000
  H   H7980     1.0  0.68429  0.87434  0.20574  1.0000
  S   S1364     1.0  0.70976  0.89564  0.20674  1.0000
  Fe  Fe687     1.0  0.74640  0.85134  0.20756  1.0000
  C   C4662     1.0  0.82699  0.76768  0.13510  1.0000
  S   S1365     1.0  0.75947  0.83888  0.19225  1.0000
  C   C4663     1.0  0.56147  0.87701  0.22057  1.0000
  H   H7981     1.0  0.61848  0.80138  0.16367  1.0000
  C   C4664     1.0  0.71740  0.83431  0.19226  1.0000
  H   H7982     1.0  0.61122  0.83580  0.14184  1.0000
  S   S1366     1.0  0.72351  0.85560  0.21138  1.0000
  S   S1367     1.0  0.74670  0.87235  0.20842  1.0000
  H   H7983     1.0  0.59848  0.89581  0.18078  1.0000
  H   H7984     1.0  0.59328  0.87303  0.11550  1.0000
  H   H7985     1.0  0.57354  0.89816  0.20503  1.0000
  S   S1368     1.0  0.63366  0.81138  0.21171  1.0000
  H   H7986     1.0  0.80547  0.79659  0.13884  1.0000
  H   H7987     1.0  0.57615  0.89502  0.16992  1.0000
  Fe  Fe688     1.0  0.64500  0.82773  0.19986  1.0000
  S   S1369     1.0  0.65020  0.83462  0.17721  1.0000
  H   H7988     1.0  0.80925  0.74874  0.07380  1.0000
  H   H7989     1.0  0.60956  0.81729  0.15612  1.0000
  H   H7990     1.0  0.57321  0.87865  0.17090  1.0000
  H   H7991     1.0  0.72431  0.93529  0.19784  1.0000
  H   H7992     1.0  0.60375  0.89222  0.01595  1.0000
  S   S1370     1.0  0.87082  0.74073  0.20582  1.0000
  H   H7993     1.0  0.60763  0.87335  0.19549  1.0000
  H   H7994     1.0  0.62281  0.84587  0.14138  1.0000
  H   H7995     1.0  0.61177  0.82102  0.17628  1.0000
  S   S1371     1.0  0.64198  0.92769  0.12662  1.0000
  Fe  Fe689     1.0  0.65187  0.93938  0.13508  1.0000
  S   S1372     1.0  0.52489  0.86810  0.14460  1.0000
  C   C4665     1.0  0.74245  0.85000  0.15418  1.0000
  C   C4666     1.0  0.75166  0.83758  0.15708  1.0000
  C   C4667     1.0  0.75720  0.83434  0.16862  1.0000
  C   C4668     1.0  0.75325  0.84337  0.17740  1.0000
  C   C4669     1.0  0.74410  0.85581  0.17443  1.0000
  C   C4670     1.0  0.73888  0.85919  0.16272  1.0000
  H   H7996     1.0  0.75463  0.83056  0.15036  1.0000
  H   H7997     1.0  0.76440  0.82477  0.17086  1.0000
  H   H7998     1.0  0.74119  0.86289  0.18107  1.0000
  H   H7999     1.0  0.73202  0.86892  0.16032  1.0000
  C   C4671     1.0  0.69181  0.81033  0.15899  1.0000
  C   C4672     1.0  0.68523  0.80570  0.17241  1.0000
  C   C4673     1.0  0.67243  0.81315  0.17811  1.0000
  C   C4674     1.0  0.66615  0.82516  0.17031  1.0000
  C   C4675     1.0  0.67253  0.82957  0.15679  1.0000
  C   C4676     1.0  0.68534  0.82216  0.15111  1.0000
  H   H8000     1.0  0.69013  0.79645  0.17848  1.0000
  H   H8001     1.0  0.66740  0.80951  0.18848  1.0000
  H   H8002     1.0  0.66761  0.83874  0.15077  1.0000
  H   H8003     1.0  0.69014  0.82549  0.14061  1.0000
  H   H8004     1.0  0.62508  0.79358  0.14188  1.0000
  C   C4677     1.0  0.80949  0.76362  0.08429  1.0000
  C   C4678     1.0  0.63328  0.82529  0.13802  1.0000
  C   C4679     1.0  0.63233  0.81999  0.16280  1.0000
  H   H8005     1.0  0.76768  0.76291  0.09435  1.0000
  C   C4680     1.0  0.78394  0.75999  0.13010  1.0000
  C   C4681     1.0  0.79322  0.76713  0.12050  1.0000
  C   C4682     1.0  0.78857  0.78056  0.11388  1.0000
  C   C4683     1.0  0.77461  0.78689  0.11672  1.0000
  C   C4684     1.0  0.76536  0.77989  0.12655  1.0000
  C   C4685     1.0  0.77004  0.76647  0.13325  1.0000
  H   H8006     1.0  0.80397  0.76235  0.11817  1.0000
  H   H8007     1.0  0.79576  0.78604  0.10641  1.0000
  H   H8008     1.0  0.75457  0.78474  0.12883  1.0000
  H   H8009     1.0  0.77995  0.76688  0.10044  1.0000
  C   C4686     1.0  0.64729  0.86408  0.99744  1.0000
  H   H8010     1.0  0.71518  0.80097  0.20241  1.0000
  N   N333      1.0  0.66143  0.87609  0.18584  1.0000
  H   H8011     1.0  0.76410  0.90807  0.20879  1.0000
  C   C4687     1.0  0.64083  0.84465  0.99452  1.0000
  C   C4688     1.0  0.64475  0.85100  0.00260  1.0000
  H   H8012     1.0  0.66610  0.87921  0.21073  1.0000
  S   S1373     1.0  0.82745  0.74075  0.11628  1.0000
  H   H8013     1.0  0.63883  0.83456  0.99862  1.0000
  H   H8014     1.0  0.64581  0.84577  0.01279  1.0000
  C   C4689     1.0  0.68247  0.83998  0.07365  1.0000
  C   C4690     1.0  0.69013  0.82969  0.08207  1.0000
  C   C4691     1.0  0.69882  0.83281  0.08834  1.0000
  C   C4692     1.0  0.70004  0.84624  0.08601  1.0000
  C   C4693     1.0  0.69234  0.85653  0.07764  1.0000
  C   C4694     1.0  0.68351  0.85344  0.07154  1.0000
  H   H8015     1.0  0.68935  0.81926  0.08375  1.0000
  H   H8016     1.0  0.70474  0.82482  0.09478  1.0000
  H   H8017     1.0  0.69325  0.86694  0.07580  1.0000
  H   H8018     1.0  0.67764  0.86146  0.06509  1.0000
  C   C4695     1.0  0.59680  0.83963  0.10926  1.0000
  C   C4696     1.0  0.61016  0.83756  0.10123  1.0000
  C   C4697     1.0  0.61263  0.84373  0.08735  1.0000
  C   C4698     1.0  0.60169  0.85171  0.08143  1.0000
  C   C4699     1.0  0.58831  0.85349  0.08938  1.0000
  C   C4700     1.0  0.58588  0.84758  0.10331  1.0000
  H   H8019     1.0  0.61861  0.83130  0.10576  1.0000
  H   H8020     1.0  0.62295  0.84210  0.08120  1.0000
  H   H8021     1.0  0.57982  0.85956  0.08481  1.0000
  H   H8022     1.0  0.57551  0.84891  0.10938  1.0000
  C   C4701     1.0  0.57137  0.83780  0.20068  1.0000
  C   C4702     1.0  0.58558  0.83645  0.19582  1.0000
  C   C4703     1.0  0.59416  0.83356  0.20502  1.0000
  C   C4704     1.0  0.58842  0.83222  0.21900  1.0000
  H   H8023     1.0  0.52076  0.89143  0.11924  1.0000
  C   C4705     1.0  0.56585  0.83593  0.21466  1.0000
  H   H8024     1.0  0.58985  0.83782  0.18501  1.0000
  H   H8025     1.0  0.60511  0.83264  0.20134  1.0000
  H   H8026     1.0  0.66741  0.95985  0.14321  1.0000
  H   H8027     1.0  0.55489  0.83688  0.21847  1.0000
  C   C4706     1.0  0.66330  0.90651  0.08959  1.0000
  C   C4707     1.0  0.66848  0.89644  0.08184  1.0000
  C   C4708     1.0  0.66067  0.89468  0.07373  1.0000
  C   C4709     1.0  0.64783  0.90334  0.07294  1.0000
  C   C4710     1.0  0.64270  0.91345  0.08064  1.0000
  C   C4711     1.0  0.65028  0.91487  0.08913  1.0000
  H   H8028     1.0  0.67860  0.88999  0.08210  1.0000
  H   H8029     1.0  0.66478  0.88693  0.06776  1.0000
  H   H8030     1.0  0.63292  0.92040  0.07987  1.0000
  H   H8031     1.0  0.64627  0.92275  0.09496  1.0000
  C   C4712     1.0  0.61682  0.89602  0.15140  1.0000
  C   C4713     1.0  0.61233  0.88382  0.15538  1.0000
  C   C4714     1.0  0.60141  0.88262  0.15073  1.0000
  C   C4715     1.0  0.59463  0.89376  0.14237  1.0000
  C   C4716     1.0  0.59929  0.90590  0.13818  1.0000
  C   C4717     1.0  0.61044  0.90699  0.14257  1.0000
  H   H8032     1.0  0.61728  0.87528  0.16217  1.0000
  H   H8033     1.0  0.59799  0.87321  0.15396  1.0000
  H   H8034     1.0  0.59407  0.91459  0.13177  1.0000
  H   H8035     1.0  0.61380  0.91647  0.13949  1.0000
  C   C4718     1.0  0.69568  0.89980  0.16786  1.0000
  C   C4719     1.0  0.70523  0.88822  0.17245  1.0000
  C   C4720     1.0  0.70944  0.88676  0.18446  1.0000
  C   C4721     1.0  0.70415  0.89695  0.19196  1.0000
  C   C4722     1.0  0.69437  0.90846  0.18750  1.0000
  C   C4723     1.0  0.69007  0.90986  0.17550  1.0000
  H   H8036     1.0  0.70948  0.88038  0.16661  1.0000
  H   H8037     1.0  0.71700  0.87790  0.18774  1.0000
  H   H8038     1.0  0.69022  0.91638  0.19326  1.0000
  H   H8039     1.0  0.68274  0.91886  0.17199  1.0000
  H   H8040     1.0  0.61791  0.81048  0.13303  1.0000
  C   C4724     1.0  0.52257  0.85492  0.12599  1.0000
  C   C4725     1.0  0.51469  0.85093  0.11944  1.0000
  H   H8041     1.0  0.53342  0.85431  0.12177  1.0000
  H   H8042     1.0  0.51959  0.84711  0.11026  1.0000
  H   H8043     1.0  0.63524  0.82092  0.12893  1.0000
  C   C4726     1.0  0.49427  0.85712  0.13638  1.0000
  H   H8044     1.0  0.78245  0.80147  0.13529  1.0000
  H   H8045     1.0  0.75131  0.80474  0.18612  1.0000
  Fe  Fe690     1.0  0.62109  0.82687  0.22393  1.0000
  C   C4727     1.0  0.64917  0.87327  0.19701  1.0000
  H   H8046     1.0  0.80742  0.79242  0.16245  1.0000
  H   H8047     1.0  0.80264  0.77185  0.08927  1.0000
  H   H8048     1.0  0.69099  0.82440  0.21006  1.0000
  H   H8049     1.0  0.72780  0.82747  0.00691  1.0000
  H   H8050     1.0  0.62087  0.88179  0.01613  1.0000
  Fe  Fe691     1.0  0.72374  0.87579  0.21439  1.0000
  H   H8051     1.0  0.72036  0.82912  0.16024  1.0000
  C   C4728     1.0  0.67612  0.86733  0.16416  1.0000
  H   H8052     1.0  0.67141  0.84449  0.00955  1.0000
  C   C4729     1.0  0.78336  0.74690  0.07855  1.0000
  H   H8053     1.0  0.67410  0.81423  0.03872  1.0000
  H   H8054     1.0  0.83827  0.76364  0.13378  1.0000
  H   H8055     1.0  0.79666  0.74737  0.10468  1.0000
  C   C4730     1.0  0.80186  0.75767  0.07748  1.0000
  H   H8056     1.0  0.80302  0.78370  0.13233  1.0000
  H   H8057     1.0  0.67510  0.86240  0.15650  1.0000
  H   H8058     1.0  0.78210  0.78591  0.08389  1.0000
  H   H8059     1.0  0.65078  0.86221  0.20170  1.0000
  C   C4731     1.0  0.50044  0.85235  0.12441  1.0000
  H   H8060     1.0  0.73004  0.80493  0.18028  1.0000
  H   H8061     1.0  0.68348  0.87226  0.18360  1.0000
  H   H8062     1.0  0.61713  0.89305  0.00096  1.0000
  H   H8063     1.0  0.68890  0.85230  0.04116  1.0000
  H   H8064     1.0  0.80014  0.76520  0.06808  1.0000
  H   H8065     1.0  0.58159  0.90689  0.18046  1.0000
  H   H8066     1.0  0.66106  0.81352  0.13975  1.0000
  H   H8067     1.0  0.76588  0.78489  0.08284  1.0000
  H   H8068     1.0  0.77019  0.76409  0.06744  1.0000
  H   H8069     1.0  0.60158  0.89159  0.06082  1.0000
  H   H8070     1.0  0.58260  0.87822  0.09847  1.0000
  H   H8071     1.0  0.56732  0.88941  0.10496  1.0000
  H   H8072     1.0  0.65889  0.80728  0.15795  1.0000
  H   H8073     1.0  0.72350  0.83998  0.18309  1.0000
  H   H8074     1.0  0.71018  0.84335  0.16786  1.0000
  H   H8075     1.0  0.64779  0.87805  0.20562  1.0000
  H   H8076     1.0  0.60995  0.91163  0.10703  1.0000
  C   C4732     1.0  0.65969  0.89078  0.17845  1.0000
  H   H8077     1.0  0.58269  0.86723  0.21641  1.0000
  C   C4733     1.0  0.71038  0.83312  0.16667  1.0000
  H   H8078     1.0  0.60168  0.87967  0.08309  1.0000
  S   S1374     1.0  0.64309  0.96226  0.13304  1.0000
  H   H8079     1.0  0.71713  0.82905  0.02321  1.0000
  H   H8080     1.0  0.60659  0.90578  0.06271  1.0000
  C   C4734     1.0  0.71166  0.81181  0.20335  1.0000
  C   C4735     1.0  0.67405  0.87145  0.19172  1.0000
  C   C4736     1.0  0.74136  0.80941  0.19219  1.0000
  H   H8081     1.0  0.77174  0.74454  0.11181  1.0000
  H   H8082     1.0  0.73483  0.82081  0.17395  1.0000
  C   C4737     1.0  0.51147  0.89405  0.11498  1.0000
  H   H8083     1.0  0.49716  0.86521  0.15191  1.0000
  H   H8084     1.0  0.69107  0.81015  0.20338  1.0000
  N   N334      1.0  0.71817  0.88899  0.11093  1.0000
  C   C4738     1.0  0.72213  0.88873  0.09599  1.0000
  C   C4739     1.0  0.70681  0.90144  0.11262  1.0000
  C   C4740     1.0  0.71286  0.87636  0.11845  1.0000
  C   C4741     1.0  0.73080  0.88912  0.11524  1.0000
  C   C4742     1.0  0.73266  0.87598  0.09204  1.0000
  C   C4743     1.0  0.71076  0.91517  0.10542  1.0000
  C   C4744     1.0  0.70469  0.87607  0.13322  1.0000
  C   C4745     1.0  0.72886  0.89299  0.12897  1.0000
  H   H8085     1.0  0.71288  0.88968  0.09211  1.0000
  H   H8086     1.0  0.72666  0.89753  0.08987  1.0000
  H   H8087     1.0  0.70235  0.90191  0.12341  1.0000
  H   H8088     1.0  0.69799  0.90100  0.10887  1.0000
  H   H8089     1.0  0.70604  0.87457  0.11294  1.0000
  H   H8090     1.0  0.72144  0.86722  0.11872  1.0000
  H   H8091     1.0  0.73794  0.87893  0.11585  1.0000
  H   H8092     1.0  0.73696  0.89593  0.10734  1.0000
  H   H8093     1.0  0.73505  0.87723  0.08083  1.0000
  H   H8094     1.0  0.74246  0.87442  0.09506  1.0000
  H   H8095     1.0  0.72849  0.86670  0.09634  1.0000
  H   H8096     1.0  0.71242  0.91687  0.09423  1.0000
  H   H8097     1.0  0.70212  0.92350  0.10859  1.0000
  H   H8098     1.0  0.71988  0.91619  0.10820  1.0000
  H   H8099     1.0  0.70320  0.86561  0.13809  1.0000
  H   H8100     1.0  0.69434  0.88286  0.13360  1.0000
  H   H8101     1.0  0.71009  0.87863  0.13950  1.0000
  H   H8102     1.0  0.73064  0.88377  0.13708  1.0000
  H   H8103     1.0  0.71882  0.89949  0.13250  1.0000
  H   H8104     1.0  0.73650  0.89894  0.12802  1.0000
  H   H8105     1.0  0.64497  0.79921  0.13989  1.0000
  H   H8106     1.0  0.64250  0.79384  0.15786  1.0000
  H   H8107     1.0  0.59193  0.91789  0.10648  1.0000
  C   C4746     1.0  0.61903  0.80933  0.15409  1.0000
  C   C4747     1.0  0.70385  0.84418  0.19699  1.0000
  H   H8108     1.0  0.55927  0.89311  0.17153  1.0000
  H   H8109     1.0  0.67752  0.87771  0.15887  1.0000
  C   C4748     1.0  0.67452  0.82449  0.03219  1.0000
  H   H8110     1.0  0.60453  0.92704  0.09567  1.0000
  H   H8111     1.0  0.60682  0.86657  0.10197  1.0000
  C   C4749     1.0  0.60698  0.88688  0.10432  1.0000
  C   C4750     1.0  0.62145  0.83798  0.13699  1.0000
  H   H8112     1.0  0.61833  0.88564  0.10084  1.0000
  N   N335      1.0  0.71634  0.82110  0.18998  1.0000
  C   C4751     1.0  0.60408  0.87256  0.10990  1.0000
  H   H8113     1.0  0.80023  0.76216  0.14638  1.0000
  C   C4752     1.0  0.83711  0.73643  0.15895  1.0000
  C   C4753     1.0  0.77917  0.75567  0.06535  1.0000
  S   S1375     1.0  0.83562  0.74249  0.19567  1.0000
  H   H8114     1.0  0.63314  0.88824  0.18718  1.0000
  N   N336      1.0  0.73431  0.91381  0.22081  1.0000
  C   C4754     1.0  0.73145  0.90059  0.22993  1.0000
  H   H8115     1.0  0.72759  0.94224  0.21040  1.0000
  C   C4755     1.0  0.50211  0.86113  0.14289  1.0000
  H   H8116     1.0  0.55926  0.86906  0.22988  1.0000
  C   C4756     1.0  0.57429  0.83330  0.22375  1.0000
  H   H8117     1.0  0.71637  0.81261  0.21134  1.0000
  C   C4757     1.0  0.72101  0.93662  0.20850  1.0000
  C   C4758     1.0  0.79262  0.74304  0.09846  1.0000
  H   H8118     1.0  0.65704  0.98309  0.10792  1.0000
  H   H8119     1.0  0.69610  0.81994  0.03044  1.0000
  C   C4759     1.0  0.66319  0.86741  0.17584  1.0000
  H   H8120     1.0  0.82539  0.77568  0.12590  1.0000
  C   C4760     1.0  0.63929  0.85128  0.98125  1.0000
  H   H8121     1.0  0.79106  0.73763  0.07594  1.0000
  H   H8122     1.0  0.76283  0.76105  0.14076  1.0000
  H   H8123     1.0  0.81773  0.76791  0.07644  1.0000
  H   H8124     1.0  0.82980  0.73725  0.15310  1.0000
  C   C4761     1.0  0.84182  0.73851  0.17957  1.0000
  H   H8125     1.0  0.74410  0.92079  0.19977  1.0000
  H   H8126     1.0  0.62985  0.78387  0.22889  1.0000
  C   C4762     1.0  0.90542  0.75743  0.21344  1.0000
  C   C4763     1.0  0.74277  0.91115  0.20717  1.0000
  N   N337      1.0  0.91399  0.74325  0.21687  1.0000
  H   H8127     1.0  0.70748  0.81326  0.17822  1.0000
  N   N338      1.0  0.80604  0.77711  0.15296  1.0000
  C   C4764     1.0  0.82148  0.77339  0.14818  1.0000
  C   C4765     1.0  0.80310  0.78318  0.16522  1.0000
  C   C4766     1.0  0.80052  0.76449  0.15598  1.0000
  H   H8128     1.0  0.61330  0.83640  0.16344  1.0000
  C   C4767     1.0  0.80870  0.77366  0.17751  1.0000
  C   C4768     1.0  0.78614  0.76448  0.16553  1.0000
  H   H8129     1.0  0.72344  0.83235  0.20009  1.0000
  H   H8130     1.0  0.82621  0.76550  0.15605  1.0000
  H   H8131     1.0  0.79199  0.78695  0.16903  1.0000
  C   C4769     1.0  0.57695  0.88893  0.09696  1.0000
  H   H8132     1.0  0.80765  0.75550  0.16066  1.0000
  C   C4770     1.0  0.51623  0.86033  0.13759  1.0000
  H   H8133     1.0  0.75788  0.89250  0.21388  1.0000
  H   H8134     1.0  0.82002  0.77206  0.17570  1.0000
  H   H8135     1.0  0.80431  0.77845  0.18647  1.0000
  H   H8136     1.0  0.80587  0.76368  0.18035  1.0000
  H   H8137     1.0  0.78018  0.76009  0.16121  1.0000
  H   H8138     1.0  0.78707  0.75762  0.17554  1.0000
  N   N339      1.0  0.60298  0.86430  0.01699  1.0000
  C   C4771     1.0  0.60905  0.87490  0.00574  1.0000
  C   C4772     1.0  0.60269  0.85318  0.01058  1.0000
  C   C4773     1.0  0.61208  0.85875  0.02715  1.0000
  C   C4774     1.0  0.58882  0.87114  0.02361  1.0000
  H   H8139     1.0  0.73739  0.90615  0.20276  1.0000
  C   C4775     1.0  0.59455  0.85758  0.99929  1.0000
  C   C4776     1.0  0.61207  0.84416  0.03560  1.0000
  C   C4777     1.0  0.58036  0.86211  0.03511  1.0000
  H   H8140     1.0  0.61856  0.86999  0.99923  1.0000
  H   H8141     1.0  0.60193  0.88038  0.99884  1.0000
  H   H8142     1.0  0.59850  0.84483  0.01815  1.0000
  H   H8143     1.0  0.61334  0.84824  0.00605  1.0000
  H   H8144     1.0  0.62300  0.85858  0.02199  1.0000
  H   H8145     1.0  0.60960  0.86556  0.03441  1.0000
  H   H8146     1.0  0.58947  0.87915  0.02832  1.0000
  H   H8147     1.0  0.58249  0.87692  0.01603  1.0000
  S   S1376     1.0  0.66054  0.82144  0.21268  1.0000
  H   H8148     1.0  0.81467  0.75563  0.09175  1.0000
  H   H8149     1.0  0.66666  0.82702  0.02608  1.0000
  H   H8150     1.0  0.59442  0.84837  0.99608  1.0000
  H   H8151     1.0  0.58373  0.86267  0.00282  1.0000
  H   H8152     1.0  0.59957  0.86410  0.99006  1.0000
  H   H8153     1.0  0.60171  0.84263  0.04109  1.0000
  H   H8154     1.0  0.61812  0.84199  0.04343  1.0000
  H   H8155     1.0  0.61715  0.83652  0.02918  1.0000
  H   H8156     1.0  0.58316  0.86075  0.04495  1.0000
  H   H8157     1.0  0.58125  0.85208  0.03308  1.0000
  H   H8158     1.0  0.56928  0.86705  0.03611  1.0000
  N   N340      1.0  0.65619  0.86773  0.11653  1.0000
  C   C4778     1.0  0.66201  0.86162  0.10409  1.0000
  C   C4779     1.0  0.66762  0.87211  0.11921  1.0000
  C   C4780     1.0  0.64468  0.87990  0.11348  1.0000
  C   C4781     1.0  0.65088  0.85703  0.12814  1.0000
  C   C4782     1.0  0.65161  0.85748  0.09890  1.0000
  C   C4783     1.0  0.68023  0.86076  0.12205  1.0000
  C   C4784     1.0  0.64193  0.89168  0.12072  1.0000
  C   C4785     1.0  0.64577  0.86065  0.14222  1.0000
  H   H8159     1.0  0.66707  0.86881  0.09550  1.0000
  H   H8160     1.0  0.67015  0.85225  0.10589  1.0000
  H   H8161     1.0  0.66402  0.87707  0.12802  1.0000
  H   H8162     1.0  0.67138  0.87994  0.11041  1.0000
  H   H8163     1.0  0.64662  0.88478  0.10246  1.0000
  H   H8164     1.0  0.63481  0.87671  0.11571  1.0000
  H   H8165     1.0  0.64208  0.85448  0.12616  1.0000
  H   H8166     1.0  0.65883  0.84738  0.12902  1.0000
  H   H8167     1.0  0.65699  0.85385  0.08939  1.0000
  H   H8168     1.0  0.64751  0.84889  0.10612  1.0000
  H   H8169     1.0  0.64306  0.86612  0.09641  1.0000
  H   H8170     1.0  0.68720  0.86506  0.12505  1.0000
  H   H8171     1.0  0.67761  0.85232  0.13055  1.0000
  H   H8172     1.0  0.68616  0.85679  0.11287  1.0000
  H   H8173     1.0  0.63225  0.89898  0.11889  1.0000
  H   H8174     1.0  0.65018  0.89740  0.11658  1.0000
  H   H8175     1.0  0.64098  0.88838  0.13179  1.0000
  H   H8176     1.0  0.65377  0.86322  0.14552  1.0000
  H   H8177     1.0  0.64272  0.85173  0.14988  1.0000
  H   H8178     1.0  0.63653  0.86899  0.14252  1.0000
  H   H8179     1.0  0.64259  0.82923  0.13632  1.0000
  N   N341      1.0  0.78882  0.75363  0.08625  1.0000
  H   H8180     1.0  0.78087  0.79840  0.15312  1.0000
  H   H8181     1.0  0.69617  0.82692  0.18493  1.0000
  H   H8182     1.0  0.67179  0.83157  0.03913  1.0000
  C   C4786     1.0  0.77802  0.76535  0.09116  1.0000
  C   C4787     1.0  0.64895  0.97379  0.13852  1.0000
  C   C4788     1.0  0.70713  0.82318  0.18041  1.0000
  H   H8183     1.0  0.65433  0.87075  0.17083  1.0000
  H   H8184     1.0  0.71483  0.91749  0.21514  1.0000
  H   H8185     1.0  0.65341  0.89287  0.17078  1.0000
  C   C4789     1.0  0.78488  0.79347  0.14428  1.0000
  H   H8186     1.0  0.55219  0.88045  0.21625  1.0000
  C   C4790     1.0  0.92681  0.75295  0.22869  1.0000
  H   H8187     1.0  0.70526  0.85479  0.19306  1.0000
  H   H8188     1.0  0.59859  0.79626  0.21785  1.0000
  H   H8189     1.0  0.50053  0.90552  0.13044  1.0000
  C   C4791     1.0  0.63532  0.87752  0.19271  1.0000
  H   H8190     1.0  0.67573  0.88985  0.19675  1.0000
  Fe  Fe692     1.0  0.64594  0.83625  0.22471  1.0000
  C   C4792     1.0  0.80051  0.78776  0.14166  1.0000
  H   H8191     1.0  0.60172  0.85782  0.20396  1.0000
  H   H8192     1.0  0.60391  0.89156  0.11333  1.0000
  H   H8193     1.0  0.89211  0.77109  0.20049  1.0000
  H   H8194     1.0  0.69672  0.83556  0.03969  1.0000
  H   H8195     1.0  0.58997  0.88771  0.20632  1.0000
  H   H8196     1.0  0.61629  0.88656  0.07827  1.0000
  H   H8197     1.0  0.69143  0.81640  0.01712  1.0000
  H   H8198     1.0  0.55923  0.89410  0.19401  1.0000
  H   H8199     1.0  0.62701  0.87645  0.20200  1.0000
  N   N342      1.0  0.69163  0.83757  0.01421  1.0000
  C   C4793     1.0  0.68236  0.84178  0.00427  1.0000
  C   C4794     1.0  0.68913  0.82420  0.02330  1.0000
  C   C4795     1.0  0.70632  0.83586  0.00616  1.0000
  C   C4796     1.0  0.68809  0.84866  0.02200  1.0000
  C   C4797     1.0  0.68479  0.85410  0.99251  1.0000
  H   H8200     1.0  0.64275  0.90733  0.18494  1.0000
  C   C4798     1.0  0.71757  0.82648  0.01355  1.0000
  C   C4799     1.0  0.69539  0.84610  0.03367  1.0000
  H   H8201     1.0  0.68320  0.83319  0.99954  1.0000
  C   C4800     1.0  0.77684  0.77942  0.08128  1.0000
  H   H8202     1.0  0.65170  0.89803  0.19821  1.0000
  H   H8203     1.0  0.82157  0.74151  0.17641  1.0000
  H   H8204     1.0  0.70756  0.83151  0.99719  1.0000
  H   H8205     1.0  0.70915  0.84592  0.00194  1.0000
  H   H8206     1.0  0.69046  0.85825  0.01510  1.0000
  H   H8207     1.0  0.67683  0.85159  0.02606  1.0000
  H   H8208     1.0  0.68296  0.86352  0.99621  1.0000
  H   H8209     1.0  0.69514  0.85223  0.98577  1.0000
  H   H8210     1.0  0.91365  0.73848  0.19206  1.0000
  H   H8211     1.0  0.66977  0.89290  0.17248  1.0000
  H   H8212     1.0  0.66332  0.85659  0.18116  1.0000
  H   H8213     1.0  0.65930  0.90944  0.18413  1.0000
  S   S1377     1.0  0.78945  0.74309  0.13853  1.0000
  H   H8214     1.0  0.67516  0.86056  0.19703  1.0000
  C   C4801     1.0  0.61279  0.88602  0.01019  1.0000
  H   H8215     1.0  0.70543  0.84908  0.02986  1.0000
  C   C4802     1.0  0.65294  0.90173  0.18713  1.0000
  H   H8216     1.0  0.74318  0.81801  0.19512  1.0000
  H   H8217     1.0  0.63977  0.82670  0.15945  1.0000
  H   H8218     1.0  0.63618  0.81152  0.17089  1.0000
  C   C4803     1.0  0.64399  0.80272  0.14927  1.0000
  H   H8219     1.0  0.60713  0.80078  0.14591  1.0000
  H   H8220     1.0  0.61124  0.85986  0.18687  1.0000
  H   H8221     1.0  0.77978  0.77450  0.16713  1.0000
  C   C4804     1.0  0.61872  0.82791  0.17026  1.0000
  C   C4805     1.0  0.61743  0.80322  0.14298  1.0000
  C   C4806     1.0  0.73050  0.81409  0.18343  1.0000
  N   N343      1.0  0.63189  0.81461  0.15101  1.0000
  N   N344      1.0  0.57843  0.87991  0.19713  1.0000
  C   C4807     1.0  0.57432  0.87075  0.21075  1.0000
  C   C4808     1.0  0.59016  0.87148  0.18870  1.0000
  C   C4809     1.0  0.56618  0.88489  0.19055  1.0000
  C   C4810     1.0  0.58254  0.89158  0.19955  1.0000
  H   H8222     1.0  0.78776  0.75956  0.05777  1.0000
  C   C4811     1.0  0.60332  0.86537  0.19427  1.0000
  C   C4812     1.0  0.56906  0.88812  0.17486  1.0000
  C   C4813     1.0  0.58901  0.90115  0.18689  1.0000
  H   H8223     1.0  0.57237  0.86140  0.20932  1.0000
  H   H8224     1.0  0.71716  0.81564  0.01545  1.0000
  H   H8225     1.0  0.59340  0.87751  0.17843  1.0000
  H   H8226     1.0  0.58678  0.86301  0.18706  1.0000
  H   H8227     1.0  0.55982  0.87710  0.19368  1.0000
  C   C4814     1.0  0.60259  0.91669  0.10032  1.0000
  C   C4815     1.0  0.66130  0.97011  0.14283  1.0000
  H   H8228     1.0  0.58169  0.90034  0.10867  1.0000
  H   H8229     1.0  0.61615  0.90713  0.08433  1.0000
  N   N345      1.0  0.60008  0.89592  0.09312  1.0000
  H   H8230     1.0  0.82602  0.78232  0.14648  1.0000
  C   C4816     1.0  0.60498  0.90903  0.08894  1.0000
  C   C4817     1.0  0.60488  0.88939  0.08096  1.0000
  C   C4818     1.0  0.58464  0.89913  0.09795  1.0000
  H   H8231     1.0  0.70241  0.83445  0.16098  1.0000
  H   H8232     1.0  0.57356  0.89197  0.08722  1.0000
  H   H8233     1.0  0.58014  0.90908  0.09189  1.0000
  H   H8234     1.0  0.69528  0.84383  0.19300  1.0000
  C   C4819     1.0  0.60017  0.89820  0.06797  1.0000
  H   H8235     1.0  0.59996  0.91639  0.08093  1.0000
  H   H8236     1.0  0.58923  0.90349  0.07002  1.0000
  C   C4820     1.0  0.74118  0.92091  0.22685  1.0000
  H   H8237     1.0  0.68551  0.86123  0.16776  1.0000
  H   H8238     1.0  0.82253  0.75911  0.13561  1.0000
  H   H8239     1.0  0.77927  0.78559  0.14522  1.0000
  C   C4821     1.0  0.69609  0.81379  0.20932  1.0000
  H   H8240     1.0  0.89691  0.75959  0.22229  1.0000
  S   S1378     1.0  0.63117  0.84363  0.21093  1.0000
  H   H8241     1.0  0.78040  0.77925  0.07038  1.0000
  C   C4822     1.0  0.64620  0.87052  0.98401  1.0000
  H   H8242     1.0  0.51141  0.88479  0.11185  1.0000
  H   H8243     1.0  0.63474  0.87081  0.18645  1.0000
  H   H8244     1.0  0.59207  0.90884  0.19020  1.0000
  C   C4823     1.0  0.92631  0.74050  0.20544  1.0000
  C   C4824     1.0  0.67481  0.87929  0.20180  1.0000
  H   H8245     1.0  0.77399  0.74336  0.08490  1.0000
  H   H8246     1.0  0.69430  0.80752  0.21981  1.0000
  Fe  Fe693     1.0  0.86522  0.73961  0.22835  1.0000
  H   H8247     1.0  0.71045  0.94311  0.20953  1.0000
  H   H8248     1.0  0.77592  0.74925  0.06055  1.0000
  H   H8249     1.0  0.73868  0.80158  0.20141  1.0000
  H   H8250     1.0  0.67729  0.85609  0.98607  1.0000
  H   H8251     1.0  0.67541  0.97683  0.14982  1.0000
  H   H8252     1.0  0.76206  0.90046  0.19647  1.0000
  H   H8253     1.0  0.71398  0.92539  0.22838  1.0000
  H   H8254     1.0  0.74623  0.92846  0.21874  1.0000
  H   H8255     1.0  0.51278  0.90257  0.10610  1.0000
  H   H8256     1.0  0.93505  0.75400  0.21937  1.0000
  C   C4825     1.0  0.58849  0.79437  0.22401  1.0000
  C   C4826     1.0  0.83245  0.73906  0.17206  1.0000
  H   H8257     1.0  0.91158  0.76518  0.21125  1.0000
  C   C4827     1.0  0.72060  0.92286  0.21866  1.0000
  H   H8258     1.0  0.61740  0.77751  0.22525  1.0000
  H   H8259     1.0  0.49902  0.88843  0.13434  1.0000
  C   C4828     1.0  0.78087  0.73674  0.10847  1.0000
  C   C4829     1.0  0.75748  0.90252  0.20682  1.0000
  H   H8260     1.0  0.89262  0.75377  0.20178  1.0000
  C   C4830     1.0  0.91894  0.74221  0.22943  1.0000
  H   H8261     1.0  0.90698  0.76126  0.19145  1.0000
  H   H8262     1.0  0.56314  0.88548  0.22386  1.0000
  C   C4831     1.0  0.89903  0.76082  0.20104  1.0000
  Fe  Fe694     1.0  0.64781  0.80657  0.22598  1.0000
  H   H8263     1.0  0.58400  0.79076  0.21758  1.0000
  H   H8264     1.0  0.58149  0.80407  0.22605  1.0000
  H   H8265     1.0  0.93098  0.73916  0.18418  1.0000
  C   C4832     1.0  0.66581  0.97977  0.14657  1.0000
  H   H8266     1.0  0.72672  0.89567  0.22484  1.0000
  H   H8267     1.0  0.49718  0.89599  0.09687  1.0000
  H   H8268     1.0  0.93055  0.74976  0.20071  1.0000
  H   H8269     1.0  0.89575  0.73595  0.22848  1.0000
  S   S1379     1.0  0.74751  0.84258  0.22931  1.0000
  S   S1380     1.0  0.65349  0.85214  0.22939  1.0000
  H   H8270     1.0  0.91972  0.76297  0.22951  1.0000
  C   C4833     1.0  0.92415  0.73531  0.19388  1.0000
  Fe  Fe695     1.0  0.77093  0.78733  0.38977  1.0000
  S   S1381     1.0  0.79391  0.78226  0.38337  1.0000
  S   S1382     1.0  0.76028  0.76972  0.39933  1.0000
  Fe  Fe696     1.0  0.76977  0.81762  0.38154  1.0000
  S   S1383     1.0  0.79255  0.81511  0.37423  1.0000
  S   S1384     1.0  0.75614  0.83838  0.38098  1.0000
  Fe  Fe697     1.0  0.79090  0.79888  0.36512  1.0000
  S   S1385     1.0  0.80178  0.79766  0.34367  1.0000
  Fe  Fe698     1.0  0.79354  0.79896  0.39317  1.0000
  S   S1386     1.0  0.81008  0.79628  0.40439  1.0000
  S   S1387     1.0  0.76793  0.80283  0.37066  1.0000
  S   S1388     1.0  0.77076  0.80264  0.40132  1.0000
  Fe  Fe699     1.0  0.87495  0.77954  0.31541  1.0000
  S   S1389     1.0  0.86964  0.80212  0.30967  1.0000
  S   S1390     1.0  0.86512  0.77103  0.33683  1.0000
  Fe  Fe700     1.0  0.89185  0.77696  0.28721  1.0000
  S   S1391     1.0  0.88805  0.79967  0.27920  1.0000
  S   S1392     1.0  0.90166  0.76054  0.27503  1.0000
  Fe  Fe701     1.0  0.89178  0.80058  0.29918  1.0000
  S   S1393     1.0  0.89937  0.81736  0.30290  1.0000
  Fe  Fe702     1.0  0.86641  0.79927  0.29063  1.0000
  S   S1394     1.0  0.84683  0.81021  0.28391  1.0000
  S   S1395     1.0  0.89744  0.77782  0.30630  1.0000
  S   S1396     1.0  0.86993  0.77670  0.29720  1.0000
  Fe  Fe703     1.0  0.78230  0.88709  0.29755  1.0000
  S   S1397     1.0  0.79982  0.89607  0.28340  1.0000
  S   S1398     1.0  0.76386  0.88291  0.29304  1.0000
  Fe  Fe704     1.0  0.79223  0.88530  0.32281  1.0000
  S   S1399     1.0  0.81062  0.89337  0.31084  1.0000
  S   S1400     1.0  0.78876  0.88291  0.34533  1.0000
  Fe  Fe705     1.0  0.79655  0.90866  0.29880  1.0000
  S   S1401     1.0  0.79854  0.93046  0.29422  1.0000
  Fe  Fe706     1.0  0.81267  0.88014  0.29672  1.0000
  S   S1402     1.0  0.83486  0.87073  0.28967  1.0000
  S   S1403     1.0  0.77771  0.90142  0.31162  1.0000
  S   S1404     1.0  0.79555  0.87021  0.30999  1.0000
  C   C4834     1.0  0.81741  0.78223  0.29070  1.0000
  C   C4835     1.0  0.82138  0.77927  0.27630  1.0000
  H   H8271     1.0  0.83992  0.89814  0.28471  1.0000
  H   H8272     1.0  0.74106  0.87347  0.26252  1.0000
  H   H8273     1.0  0.87157  0.80307  0.34689  1.0000
  S   S1405     1.0  0.62004  0.75339  0.28445  1.0000
  H   H8274     1.0  0.68259  0.73878  0.28757  1.0000
  H   H8275     1.0  0.67196  0.86676  0.23156  1.0000
  H   H8276     1.0  0.89337  0.77018  0.37353  1.0000
  C   C4836     1.0  0.85344  0.82909  0.33111  1.0000
  Fe  Fe707     1.0  0.82825  0.84347  0.43943  1.0000
  S   S1406     1.0  0.84399  0.85195  0.42215  1.0000
  S   S1407     1.0  0.80879  0.84071  0.43576  1.0000
  Fe  Fe708     1.0  0.84331  0.84308  0.46114  1.0000
  S   S1408     1.0  0.86045  0.85120  0.44539  1.0000
  Fe  Fe709     1.0  0.84379  0.86551  0.43537  1.0000
  S   S1409     1.0  0.84478  0.88760  0.42778  1.0000
  Fe  Fe710     1.0  0.85933  0.83698  0.43334  1.0000
  S   S1410     1.0  0.87683  0.82485  0.42020  1.0000
  S   S1411     1.0  0.82666  0.85851  0.45183  1.0000
  S   S1412     1.0  0.84356  0.82741  0.44989  1.0000
  Fe  Fe711     1.0  0.84883  0.94422  0.32940  1.0000
  S   S1413     1.0  0.86307  0.95472  0.33338  1.0000
  S   S1414     1.0  0.84688  0.94652  0.30792  1.0000
  Fe  Fe712     1.0  0.83884  0.93253  0.35926  1.0000
  S   S1415     1.0  0.85188  0.94218  0.36573  1.0000
  S   S1416     1.0  0.82539  0.91835  0.37311  1.0000
  Fe  Fe713     1.0  0.84552  0.96096  0.35022  1.0000
  Fe  Fe714     1.0  0.86841  0.93522  0.34847  1.0000
  S   S1417     1.0  0.88900  0.92539  0.35403  1.0000
  S   S1418     1.0  0.83086  0.95177  0.34522  1.0000
  S   S1419     1.0  0.85578  0.92424  0.34300  1.0000
  Fe  Fe715     1.0  0.94404  0.83151  0.34467  1.0000
  S   S1420     1.0  0.95794  0.84487  0.33047  1.0000
  S   S1421     1.0  0.94133  0.81346  0.33837  1.0000
  Fe  Fe716     1.0  0.93767  0.84742  0.36702  1.0000
  S   S1422     1.0  0.95084  0.86203  0.35437  1.0000
  S   S1423     1.0  0.92720  0.85177  0.38780  1.0000
  Fe  Fe717     1.0  0.94121  0.86200  0.33775  1.0000
  S   S1424     1.0  0.93110  0.88027  0.32387  1.0000
  Fe  Fe718     1.0  0.96638  0.84361  0.34848  1.0000
  H   H8277     1.0  0.84568  0.93537  0.26319  1.0000
  S   S1425     1.0  0.92692  0.84868  0.35080  1.0000
  S   S1426     1.0  0.95360  0.82891  0.36229  1.0000
  H   H8278     1.0  0.80995  0.90598  0.35997  1.0000
  H   H8279     1.0  0.90636  0.80453  0.35076  1.0000
  C   C4837     1.0  0.72186  0.90165  0.24397  1.0000
  H   H8280     1.0  0.81198  0.94892  0.32849  1.0000
  H   H8281     1.0  0.90268  0.79547  0.36847  1.0000
  C   C4838     1.0  0.94310  0.86036  0.28036  1.0000
  H   H8282     1.0  0.85528  0.90357  0.37087  1.0000
  H   H8283     1.0  0.98429  0.82560  0.39313  1.0000
  H   H8284     1.0  0.91846  0.78336  0.34338  1.0000
  H   H8285     1.0  0.81973  0.83133  0.34777  1.0000
  H   H8286     1.0  0.92914  0.87461  0.29864  1.0000
  C   C4839     1.0  0.90049  0.91290  0.34546  1.0000
  C   C4840     1.0  0.89828  0.91053  0.33385  1.0000
  C   C4841     1.0  0.90777  0.90059  0.32719  1.0000
  C   C4842     1.0  0.91929  0.89271  0.33232  1.0000
  C   C4843     1.0  0.92136  0.89496  0.34405  1.0000
  C   C4844     1.0  0.91210  0.90514  0.35047  1.0000
  H   H8287     1.0  0.88941  0.91654  0.32984  1.0000
  H   H8288     1.0  0.90615  0.89899  0.31807  1.0000
  H   H8289     1.0  0.93026  0.88905  0.34802  1.0000
  H   H8290     1.0  0.91393  0.90698  0.35938  1.0000
  C   C4845     1.0  0.89065  0.83256  0.41113  1.0000
  C   C4846     1.0  0.89981  0.82757  0.40003  1.0000
  C   C4847     1.0  0.91092  0.83359  0.39261  1.0000
  C   C4848     1.0  0.91309  0.84439  0.39651  1.0000
  C   C4849     1.0  0.90396  0.84937  0.40761  1.0000
  C   C4850     1.0  0.89266  0.84358  0.41480  1.0000
  H   H8291     1.0  0.89830  0.81904  0.39717  1.0000
  H   H8292     1.0  0.91795  0.82968  0.38408  1.0000
  H   H8293     1.0  0.90563  0.85769  0.41068  1.0000
  H   H8294     1.0  0.88570  0.84743  0.42337  1.0000
  C   C4851     1.0  0.83848  0.89630  0.41311  1.0000
  C   C4852     1.0  0.83201  0.89017  0.40717  1.0000
  C   C4853     1.0  0.82765  0.89717  0.39509  1.0000
  C   C4854     1.0  0.82993  0.91022  0.38880  1.0000
  C   C4855     1.0  0.83616  0.91643  0.39489  1.0000
  C   C4856     1.0  0.84029  0.90954  0.40708  1.0000
  H   H8295     1.0  0.83034  0.88006  0.41189  1.0000
  H   H8296     1.0  0.82278  0.89237  0.39046  1.0000
  H   H8297     1.0  0.83768  0.92660  0.39028  1.0000
  H   H8298     1.0  0.84516  0.91439  0.41170  1.0000
  H   H8299     1.0  0.93142  0.86352  0.26469  1.0000
  H   H8300     1.0  0.67032  0.82514  0.23679  1.0000
  H   H8301     1.0  0.89641  0.73765  0.26852  1.0000
  H   H8302     1.0  0.78193  0.78562  0.33529  1.0000
  H   H8303     1.0  0.80339  0.77438  0.33389  1.0000
  C   C4857     1.0  0.77615  0.77930  0.34407  1.0000
  S   S1427     1.0  0.98892  0.83673  0.35021  1.0000
  H   H8304     1.0  0.86004  0.91232  0.25190  1.0000
  C   C4858     1.0  0.76229  0.87344  0.25321  1.0000
  H   H8305     1.0  0.88409  0.80577  0.35415  1.0000
  H   H8306     1.0  0.75486  0.76742  0.45161  1.0000
  H   H8307     1.0  0.77727  0.75377  0.37072  1.0000
  H   H8308     1.0  0.84527  0.80932  0.35343  1.0000
  C   C4859     1.0  0.83464  0.81292  0.35184  1.0000
  C   C4860     1.0  0.64806  0.77608  0.24909  1.0000
  C   C4861     1.0  0.63713  0.78315  0.25755  1.0000
  C   C4862     1.0  0.62892  0.77604  0.26867  1.0000
  C   C4863     1.0  0.63157  0.76181  0.27142  1.0000
  C   C4864     1.0  0.64286  0.75469  0.26332  1.0000
  C   C4865     1.0  0.65113  0.76182  0.25222  1.0000
  H   H8309     1.0  0.63487  0.79411  0.25542  1.0000
  H   H8310     1.0  0.62033  0.78161  0.27503  1.0000
  H   H8311     1.0  0.95670  0.87226  0.39504  1.0000
  H   H8312     1.0  0.65961  0.75629  0.24573  1.0000
  H   H8313     1.0  0.95697  0.83044  0.30948  1.0000
  H   H8314     1.0  0.80441  0.75515  0.40908  1.0000
  H   H8315     1.0  0.80222  0.76410  0.32357  1.0000
  C   C4866     1.0  0.97949  0.85146  0.39752  1.0000
  C   C4867     1.0  0.81199  0.93445  0.29855  1.0000
  C   C4868     1.0  0.81562  0.94688  0.29196  1.0000
  C   C4869     1.0  0.82628  0.95046  0.29495  1.0000
  C   C4870     1.0  0.83320  0.94184  0.30488  1.0000
  C   C4871     1.0  0.82960  0.92940  0.31156  1.0000
  C   C4872     1.0  0.81904  0.92569  0.30836  1.0000
  H   H8316     1.0  0.81025  0.95375  0.28438  1.0000
  H   H8317     1.0  0.82911  0.96002  0.28963  1.0000
  H   H8318     1.0  0.83507  0.92258  0.31908  1.0000
  H   H8319     1.0  0.81622  0.91622  0.31374  1.0000
  C   C4873     1.0  0.76345  0.87965  0.27744  1.0000
  C   C4874     1.0  0.75113  0.87802  0.27569  1.0000
  C   C4875     1.0  0.77453  0.87533  0.25487  1.0000
  C   C4876     1.0  0.77515  0.87836  0.26693  1.0000
  H   H8320     1.0  0.74196  0.87919  0.28367  1.0000
  H   H8321     1.0  0.78365  0.87431  0.24680  1.0000
  H   H8322     1.0  0.78469  0.87960  0.26810  1.0000
  C   C4877     1.0  0.91019  0.81522  0.31401  1.0000
  C   C4878     1.0  0.92143  0.80422  0.31501  1.0000
  C   C4879     1.0  0.93078  0.80375  0.32266  1.0000
  C   C4880     1.0  0.92899  0.81425  0.32935  1.0000
  C   C4881     1.0  0.91743  0.82497  0.32879  1.0000
  C   C4882     1.0  0.90811  0.82546  0.32111  1.0000
  H   H8323     1.0  0.92322  0.79634  0.30949  1.0000
  H   H8324     1.0  0.93964  0.79537  0.32313  1.0000
  H   H8325     1.0  0.91581  0.83297  0.33410  1.0000
  H   H8326     1.0  0.89941  0.83398  0.32042  1.0000
  C   C4883     1.0  0.84358  0.82741  0.28419  1.0000
  C   C4884     1.0  0.85429  0.83311  0.28391  1.0000
  C   C4885     1.0  0.85155  0.84664  0.28509  1.0000
  C   C4886     1.0  0.83807  0.85437  0.28683  1.0000
  C   C4887     1.0  0.82736  0.84877  0.28688  1.0000
  C   C4888     1.0  0.83014  0.83529  0.28543  1.0000
  H   H8327     1.0  0.86469  0.82707  0.28289  1.0000
  H   H8328     1.0  0.85986  0.85098  0.28501  1.0000
  H   H8329     1.0  0.81695  0.85477  0.28809  1.0000
  H   H8330     1.0  0.82185  0.83087  0.28564  1.0000
  C   C4889     1.0  0.78794  0.75229  0.37151  1.0000
  H   H8331     1.0  0.65543  0.78931  0.29593  1.0000
  H   H8332     1.0  0.83342  0.83334  0.35322  1.0000
  H   H8333     1.0  0.84375  0.78381  0.28331  1.0000
  H   H8334     1.0  0.79586  0.90693  0.35281  1.0000
  C   C4890     1.0  0.80961  0.80883  0.41291  1.0000
  C   C4891     1.0  0.82165  0.80927  0.41618  1.0000
  C   C4892     1.0  0.82155  0.81893  0.42325  1.0000
  C   C4893     1.0  0.80930  0.82799  0.42743  1.0000
  C   C4894     1.0  0.79721  0.82740  0.42435  1.0000
  C   C4895     1.0  0.79739  0.81802  0.41692  1.0000
  H   H8335     1.0  0.83113  0.80213  0.41319  1.0000
  H   H8336     1.0  0.83092  0.81930  0.42555  1.0000
  H   H8337     1.0  0.78768  0.83431  0.42765  1.0000
  H   H8338     1.0  0.78803  0.81769  0.41458  1.0000
  C   C4896     1.0  0.81915  0.78947  0.34204  1.0000
  C   C4897     1.0  0.82468  0.78267  0.35345  1.0000
  C   C4898     1.0  0.83876  0.77666  0.35187  1.0000
  C   C4899     1.0  0.84735  0.77764  0.33888  1.0000
  C   C4900     1.0  0.84174  0.78435  0.32752  1.0000
  C   C4901     1.0  0.82767  0.79009  0.32907  1.0000
  H   H8339     1.0  0.81824  0.78224  0.36351  1.0000
  H   H8340     1.0  0.84304  0.77155  0.36071  1.0000
  H   H8341     1.0  0.84820  0.78524  0.31747  1.0000
  H   H8342     1.0  0.82348  0.79528  0.32019  1.0000
  C   C4902     1.0  0.76500  0.85081  0.37077  1.0000
  C   C4903     1.0  0.77557  0.84796  0.35960  1.0000
  C   C4904     1.0  0.78240  0.85808  0.35131  1.0000
  C   C4905     1.0  0.77907  0.87085  0.35451  1.0000
  C   C4906     1.0  0.76863  0.87367  0.36577  1.0000
  C   C4907     1.0  0.76142  0.86372  0.37375  1.0000
  H   H8343     1.0  0.77825  0.83806  0.35714  1.0000
  H   H8344     1.0  0.79034  0.85593  0.34257  1.0000
  H   H8345     1.0  0.76604  0.88355  0.36827  1.0000
  H   H8346     1.0  0.75321  0.86594  0.38237  1.0000
  C   C4908     1.0  0.75277  0.76390  0.38938  1.0000
  C   C4909     1.0  0.75181  0.77096  0.37616  1.0000
  C   C4910     1.0  0.74675  0.76565  0.36810  1.0000
  H   H8347     1.0  0.95942  0.85715  0.41985  1.0000
  H   H8348     1.0  0.95112  0.85188  0.27666  1.0000
  C   C4911     1.0  0.89108  0.74686  0.26278  1.0000
  H   H8349     1.0  0.75508  0.78045  0.37210  1.0000
  H   H8350     1.0  0.74621  0.77109  0.35783  1.0000
  C   C4912     1.0  0.89185  0.79002  0.34119  1.0000
  C   C4913     1.0  0.91391  0.76406  0.33561  1.0000
  C   C4914     1.0  0.87488  0.77393  0.36638  1.0000
  C   C4915     1.0  0.88251  0.80330  0.34523  1.0000
  H   H8351     1.0  0.89304  0.76365  0.34572  1.0000
  H   H8352     1.0  0.90000  0.79287  0.33224  1.0000
  H   H8353     1.0  0.88540  0.78576  0.33730  1.0000
  H   H8354     1.0  0.91305  0.77296  0.32705  1.0000
  H   H8355     1.0  0.91394  0.75505  0.33196  1.0000
  H   H8356     1.0  0.87684  0.76330  0.36523  1.0000
  H   H8357     1.0  0.86789  0.77451  0.37648  1.0000
  H   H8358     1.0  0.88430  0.81197  0.33657  1.0000
  C   C4916     1.0  0.87588  0.96039  0.38001  1.0000
  H   H8359     1.0  0.81254  0.78483  0.27147  1.0000
  C   C4917     1.0  0.74814  0.75172  0.39459  1.0000
  H   H8360     1.0  0.76820  0.76097  0.42860  1.0000
  Fe  Fe719     1.0  0.72451  0.84814  0.23324  1.0000
  H   H8361     1.0  0.99209  0.86476  0.33789  1.0000
  H   H8362     1.0  0.85431  0.90769  0.29202  1.0000
  H   H8363     1.0  0.96080  0.88302  0.37088  1.0000
  H   H8364     1.0  0.77716  0.78092  0.35370  1.0000
  H   H8365     1.0  0.87319  0.97099  0.35255  1.0000
  H   H8366     1.0  0.73331  0.92686  0.23396  1.0000
  C   C4918     1.0  0.58586  0.79839  0.25279  1.0000
  H   H8367     1.0  0.81994  0.91335  0.45862  1.0000
  C   C4919     1.0  0.79738  0.75793  0.35818  1.0000
  C   C4920     1.0  0.83718  0.89930  0.25990  1.0000
  C   C4921     1.0  0.95679  0.84579  0.40614  1.0000
  C   C4922     1.0  0.94017  0.84708  0.30401  1.0000
  C   C4923     1.0  0.67668  0.85604  0.23365  1.0000
  C   C4924     1.0  0.89170  0.75955  0.26434  1.0000
  H   H8368     1.0  0.90475  0.75733  0.35665  1.0000
  H   H8369     1.0  0.90683  0.87476  0.31393  1.0000
  H   H8370     1.0  0.62714  0.77198  0.31268  1.0000
  H   H8371     1.0  0.75713  0.90186  0.23235  1.0000
  H   H8372     1.0  0.82734  0.79136  0.24103  1.0000
  H   H8373     1.0  0.85593  0.83188  0.33950  1.0000
  C   C4925     1.0  0.93712  0.86903  0.26802  1.0000
  H   H8374     1.0  0.68393  0.75795  0.29429  1.0000
  H   H8375     1.0  0.77945  0.75042  0.44588  1.0000
  C   C4926     1.0  0.85066  0.91363  0.28267  1.0000
  C   C4927     1.0  0.74297  0.74645  0.38653  1.0000
  C   C4928     1.0  0.90193  0.76578  0.34808  1.0000
  H   H8376     1.0  0.79260  0.91408  0.33076  1.0000
  C   C4929     1.0  0.89325  0.96183  0.34226  1.0000
  H   H8377     1.0  0.82253  0.80229  0.25845  1.0000
  H   H8378     1.0  0.91980  0.79564  0.35922  1.0000
  H   H8379     1.0  0.79744  0.76855  0.35811  1.0000
  H   H8380     1.0  0.94969  0.86539  0.38549  1.0000
  H   H8381     1.0  0.72270  0.89136  0.25070  1.0000
  H   H8382     1.0  0.78639  0.75752  0.41104  1.0000
  H   H8383     1.0  0.65841  0.74072  0.30241  1.0000
  S   S1428     1.0  0.73803  0.74632  0.36181  1.0000
  H   H8384     1.0  0.85809  0.89248  0.24783  1.0000
  N   N346      1.0  0.89806  0.77938  0.35210  1.0000
  H   H8385     1.0  0.88507  0.78738  0.36974  1.0000
  H   H8386     1.0  0.80867  0.93398  0.26242  1.0000
  H   H8387     1.0  0.86933  0.78083  0.35863  1.0000
  C   C4930     1.0  0.87487  0.88870  0.36765  1.0000
  H   H8388     1.0  0.77249  0.75930  0.35119  1.0000
  C   C4931     1.0  0.90954  0.79525  0.35830  1.0000
  H   H8389     1.0  0.86628  0.85557  0.39303  1.0000
  C   C4932     1.0  0.88823  0.77795  0.36579  1.0000
  H   H8390     1.0  0.94247  0.85393  0.30912  1.0000
  C   C4933     1.0  0.92435  0.84743  0.28991  1.0000
  H   H8391     1.0  0.87960  0.89706  0.36056  1.0000
  S   S1429     1.0  0.72294  0.86874  0.23687  1.0000
  H   H8392     1.0  0.91692  0.87382  0.29015  1.0000
  H   H8393     1.0  0.93346  0.84103  0.31206  1.0000
  H   H8394     1.0  0.96226  0.84269  0.29470  1.0000
  H   H8395     1.0  0.65849  0.79443  0.27819  1.0000
  S   S1430     1.0  0.86721  0.75779  0.23488  1.0000
  H   H8396     1.0  0.81210  0.85162  0.33020  1.0000
  C   C4934     1.0  0.60922  0.79054  0.24041  1.0000
  H   H8397     1.0  0.61357  0.79273  0.24790  1.0000
  H   H8398     1.0  0.81288  0.90440  0.34289  1.0000
  C   C4935     1.0  0.83650  0.90340  0.46964  1.0000
  N   N347      1.0  0.80096  0.86309  0.39163  1.0000
  C   C4936     1.0  0.78749  0.86010  0.40042  1.0000
  C   C4937     1.0  0.80319  0.85897  0.37835  1.0000
  C   C4938     1.0  0.80086  0.87799  0.38880  1.0000
  C   C4939     1.0  0.81224  0.85523  0.39897  1.0000
  C   C4940     1.0  0.78221  0.86553  0.41364  1.0000
  C   C4941     1.0  0.80666  0.84353  0.37900  1.0000
  C   C4942     1.0  0.78921  0.88774  0.38223  1.0000
  C   C4943     1.0  0.82694  0.85681  0.39139  1.0000
  H   H8399     1.0  0.77917  0.86406  0.39466  1.0000
  H   H8400     1.0  0.78816  0.84896  0.40353  1.0000
  H   H8401     1.0  0.81129  0.86341  0.37039  1.0000
  H   H8402     1.0  0.79385  0.86323  0.37414  1.0000
  H   H8403     1.0  0.80049  0.88112  0.39824  1.0000
  H   H8404     1.0  0.81063  0.88012  0.38180  1.0000
  H   H8405     1.0  0.81049  0.85839  0.40871  1.0000
  H   H8406     1.0  0.81222  0.84423  0.40219  1.0000
  H   H8407     1.0  0.78933  0.86112  0.42062  1.0000
  H   H8408     1.0  0.78003  0.87677  0.41171  1.0000
  H   H8409     1.0  0.77238  0.86248  0.41917  1.0000
  H   H8410     1.0  0.79891  0.83838  0.38663  1.0000
  H   H8411     1.0  0.80671  0.84183  0.36901  1.0000
  H   H8412     1.0  0.81699  0.83858  0.38111  1.0000
  H   H8413     1.0  0.78999  0.89837  0.38101  1.0000
  H   H8414     1.0  0.77888  0.88681  0.38854  1.0000
  H   H8415     1.0  0.79010  0.88620  0.37196  1.0000
  H   H8416     1.0  0.82944  0.86533  0.39390  1.0000
  H   H8417     1.0  0.82865  0.85850  0.38023  1.0000
  H   H8418     1.0  0.83438  0.84726  0.39453  1.0000
  N   N348      1.0  0.79134  0.93487  0.34564  1.0000
  C   C4944     1.0  0.79283  0.94909  0.34456  1.0000
  C   C4945     1.0  0.78088  0.93147  0.35857  1.0000
  C   C4946     1.0  0.78597  0.93519  0.33360  1.0000
  C   C4947     1.0  0.80523  0.92536  0.34560  1.0000
  C   C4948     1.0  0.80170  0.95555  0.33115  1.0000
  C   C4949     1.0  0.78487  0.93102  0.37181  1.0000
  C   C4950     1.0  0.78303  0.92192  0.33270  1.0000
  C   C4951     1.0  0.91288  0.86488  0.31135  1.0000
  H   H8419     1.0  0.78258  0.95624  0.34597  1.0000
  H   H8420     1.0  0.79755  0.94935  0.35276  1.0000
  H   H8421     1.0  0.77836  0.92159  0.35982  1.0000
  H   H8422     1.0  0.77090  0.93896  0.35827  1.0000
  H   H8423     1.0  0.77633  0.94319  0.33312  1.0000
  H   H8424     1.0  0.79337  0.93798  0.32393  1.0000
  C   C4952     1.0  0.84518  0.87952  0.46575  1.0000
  H   H8425     1.0  0.79465  0.74704  0.42464  1.0000
  H   H8426     1.0  0.84032  0.81535  0.24983  1.0000
  H   H8427     1.0  0.68575  0.76249  0.31471  1.0000
  H   H8428     1.0  0.89966  0.95328  0.39036  1.0000
  H   H8429     1.0  0.77715  0.92709  0.38065  1.0000
  H   H8430     1.0  0.79499  0.92417  0.37271  1.0000
  H   H8431     1.0  0.78484  0.94129  0.37278  1.0000
  H   H8432     1.0  0.96753  0.82206  0.39585  1.0000
  C   C4953     1.0  0.68973  0.85183  0.23664  1.0000
  H   H8433     1.0  0.80339  0.96512  0.33233  1.0000
  C   C4954     1.0  0.84872  0.93290  0.25304  1.0000
  C   C4955     1.0  0.80571  0.90993  0.35068  1.0000
  C   C4956     1.0  0.90548  0.95767  0.38028  1.0000
  H   H8434     1.0  0.60791  0.80026  0.23277  1.0000
  H   H8435     1.0  0.76515  0.78317  0.34365  1.0000
  H   H8436     1.0  0.82767  0.81031  0.36189  1.0000
  N   N349      1.0  0.93286  0.85535  0.29281  1.0000
  C   C4957     1.0  0.84980  0.88819  0.25552  1.0000
  C   C4958     1.0  0.74245  0.75331  0.37315  1.0000
  H   H8437     1.0  0.85711  0.89397  0.35867  1.0000
  H   H8438     1.0  0.85384  0.88137  0.26433  1.0000
  H   H8439     1.0  0.97619  0.84598  0.37395  1.0000
  H   H8440     1.0  0.76648  0.77850  0.42117  1.0000
  C   C4959     1.0  0.84916  0.91807  0.25280  1.0000
  H   H8441     1.0  0.91626  0.77359  0.36033  1.0000
  H   H8442     1.0  0.87760  0.87059  0.40025  1.0000
  H   H8443     1.0  0.91708  0.85408  0.28352  1.0000
  H   H8444     1.0  0.91627  0.95176  0.37942  1.0000
  C   C4960     1.0  0.75430  0.77392  0.44140  1.0000
  H   H8445     1.0  0.93414  0.82572  0.29176  1.0000
  H   H8446     1.0  0.84715  0.90467  0.46768  1.0000
  C   C4961     1.0  0.96768  0.87329  0.37463  1.0000
  H   H8447     1.0  0.82716  0.92798  0.27295  1.0000
  C   C4962     1.0  0.87473  0.89754  0.38678  1.0000
  H   H8448     1.0  0.97913  0.82225  0.37972  1.0000
  H   H8449     1.0  0.74876  0.74621  0.40483  1.0000
  H   H8450     1.0  0.96171  0.83550  0.41123  1.0000
  H   H8451     1.0  0.84658  0.88160  0.25088  1.0000
  H   H8452     1.0  0.90544  0.85936  0.31088  1.0000
  H   H8453     1.0  0.82009  0.91359  0.27823  1.0000
  H   H8454     1.0  0.91741  0.84347  0.29940  1.0000
  C   C4963     1.0  0.93202  0.83494  0.28368  1.0000
  H   H8455     1.0  0.86197  0.87772  0.39547  1.0000
  C   C4964     1.0  0.59011  0.80283  0.26361  1.0000
  N   N350      1.0  0.79473  0.75687  0.34514  1.0000
  H   H8456     1.0  0.89035  0.89340  0.39892  1.0000
  H   H8457     1.0  0.86338  0.90078  0.38909  1.0000
  H   H8458     1.0  0.77631  0.76236  0.45616  1.0000
  H   H8459     1.0  0.79049  0.77813  0.41369  1.0000
  C   C4965     1.0  0.82620  0.91948  0.26924  1.0000
  C   C4966     1.0  0.95118  0.85428  0.41722  1.0000
  C   C4967     1.0  0.85927  0.89326  0.36865  1.0000
  H   H8460     1.0  0.91017  0.74284  0.23838  1.0000
  H   H8461     1.0  0.82161  0.76836  0.27742  1.0000
  C   C4968     1.0  0.77919  0.78433  0.43781  1.0000
  C   C4969     1.0  0.79748  0.74215  0.34425  1.0000
  H   H8462     1.0  0.90134  0.87838  0.35718  1.0000
  C   C4970     1.0  0.89488  0.88097  0.37842  1.0000
  H   H8463     1.0  0.91360  0.87007  0.36722  1.0000
  H   H8464     1.0  0.91801  0.85935  0.31987  1.0000
  C   C4971     1.0  0.78037  0.76413  0.34344  1.0000
  C   C4972     1.0  0.88344  0.74605  0.25396  1.0000
  H   H8465     1.0  0.64492  0.74373  0.26525  1.0000
  H   H8466     1.0  0.85354  0.88602  0.37627  1.0000
  H   H8467     1.0  0.83326  0.77468  0.23766  1.0000
  H   H8468     1.0  0.85423  0.96259  0.38999  1.0000
  H   H8469     1.0  0.89830  0.87518  0.38794  1.0000
  H   H8470     1.0  0.85641  0.89662  0.27356  1.0000
  H   H8471     1.0  0.92396  0.76215  0.33832  1.0000
  H   H8472     1.0  0.67523  0.74935  0.27329  1.0000
  H   H8473     1.0  0.92545  0.83305  0.27798  1.0000
  C   C4973     1.0  0.75055  0.87485  0.26368  1.0000
  C   C4974     1.0  0.83105  0.82838  0.34629  1.0000
  H   H8474     1.0  0.93052  0.87893  0.26998  1.0000
  H   H8475     1.0  0.84054  0.85322  0.33182  1.0000
  C   C4975     1.0  0.67571  0.83259  0.23671  1.0000
  N   N351      1.0  0.88598  0.96512  0.36725  1.0000
  H   H8476     1.0  0.81705  0.79295  0.29048  1.0000
  C   C4976     1.0  0.89999  0.95641  0.36858  1.0000
  C   C4977     1.0  0.88201  0.96287  0.35538  1.0000
  H   H8477     1.0  0.88281  0.73625  0.25301  1.0000
  C   C4978     1.0  0.96930  0.84247  0.38360  1.0000
  H   H8478     1.0  0.67296  0.78751  0.28613  1.0000
  H   H8479     1.0  0.82455  0.77539  0.29709  1.0000
  H   H8480     1.0  0.87417  0.88901  0.40862  1.0000
  N   N352      1.0  0.59567  0.78661  0.24717  1.0000
  C   C4979     1.0  0.83186  0.79825  0.26277  1.0000
  H   H8481     1.0  0.90793  0.95853  0.35921  1.0000
  H   H8482     1.0  0.88489  0.98222  0.37585  1.0000
  H   H8483     1.0  0.59570  0.77373  0.23412  1.0000
  C   C4980     1.0  0.82000  0.75712  0.33242  1.0000
  N   N353      1.0  0.83566  0.88869  0.47502  1.0000
  H   H8484     1.0  0.84899  0.77802  0.24920  1.0000
  H   H8485     1.0  0.85928  0.91801  0.27571  1.0000
  C   C4981     1.0  0.58969  0.78343  0.23718  1.0000
  H   H8486     1.0  0.58077  0.80727  0.27060  1.0000
  H   H8487     1.0  0.97778  0.86042  0.40200  1.0000
  S   S1431     1.0  0.67635  0.74222  0.35490  1.0000
  H   H8488     1.0  0.56980  0.83227  0.23452  1.0000
  H   H8489     1.0  0.82366  0.75815  0.34096  1.0000
  H   H8490     1.0  0.90001  0.94547  0.36988  1.0000
  C   C4982     1.0  0.81719  0.92581  0.25868  1.0000
  H   H8491     1.0  0.84649  0.91868  0.24305  1.0000
  C   C4983     1.0  0.83890  0.77620  0.25547  1.0000
  C   C4984     1.0  0.79774  0.75357  0.44882  1.0000
  H   H8492     1.0  0.98195  0.84235  0.40564  1.0000
  H   H8493     1.0  0.87849  0.90625  0.37923  1.0000
  C   C4985     1.0  0.67324  0.74238  0.28335  1.0000
  H   H8494     1.0  0.81680  0.85475  0.34423  1.0000
  H   H8495     1.0  0.63285  0.75952  0.30261  1.0000
  H   H8496     1.0  0.60480  0.77472  0.26424  1.0000
  H   H8497     1.0  0.80635  0.73597  0.34879  1.0000
  H   H8498     1.0  0.74593  0.77179  0.43820  1.0000
  H   H8499     1.0  0.82953  0.80313  0.27155  1.0000
  N   N354      1.0  0.66181  0.76117  0.29727  1.0000
  C   C4986     1.0  0.66060  0.74886  0.29326  1.0000
  C   C4987     1.0  0.64931  0.76469  0.30825  1.0000
  H   H8500     1.0  0.84060  0.76494  0.25893  1.0000
  C   C4988     1.0  0.66270  0.77243  0.28473  1.0000
  H   H8501     1.0  0.94774  0.84439  0.40342  1.0000
  C   C4989     1.0  0.63536  0.76846  0.30421  1.0000
  H   H8502     1.0  0.69313  0.81763  0.24289  1.0000
  C   C4990     1.0  0.66247  0.78658  0.28656  1.0000
  C   C4991     1.0  0.85895  0.88334  0.45768  1.0000
  H   H8503     1.0  0.65180  0.75132  0.28831  1.0000
  H   H8504     1.0  0.64966  0.77325  0.31230  1.0000
  H   H8505     1.0  0.64897  0.75603  0.31721  1.0000
  H   H8506     1.0  0.88531  0.78122  0.25792  1.0000
  C   C4992     1.0  0.67469  0.75734  0.30274  1.0000
  H   H8507     1.0  0.67239  0.76978  0.27719  1.0000
  H   H8508     1.0  0.65466  0.77359  0.27912  1.0000
  H   H8509     1.0  0.87680  0.94920  0.38180  1.0000
  H   H8510     1.0  0.86544  0.87494  0.45265  1.0000
  C   C4993     1.0  0.78290  0.75927  0.44664  1.0000
  H   H8511     1.0  0.58780  0.76064  0.27545  1.0000
  C   C4994     1.0  0.95397  0.83713  0.30006  1.0000
  H   H8512     1.0  0.83230  0.90348  0.25101  1.0000
  H   H8513     1.0  0.94884  0.86649  0.28292  1.0000
  H   H8514     1.0  0.85284  0.76102  0.29060  1.0000
  H   H8515     1.0  0.80474  0.76062  0.44435  1.0000
  C   C4995     1.0  0.95952  0.86557  0.38767  1.0000
  H   H8516     1.0  0.81074  0.92807  0.35181  1.0000
  H   H8517     1.0  0.88846  0.96218  0.33393  1.0000
  H   H8518     1.0  0.84127  0.75764  0.28308  1.0000
  N   N355      1.0  0.96663  0.85137  0.39356  1.0000
  H   H8519     1.0  0.83516  0.91986  0.45171  1.0000
  H   H8520     1.0  0.87336  0.86235  0.37607  1.0000
  H   H8521     1.0  0.77844  0.92411  0.32376  1.0000
  C   C4996     1.0  0.84361  0.80408  0.25220  1.0000
  C   C4997     1.0  0.83133  0.91039  0.45644  1.0000
  C   C4998     1.0  0.88502  0.98002  0.36601  1.0000
  C   C4999     1.0  0.84589  0.77830  0.27501  1.0000
  C   C5000     1.0  0.97544  0.82726  0.38854  1.0000
  C   C5001     1.0  0.58483  0.77048  0.26842  1.0000
  H   H8522     1.0  0.94332  0.86348  0.41422  1.0000
  H   H8523     1.0  0.88456  0.85368  0.38768  1.0000
  H   H8524     1.0  0.67638  0.74656  0.30844  1.0000
  H   H8525     1.0  0.77034  0.78614  0.44645  1.0000
  H   H8526     1.0  0.97140  0.86777  0.36624  1.0000
  H   H8527     1.0  0.84011  0.87892  0.45797  1.0000
  C   C5002     1.0  0.91101  0.78229  0.35335  1.0000
  H   H8528     1.0  0.82296  0.93041  0.24868  1.0000
  H   H8529     1.0  0.59643  0.81056  0.25872  1.0000
  H   H8530     1.0  0.83491  0.90385  0.44890  1.0000
  H   H8531     1.0  0.57742  0.76925  0.26331  1.0000
  H   H8532     1.0  0.87260  0.77987  0.24181  1.0000
  C   C5003     1.0  0.80455  0.76366  0.33344  1.0000
  H   H8533     1.0  0.87543  0.90631  0.40299  1.0000
  H   H8534     1.0  0.79272  0.78004  0.45197  1.0000
  C   C5004     1.0  0.87305  0.87391  0.39114  1.0000
  H   H8535     1.0  0.89930  0.89017  0.37516  1.0000
  H   H8536     1.0  0.59593  0.79434  0.27012  1.0000
  N   N356      1.0  0.83818  0.83330  0.33181  1.0000
  C   C5005     1.0  0.88478  0.77140  0.25690  1.0000
  C   C5006     1.0  0.83436  0.84864  0.32791  1.0000
  C   C5007     1.0  0.83523  0.82700  0.32193  1.0000
  C   C5008     1.0  0.86270  0.83512  0.31776  1.0000
  C   C5009     1.0  0.81936  0.85560  0.33307  1.0000
  C   C5010     1.0  0.82008  0.82856  0.32185  1.0000
  H   H8537     1.0  0.85703  0.81787  0.33248  1.0000
  H   H8538     1.0  0.83681  0.85221  0.31666  1.0000
  H   H8539     1.0  0.84002  0.83143  0.31138  1.0000
  H   H8540     1.0  0.84031  0.81601  0.32295  1.0000
  H   H8541     1.0  0.87358  0.83130  0.31862  1.0000
  H   H8542     1.0  0.86185  0.83185  0.30893  1.0000
  H   H8543     1.0  0.86070  0.84637  0.31564  1.0000
  H   H8544     1.0  0.83317  0.80726  0.34510  1.0000
  H   H8545     1.0  0.81779  0.86661  0.32840  1.0000
  H   H8546     1.0  0.81615  0.83838  0.31531  1.0000
  H   H8547     1.0  0.81320  0.82734  0.33205  1.0000
  H   H8548     1.0  0.81930  0.82026  0.31763  1.0000
  N   N357      1.0  0.75455  0.84816  0.32863  1.0000
  C   C5011     1.0  0.76935  0.84922  0.32326  1.0000
  C   C5012     1.0  0.74593  0.86225  0.32952  1.0000
  C   C5013     1.0  0.74979  0.84267  0.31935  1.0000
  C   C5014     1.0  0.75322  0.83857  0.34232  1.0000
  C   C5015     1.0  0.77979  0.83612  0.32013  1.0000
  C   C5016     1.0  0.74711  0.86816  0.34098  1.0000
  C   C5017     1.0  0.75152  0.85059  0.30446  1.0000
  C   C5018     1.0  0.73858  0.83667  0.34972  1.0000
  H   H8549     1.0  0.77052  0.85731  0.31386  1.0000
  H   H8550     1.0  0.77295  0.85247  0.33061  1.0000
  H   H8551     1.0  0.73487  0.86278  0.33057  1.0000
  H   H8552     1.0  0.74868  0.86968  0.31988  1.0000
  H   H8553     1.0  0.75503  0.83184  0.31938  1.0000
  H   H8554     1.0  0.73868  0.84259  0.32310  1.0000
  H   H8555     1.0  0.75942  0.82819  0.34143  1.0000
  H   H8556     1.0  0.75770  0.84138  0.34930  1.0000
  H   H8557     1.0  0.79011  0.83846  0.31588  1.0000
  H   H8558     1.0  0.78061  0.82800  0.32941  1.0000
  H   H8559     1.0  0.77754  0.83227  0.31236  1.0000
  H   H8560     1.0  0.75777  0.86885  0.34005  1.0000
  H   H8561     1.0  0.74074  0.87868  0.34023  1.0000
  H   H8562     1.0  0.74321  0.86229  0.35122  1.0000
  H   H8563     1.0  0.74543  0.86119  0.30367  1.0000
  H   H8564     1.0  0.74764  0.84568  0.29861  1.0000
  H   H8565     1.0  0.76240  0.85063  0.29937  1.0000
  H   H8566     1.0  0.73634  0.82808  0.34710  1.0000
  H   H8567     1.0  0.73046  0.84584  0.34754  1.0000
  H   H8568     1.0  0.73769  0.83450  0.36089  1.0000
  H   H8569     1.0  0.89870  0.97020  0.33882  1.0000
  H   H8570     1.0  0.85552  0.78100  0.26834  1.0000
  H   H8571     1.0  0.81181  0.92677  0.33527  1.0000
  H   H8572     1.0  0.77553  0.91783  0.34160  1.0000
  H   H8573     1.0  0.82971  0.89409  0.26802  1.0000
  H   H8574     1.0  0.80240  0.74397  0.44514  1.0000
  C   C5019     1.0  0.76778  0.77092  0.43074  1.0000
  C   C5020     1.0  0.87459  0.86072  0.38654  1.0000
  H   H8575     1.0  0.84192  0.92180  0.28582  1.0000
  C   C5021     1.0  0.92323  0.86770  0.29764  1.0000
  H   H8576     1.0  0.85837  0.97829  0.38019  1.0000
  H   H8577     1.0  0.86590  0.84685  0.47946  1.0000
  H   H8578     1.0  0.81851  0.89054  0.46616  1.0000
  C   C5022     1.0  0.84669  0.90404  0.27639  1.0000
  H   H8579     1.0  0.87852  0.88024  0.36222  1.0000
  H   H8580     1.0  0.77694  0.79273  0.42901  1.0000
  H   H8581     1.0  0.90076  0.95192  0.34351  1.0000
  C   C5023     1.0  0.87672  0.75796  0.24637  1.0000
  C   C5024     1.0  0.59788  0.77405  0.25825  1.0000
  H   H8582     1.0  0.89928  0.86281  0.36967  1.0000
  N   N358      1.0  0.83994  0.91055  0.26448  1.0000
  S   S1432     1.0  0.59826  0.82956  0.23098  1.0000
  C   C5025     1.0  0.90245  0.87253  0.36751  1.0000
  H   H8583     1.0  0.79738  0.75074  0.45991  1.0000
  C   C5026     1.0  0.67527  0.76553  0.31266  1.0000
  C   C5027     1.0  0.87905  0.89627  0.40007  1.0000
  H   H8584     1.0  0.75119  0.78482  0.44193  1.0000
  C   C5028     1.0  0.87755  0.77060  0.24780  1.0000
  H   H8585     1.0  0.81233  0.91821  0.25743  1.0000
  N   N359      1.0  0.87939  0.88495  0.38092  1.0000
  S   S1433     1.0  0.63434  0.82101  0.23914  1.0000
  H   H8586     1.0  0.84200  0.94023  0.24646  1.0000
  H   H8587     1.0  0.69507  0.85930  0.23665  1.0000
  S   S1434     1.0  0.71176  0.83269  0.24437  1.0000
  H   H8588     1.0  0.63487  0.77685  0.29512  1.0000
  H   H8589     1.0  0.80701  0.78035  0.29578  1.0000
  C   C5029     1.0  0.79231  0.76920  0.42213  1.0000
  H   H8590     1.0  0.65315  0.74313  0.34457  1.0000
  N   N360      1.0  0.83452  0.78298  0.26739  1.0000
  C   C5030     1.0  0.69564  0.83797  0.24010  1.0000
  H   H8591     1.0  0.85742  0.89249  0.44943  1.0000
  H   H8592     1.0  0.94572  0.87140  0.25934  1.0000
  N   N361      1.0  0.78083  0.77075  0.43452  1.0000
  H   H8593     1.0  0.81880  0.77781  0.25127  1.0000
  S   S1435     1.0  0.76229  0.86962  0.23777  1.0000
  H   H8594     1.0  0.94591  0.84813  0.42661  1.0000
  H   H8595     1.0  0.85852  0.75782  0.27366  1.0000
  H   H8596     1.0  0.85913  0.93496  0.24846  1.0000
  H   H8597     1.0  0.79651  0.95840  0.32255  1.0000
  H   H8598     1.0  0.83046  0.90951  0.47741  1.0000
  C   C5031     1.0  0.66970  0.84647  0.23352  1.0000
  H   H8599     1.0  0.80232  0.76927  0.42377  1.0000
  H   H8600     1.0  0.57916  0.78173  0.24200  1.0000
  H   H8601     1.0  0.95353  0.83034  0.29390  1.0000
  H   H8602     1.0  0.57526  0.79664  0.25683  1.0000
  H   H8603     1.0  0.78714  0.75787  0.37937  1.0000
  C   C5032     1.0  0.84977  0.76283  0.28083  1.0000
  H   H8604     1.0  0.97633  0.87603  0.37670  1.0000
  H   H8605     1.0  0.94161  0.83630  0.27613  1.0000
  H   H8606     1.0  0.82596  0.76263  0.32304  1.0000
  H   H8607     1.0  0.78911  0.79722  0.44301  1.0000
  H   H8608     1.0  0.67313  0.77662  0.30860  1.0000
  H   H8609     1.0  0.95960  0.84311  0.38069  1.0000
  C   C5033     1.0  0.68859  0.82835  0.24019  1.0000
  H   H8610     1.0  0.60333  0.76492  0.25386  1.0000
  H   H8611     1.0  0.80107  0.78507  0.43419  1.0000
  H   H8612     1.0  0.77893  0.76336  0.33357  1.0000
  C   C5034     1.0  0.82884  0.78041  0.24595  1.0000
  H   H8613     1.0  0.58457  0.80759  0.24455  1.0000
  H   H8614     1.0  0.57977  0.77813  0.27480  1.0000
  C   C5035     1.0  0.66191  0.73615  0.33997  1.0000
  H   H8615     1.0  0.66818  0.76311  0.32265  1.0000
  H   H8616     1.0  0.85304  0.80167  0.25613  1.0000
  H   H8617     1.0  0.87833  0.95326  0.35823  1.0000
  H   H8618     1.0  0.82262  0.74630  0.33170  1.0000
  C   C5036     1.0  0.79443  0.75641  0.41657  1.0000
  C   C5037     1.0  0.79136  0.78652  0.44193  1.0000
  H   H8619     1.0  0.80793  0.75229  0.35921  1.0000
  C   C5038     1.0  0.86060  0.96727  0.38038  1.0000
  H   H8620     1.0  0.84603  0.80074  0.24249  1.0000
  C   C5039     1.0  0.62042  0.77982  0.23353  1.0000
  H   H8621     1.0  0.73973  0.73692  0.39053  1.0000
  H   H8622     1.0  0.90558  0.96833  0.37979  1.0000
  S   S1436     1.0  0.65763  0.78479  0.23431  1.0000
  C   C5040     1.0  0.82105  0.88791  0.47633  1.0000
  H   H8623     1.0  0.71097  0.90538  0.24313  1.0000
  H   H8624     1.0  0.93169  0.74981  0.23755  1.0000
  H   H8625     1.0  0.76019  0.91723  0.23353  1.0000
  H   H8626     1.0  0.86492  0.88494  0.46404  1.0000
  H   H8627     1.0  0.90623  0.98011  0.35343  1.0000
  C   C5041     1.0  0.99280  0.85130  0.38620  1.0000
  H   H8628     1.0  0.87802  0.96215  0.38911  1.0000
  C   C5042     1.0  0.75195  0.91179  0.23510  1.0000
  H   H8629     1.0  0.79205  0.74131  0.37528  1.0000
  S   S1437     1.0  0.83755  0.98175  0.35594  1.0000
  Fe  Fe720     1.0  0.74609  0.86398  0.23077  1.0000
  H   H8630     1.0  0.85709  0.96575  0.37201  1.0000
  H   H8631     1.0  0.62334  0.77033  0.24098  1.0000
  H   H8632     1.0  0.74094  0.89305  0.23175  1.0000
  H   H8633     1.0  0.72449  0.90822  0.24904  1.0000
  H   H8634     1.0  0.84761  0.86886  0.47154  1.0000
  H   H8635     1.0  0.82485  0.86578  0.47841  1.0000
  S   S1438     1.0  0.84464  0.73530  0.23061  1.0000
  H   H8636     1.0  0.80047  0.74118  0.33343  1.0000
  H   H8637     1.0  0.74737  0.91013  0.24618  1.0000
  H   H8638     1.0  0.77724  0.73869  0.34508  1.0000
  H   H8639     1.0  0.99133  0.85551  0.37573  1.0000
  C   C5043     1.0  0.69811  0.89381  0.72340  1.0000
  H   H8640     1.0  0.84857  0.82444  0.63445  1.0000
  S   S1439     1.0  0.87607  0.76868  0.65609  1.0000
  Fe  Fe721     1.0  0.83894  0.77303  0.67777  1.0000
  S   S1440     1.0  0.84466  0.78727  0.65811  1.0000
  S   S1441     1.0  0.81669  0.77548  0.68807  1.0000
  Fe  Fe722     1.0  0.85680  0.76852  0.65062  1.0000
  S   S1442     1.0  0.85516  0.76951  0.62952  1.0000
  Fe  Fe723     1.0  0.86336  0.78658  0.66499  1.0000
  S   S1443     1.0  0.86992  0.80628  0.66165  1.0000
  S   S1444     1.0  0.84973  0.75412  0.66987  1.0000
  S   S1445     1.0  0.85636  0.77414  0.68575  1.0000
  Fe  Fe724     1.0  0.77814  0.84654  0.68994  1.0000
  S   S1446     1.0  0.76251  0.83892  0.68485  1.0000
  S   S1447     1.0  0.79414  0.83384  0.70134  1.0000
  Fe  Fe725     1.0  0.77004  0.87526  0.67439  1.0000
  S   S1448     1.0  0.75348  0.87044  0.66787  1.0000
  S   S1449     1.0  0.77414  0.89638  0.66747  1.0000
  Fe  Fe726     1.0  0.74849  0.85858  0.68929  1.0000
  S   S1450     1.0  0.72628  0.86009  0.70012  1.0000
  Fe  Fe727     1.0  0.76875  0.85131  0.66391  1.0000
  S   S1451     1.0  0.77361  0.84502  0.64390  1.0000
  S   S1452     1.0  0.76362  0.86518  0.69625  1.0000
  S   S1453     1.0  0.78573  0.85709  0.66863  1.0000
  Fe  Fe728     1.0  0.76452  0.76810  0.60674  1.0000
  S   S1454     1.0  0.78716  0.76701  0.59796  1.0000
  H   H8641     1.0  0.81044  0.75193  0.68044  1.0000
  Fe  Fe729     1.0  0.76374  0.78408  0.62754  1.0000
  S   S1455     1.0  0.78609  0.78408  0.62056  1.0000
  S   S1456     1.0  0.75151  0.79427  0.64489  1.0000
  Fe  Fe730     1.0  0.78236  0.78885  0.59960  1.0000
  S   S1457     1.0  0.78974  0.80638  0.58409  1.0000
  Fe  Fe731     1.0  0.78883  0.76239  0.61976  1.0000
  H   H8642     1.0  0.85018  0.95800  0.65764  1.0000
  S   S1458     1.0  0.75967  0.79047  0.60664  1.0000
  S   S1459     1.0  0.76656  0.76182  0.62850  1.0000
  Fe  Fe732     1.0  0.85723  0.82818  0.56975  1.0000
  S   S1460     1.0  0.87615  0.82904  0.55316  1.0000
  S   S1461     1.0  0.85096  0.80818  0.57864  1.0000
  Fe  Fe733     1.0  0.85461  0.85663  0.57356  1.0000
  S   S1462     1.0  0.87326  0.85996  0.55701  1.0000
  S   S1463     1.0  0.84352  0.86766  0.59064  1.0000
  Fe  Fe734     1.0  0.86474  0.85014  0.54526  1.0000
  S   S1464     1.0  0.86660  0.85716  0.52225  1.0000
  Fe  Fe735     1.0  0.88296  0.83861  0.56608  1.0000
  S   S1465     1.0  0.90286  0.82942  0.57303  1.0000
  S   S1466     1.0  0.84517  0.84863  0.56126  1.0000
  S   S1467     1.0  0.86493  0.83594  0.58322  1.0000
  Fe  Fe736     1.0  0.87055  0.92710  0.62912  1.0000
  S   S1468     1.0  0.86163  0.94396  0.61356  1.0000
  S   S1469     1.0  0.89286  0.92472  0.62805  1.0000
  Fe  Fe737     1.0  0.84387  0.91741  0.64129  1.0000
  S   S1470     1.0  0.83265  0.93379  0.62685  1.0000
  S   S1471     1.0  0.83658  0.89919  0.65558  1.0000
  Fe  Fe738     1.0  0.85186  0.92845  0.61113  1.0000
  S   S1472     1.0  0.85348  0.92455  0.59059  1.0000
  Fe  Fe739     1.0  0.84362  0.94772  0.63084  1.0000
  S   S1473     1.0  0.86239  0.91133  0.62530  1.0000
  S   S1474     1.0  0.85323  0.93156  0.64669  1.0000
  Fe  Fe740     1.0  0.93891  0.82720  0.63325  1.0000
  S   S1475     1.0  0.95482  0.83272  0.61444  1.0000
  S   S1476     1.0  0.93279  0.80712  0.63787  1.0000
  Fe  Fe741     1.0  0.93402  0.85431  0.64083  1.0000
  S   S1477     1.0  0.94920  0.86224  0.62255  1.0000
  S   S1478     1.0  0.92102  0.86629  0.65644  1.0000
  Fe  Fe742     1.0  0.93988  0.85286  0.61141  1.0000
  S   S1479     1.0  0.93212  0.86386  0.59237  1.0000
  Fe  Fe743     1.0  0.96276  0.84144  0.62741  1.0000
  S   S1480     1.0  0.92358  0.84677  0.62937  1.0000
  S   S1481     1.0  0.94796  0.83408  0.64654  1.0000
  H   H8643     1.0  0.89428  0.83369  0.60993  1.0000
  C   C5044     1.0  0.90042  0.90840  0.63591  1.0000
  C   C5045     1.0  0.89264  0.90054  0.64664  1.0000
  C   C5046     1.0  0.89903  0.88764  0.65306  1.0000
  C   C5047     1.0  0.91304  0.88240  0.64840  1.0000
  C   C5048     1.0  0.92066  0.89014  0.63739  1.0000
  C   C5049     1.0  0.91442  0.90324  0.63135  1.0000
  H   H8644     1.0  0.88178  0.90447  0.65014  1.0000
  H   H8645     1.0  0.89308  0.88163  0.66152  1.0000
  H   H8646     1.0  0.93143  0.88618  0.63367  1.0000
  H   H8647     1.0  0.92043  0.90929  0.62301  1.0000
  C   C5050     1.0  0.85946  0.85115  0.51210  1.0000
  C   C5051     1.0  0.84661  0.84778  0.51687  1.0000
  C   C5052     1.0  0.84071  0.84421  0.50816  1.0000
  C   C5053     1.0  0.84759  0.84379  0.49463  1.0000
  H   H8648     1.0  0.84107  0.84835  0.52717  1.0000
  H   H8649     1.0  0.83063  0.84198  0.51180  1.0000
  C   C5054     1.0  0.91036  0.83934  0.57865  1.0000
  C   C5055     1.0  0.90928  0.85323  0.57301  1.0000
  C   C5056     1.0  0.91620  0.86063  0.57711  1.0000
  C   C5057     1.0  0.92374  0.85434  0.58721  1.0000
  C   C5058     1.0  0.92451  0.84054  0.59308  1.0000
  C   C5059     1.0  0.91808  0.83301  0.58860  1.0000
  H   H8650     1.0  0.90357  0.85812  0.56515  1.0000
  H   H8651     1.0  0.91592  0.87116  0.57228  1.0000
  H   H8652     1.0  0.93038  0.83556  0.60081  1.0000
  H   H8653     1.0  0.91908  0.82224  0.59290  1.0000
  C   C5060     1.0  0.84746  0.88298  0.59047  1.0000
  C   C5061     1.0  0.84470  0.88712  0.60277  1.0000
  C   C5062     1.0  0.84675  0.89974  0.60293  1.0000
  C   C5063     1.0  0.85144  0.90838  0.59074  1.0000
  C   C5064     1.0  0.85454  0.90408  0.57847  1.0000
  C   C5065     1.0  0.85268  0.89135  0.57834  1.0000
  H   H8654     1.0  0.84087  0.88060  0.61220  1.0000
  H   H8655     1.0  0.84434  0.90294  0.61244  1.0000
  H   H8656     1.0  0.85821  0.91071  0.56902  1.0000
  H   H8657     1.0  0.85484  0.88824  0.56881  1.0000
  C   C5066     1.0  0.80631  0.80708  0.58412  1.0000
  C   C5067     1.0  0.81030  0.81955  0.57950  1.0000
  C   C5068     1.0  0.82392  0.82007  0.57829  1.0000
  C   C5069     1.0  0.83359  0.80809  0.58146  1.0000
  C   C5070     1.0  0.82954  0.79567  0.58634  1.0000
  C   C5071     1.0  0.81587  0.79518  0.58780  1.0000
  H   H8658     1.0  0.80287  0.82877  0.57667  1.0000
  H   H8659     1.0  0.82697  0.82968  0.57456  1.0000
  H   H8660     1.0  0.83705  0.78635  0.58863  1.0000
  H   H8661     1.0  0.81285  0.78552  0.59120  1.0000
  C   C5072     1.0  0.79137  0.89731  0.66483  1.0000
  C   C5073     1.0  0.80130  0.88577  0.66864  1.0000
  C   C5074     1.0  0.81510  0.88652  0.66579  1.0000
  C   C5075     1.0  0.81911  0.89879  0.65909  1.0000
  C   C5076     1.0  0.80919  0.91039  0.65535  1.0000
  C   C5077     1.0  0.79533  0.90966  0.65828  1.0000
  H   H8662     1.0  0.79834  0.87628  0.67392  1.0000
  H   H8663     1.0  0.82270  0.87756  0.66886  1.0000
  H   H8664     1.0  0.81216  0.91993  0.65031  1.0000
  H   H8665     1.0  0.78770  0.91864  0.65537  1.0000
  C   C5078     1.0  0.76688  0.83130  0.64415  1.0000
  C   C5079     1.0  0.75821  0.82559  0.65583  1.0000
  C   C5080     1.0  0.75328  0.81438  0.65593  1.0000
  C   C5081     1.0  0.75707  0.80881  0.64436  1.0000
  C   C5082     1.0  0.76566  0.81460  0.63264  1.0000
  C   C5083     1.0  0.77051  0.82584  0.63253  1.0000
  H   H8666     1.0  0.75529  0.82982  0.66476  1.0000
  H   H8667     1.0  0.74664  0.80995  0.66501  1.0000
  H   H8668     1.0  0.76838  0.81058  0.62356  1.0000
  H   H8669     1.0  0.77704  0.83032  0.62338  1.0000
  C   C5084     1.0  0.72340  0.85377  0.71773  1.0000
  H   H8670     1.0  0.81308  0.81171  0.65384  1.0000
  H   H8671     1.0  0.88614  0.75532  0.71312  1.0000
  H   H8672     1.0  0.90645  0.76491  0.65544  1.0000
  H   H8673     1.0  0.92618  0.75002  0.70584  1.0000
  H   H8674     1.0  0.92723  0.76733  0.67857  1.0000
  H   H8675     1.0  0.74476  0.84592  0.71833  1.0000
  C   C5085     1.0  0.88733  0.80663  0.65468  1.0000
  C   C5086     1.0  0.89252  0.81695  0.65624  1.0000
  C   C5087     1.0  0.90641  0.81738  0.65084  1.0000
  C   C5088     1.0  0.91517  0.80744  0.64391  1.0000
  C   C5089     1.0  0.90993  0.79724  0.64221  1.0000
  C   C5090     1.0  0.89603  0.79688  0.64750  1.0000
  H   H8676     1.0  0.88587  0.82446  0.66188  1.0000
  H   H8677     1.0  0.91041  0.82520  0.65232  1.0000
  H   H8678     1.0  0.91667  0.78960  0.63676  1.0000
  H   H8679     1.0  0.89206  0.78909  0.64602  1.0000
  C   C5091     1.0  0.81040  0.79184  0.69141  1.0000
  C   C5092     1.0  0.81951  0.79970  0.69069  1.0000
  C   C5093     1.0  0.81446  0.81261  0.69381  1.0000
  C   C5094     1.0  0.80031  0.81784  0.69718  1.0000
  H   H8680     1.0  0.58588  0.74331  0.64403  1.0000
  H   H8681     1.0  0.80901  0.87654  0.59720  1.0000
  H   H8682     1.0  0.83046  0.79575  0.68806  1.0000
  H   H8683     1.0  0.82152  0.81856  0.69358  1.0000
  H   H8684     1.0  0.92177  0.77163  0.69448  1.0000
  H   H8685     1.0  0.76755  0.75368  0.65887  1.0000
  C   C5095     1.0  0.84160  0.76279  0.62922  1.0000
  H   H8686     1.0  0.80884  0.76684  0.65075  1.0000
  C   C5096     1.0  0.74795  0.74525  0.60021  1.0000
  C   C5097     1.0  0.81938  0.75267  0.62892  1.0000
  C   C5098     1.0  0.82218  0.76457  0.61976  1.0000
  C   C5099     1.0  0.83342  0.76947  0.61975  1.0000
  C   C5100     1.0  0.70990  0.85522  0.72537  1.0000
  H   H8687     1.0  0.80461  0.84764  0.61205  1.0000
  H   H8688     1.0  0.81576  0.76991  0.61260  1.0000
  H   H8689     1.0  0.83555  0.77867  0.61266  1.0000
  H   H8690     1.0  0.98134  0.86529  0.62633  1.0000
  H   H8691     1.0  0.81902  0.87041  0.63393  1.0000
  H   H8692     1.0  0.92210  0.90771  0.59691  1.0000
  H   H8693     1.0  0.81398  0.78858  0.63285  1.0000
  H   H8694     1.0  0.89235  0.84537  0.63458  1.0000
  H   H8695     1.0  0.81948  0.82210  0.51411  1.0000
  C   C5101     1.0  0.87807  0.95389  0.64578  1.0000
  H   H8696     1.0  0.78917  0.79094  0.69553  1.0000
  H   H8697     1.0  0.84220  0.80175  0.55607  1.0000
  C   C5102     1.0  0.83886  0.75085  0.63833  1.0000
  C   C5103     1.0  0.79650  0.87809  0.63610  1.0000
  C   C5104     1.0  0.89491  0.77230  0.69907  1.0000
  C   C5105     1.0  0.72353  0.82325  0.70331  1.0000
  C   C5106     1.0  0.91495  0.90218  0.58126  1.0000
  C   C5107     1.0  0.89122  0.95697  0.63540  1.0000
  H   H8698     1.0  0.88443  0.91490  0.60237  1.0000
  H   H8699     1.0  0.91563  0.91046  0.57197  1.0000
  H   H8700     1.0  0.90722  0.92890  0.58270  1.0000
  H   H8701     1.0  0.90872  0.75151  0.71585  1.0000
  H   H8702     1.0  0.68858  0.77254  0.58324  1.0000
  C   C5108     1.0  0.79623  0.79704  0.69482  1.0000
  S   S1482     1.0  0.98552  0.83609  0.62802  1.0000
  C   C5109     1.0  0.71012  0.77213  0.60110  1.0000
  H   H8703     1.0  0.90077  0.91219  0.60544  1.0000
  H   H8704     1.0  0.81166  0.84405  0.59556  1.0000
  H   H8705     1.0  0.88017  0.90802  0.58491  1.0000
  C   C5110     1.0  0.82288  0.79760  0.54786  1.0000
  H   H8706     1.0  0.88828  0.97595  0.66370  1.0000
  H   H8707     1.0  0.80538  0.83838  0.63358  1.0000
  H   H8708     1.0  0.80131  0.80391  0.63399  1.0000
  H   H8709     1.0  0.70153  0.78416  0.61695  1.0000
  H   H8710     1.0  0.80770  0.89814  0.63505  1.0000
  H   H8711     1.0  0.82517  0.82315  0.55201  1.0000
  H   H8712     1.0  0.87706  0.87324  0.61966  1.0000
  C   C5111     1.0  0.91807  0.77256  0.68524  1.0000
  H   H8713     1.0  0.67804  0.75843  0.63181  1.0000
  H   H8714     1.0  0.84625  0.80868  0.63330  1.0000
  H   H8715     1.0  0.83023  0.88957  0.49630  1.0000
  H   H8716     1.0  0.72079  0.76820  0.59561  1.0000
  H   H8717     1.0  0.89200  0.80585  0.58110  1.0000
  H   H8718     1.0  0.88046  0.92317  0.68146  1.0000
  H   H8719     1.0  0.86062  0.78205  0.59863  1.0000
  H   H8720     1.0  0.73160  0.81368  0.70396  1.0000
  H   H8721     1.0  0.91351  0.88770  0.61111  1.0000
  H   H8722     1.0  0.94919  0.87425  0.64514  1.0000
  H   H8723     1.0  0.84246  0.79860  0.52248  1.0000
  H   H8724     1.0  0.89897  0.77351  0.70731  1.0000
  H   H8725     1.0  0.89024  0.78287  0.69430  1.0000
  C   C5112     1.0  0.84065  0.81887  0.63534  1.0000
  C   C5113     1.0  0.70354  0.75584  0.59295  1.0000
  H   H8726     1.0  0.96729  0.87643  0.66959  1.0000
  H   H8727     1.0  0.84830  0.82412  0.54372  1.0000
  H   H8728     1.0  0.81078  0.80031  0.61757  1.0000
  H   H8729     1.0  0.72060  0.82153  0.68376  1.0000
  H   H8730     1.0  0.83876  0.77867  0.55102  1.0000
  H   H8731     1.0  0.76863  0.88812  0.64313  1.0000
  H   H8732     1.0  0.90415  0.88107  0.59374  1.0000
  C   C5114     1.0  0.78280  0.90093  0.62987  1.0000
  C   C5115     1.0  0.76950  0.89572  0.63338  1.0000
  H   H8733     1.0  0.98709  0.84405  0.66168  1.0000
  H   H8734     1.0  0.88754  0.88914  0.60166  1.0000
  C   C5116     1.0  0.89855  0.88968  0.59883  1.0000
  H   H8735     1.0  0.86897  0.80640  0.59568  1.0000
  H   H8736     1.0  0.91760  0.79579  0.57651  1.0000
  H   H8737     1.0  0.87393  0.94737  0.64190  1.0000
  H   H8738     1.0  0.91870  0.89277  0.57711  1.0000
  H   H8739     1.0  0.81825  0.87807  0.60831  1.0000
  C   C5117     1.0  0.83852  0.88405  0.48910  1.0000
  C   C5118     1.0  0.85344  0.81470  0.53984  1.0000
  N   N362      1.0  0.90033  0.90308  0.58931  1.0000
  H   H8740     1.0  0.86909  0.77089  0.58738  1.0000
  C   C5119     1.0  0.92590  0.90205  0.58867  1.0000
  C   C5120     1.0  0.63757  0.74191  0.64223  1.0000
  H   H8741     1.0  0.70284  0.88870  0.71468  1.0000
  C   C5121     1.0  0.89113  0.90628  0.57946  1.0000
  H   H8742     1.0  0.78952  0.88126  0.61335  1.0000
  S   S1483     1.0  0.62403  0.74470  0.65630  1.0000
  S   S1484     1.0  0.88155  0.73787  0.68684  1.0000
  C   C5122     1.0  0.68207  0.76755  0.62576  1.0000
  H   H8743     1.0  0.85684  0.81727  0.52863  1.0000
  H   H8744     1.0  0.69737  0.74806  0.59526  1.0000
  C   C5123     1.0  0.59037  0.77553  0.71770  1.0000
  H   H8745     1.0  0.87580  0.97583  0.65554  1.0000
  C   C5124     1.0  0.87065  0.77541  0.59507  1.0000
  N   N363      1.0  0.90623  0.76570  0.68877  1.0000
  H   H8746     1.0  0.86117  0.97193  0.62094  1.0000
  C   C5125     1.0  0.71148  0.77809  0.61238  1.0000
  H   H8747     1.0  0.86609  0.81487  0.61535  1.0000
  C   C5126     1.0  0.88207  0.78341  0.58840  1.0000
  N   N364      1.0  0.71000  0.82103  0.71270  1.0000
  C   C5127     1.0  0.89330  0.89542  0.57124  1.0000
  C   C5128     1.0  0.64186  0.75321  0.63315  1.0000
  H   H8748     1.0  0.89950  0.94775  0.63436  1.0000
  H   H8749     1.0  0.91843  0.77142  0.65961  1.0000
  H   H8750     1.0  0.98196  0.86773  0.65970  1.0000
  H   H8751     1.0  0.89369  0.76032  0.67861  1.0000
  C   C5129     1.0  0.69921  0.83393  0.70995  1.0000
  H   H8752     1.0  0.68976  0.76899  0.63033  1.0000
  C   C5130     1.0  0.79596  0.88864  0.61186  1.0000
  C   C5131     1.0  0.80975  0.86692  0.63444  1.0000
  H   H8753     1.0  0.68360  0.77730  0.60452  1.0000
  H   H8754     1.0  0.70561  0.78099  0.59381  1.0000
  H   H8755     1.0  0.79781  0.79432  0.66422  1.0000
  H   H8756     1.0  0.86103  0.87847  0.48583  1.0000
  C   C5132     1.0  0.70814  0.74965  0.61565  1.0000
  C   C5133     1.0  0.95458  0.87366  0.65306  1.0000
  H   H8757     1.0  0.81275  0.79997  0.54522  1.0000
  H   H8758     1.0  0.87862  0.79145  0.57982  1.0000
  H   H8759     1.0  0.70367  0.84302  0.70759  1.0000
  H   H8760     1.0  0.87499  0.85964  0.59090  1.0000
  C   C5134     1.0  0.85127  0.84934  0.64214  1.0000
  H   H8761     1.0  0.82210  0.77633  0.55246  1.0000
  C   C5135     1.0  0.83187  0.82670  0.62482  1.0000
  H   H8762     1.0  0.89575  0.85404  0.61747  1.0000
  H   H8763     1.0  0.82877  0.83752  0.62577  1.0000
  H   H8764     1.0  0.69548  0.79310  0.71922  1.0000
  H   H8765     1.0  0.86026  0.87205  0.62783  1.0000
  H   H8766     1.0  0.87895  0.76260  0.69835  1.0000
  C   C5136     1.0  0.88963  0.84680  0.62467  1.0000
  H   H8767     1.0  0.91232  0.77646  0.61175  1.0000
  C   C5137     1.0  0.80727  0.82712  0.63568  1.0000
  H   H8768     1.0  0.76954  0.78074  0.69363  1.0000
  C   C5138     1.0  0.81373  0.84193  0.60585  1.0000
  H   H8769     1.0  0.63024  0.76032  0.70669  1.0000
  N   N365      1.0  0.81951  0.82150  0.62548  1.0000
  H   H8770     1.0  0.88938  0.85713  0.59796  1.0000
  C   C5139     1.0  0.86673  0.84343  0.63733  1.0000
  H   H8771     1.0  0.82289  0.84595  0.60459  1.0000
  H   H8772     1.0  0.84947  0.85808  0.64693  1.0000
  H   H8773     1.0  0.88498  0.86943  0.63920  1.0000
  H   H8774     1.0  0.87293  0.85942  0.64976  1.0000
  H   H8775     1.0  0.80485  0.82454  0.53503  1.0000
  H   H8776     1.0  0.89567  0.89248  0.61955  1.0000
  C   C5140     1.0  0.87431  0.86815  0.64115  1.0000
  N   N366      1.0  0.78964  0.76966  0.66574  1.0000
  C   C5141     1.0  0.80515  0.76644  0.66187  1.0000
  C   C5142     1.0  0.78484  0.78408  0.65845  1.0000
  C   C5143     1.0  0.78496  0.76025  0.66026  1.0000
  C   C5144     1.0  0.78505  0.76764  0.68097  1.0000
  H   H8777     1.0  0.72844  0.88100  0.71475  1.0000
  C   C5145     1.0  0.78702  0.79539  0.66390  1.0000
  C   C5146     1.0  0.76990  0.77401  0.68695  1.0000
  H   H8778     1.0  0.92410  0.79058  0.67096  1.0000
  C   C5147     1.0  0.99027  0.86000  0.63052  1.0000
  H   H8779     1.0  0.80939  0.77413  0.66379  1.0000
  H   H8780     1.0  0.77384  0.78641  0.65836  1.0000
  H   H8781     1.0  0.78995  0.78547  0.64748  1.0000
  H   H8782     1.0  0.82379  0.75181  0.66564  1.0000
  H   H8783     1.0  0.80719  0.87413  0.48207  1.0000
  H   H8784     1.0  0.78685  0.75658  0.68569  1.0000
  H   H8785     1.0  0.79153  0.77174  0.68497  1.0000
  H   H8786     1.0  0.72163  0.89852  0.71008  1.0000
  H   H8787     1.0  0.70143  0.86022  0.72040  1.0000
  H   H8788     1.0  0.87212  0.97223  0.67389  1.0000
  C   C5148     1.0  0.79118  0.81015  0.69748  1.0000
  H   H8789     1.0  0.78043  0.79612  0.67409  1.0000
  H   H8790     1.0  0.81468  0.80624  0.52365  1.0000
  H   H8791     1.0  0.78762  0.76275  0.64894  1.0000
  C   C5149     1.0  0.97364  0.83017  0.66831  1.0000
  C   C5150     1.0  0.81258  0.75264  0.66934  1.0000
  H   H8792     1.0  0.70450  0.81208  0.69927  1.0000
  C   C5151     1.0  0.62240  0.74203  0.71359  1.0000
  H   H8793     1.0  0.99132  0.85534  0.68011  1.0000
  C   C5152     1.0  0.72754  0.89095  0.71721  1.0000
  H   H8794     1.0  0.94060  0.86400  0.69778  1.0000
  C   C5153     1.0  0.72346  0.82860  0.68806  1.0000
  H   H8795     1.0  0.95166  0.84507  0.68420  1.0000
  N   N367      1.0  0.96724  0.85536  0.67062  1.0000
  H   H8796     1.0  0.96801  0.85493  0.64983  1.0000
  H   H8797     1.0  0.71850  0.78522  0.60776  1.0000
  C   C5154     1.0  0.91630  0.74706  0.70757  1.0000
  C   C5155     1.0  0.97444  0.86636  0.66960  1.0000
  H   H8798     1.0  0.74948  0.88555  0.71798  1.0000
  C   C5156     1.0  0.98233  0.86404  0.68076  1.0000
  H   H8799     1.0  0.78024  0.81412  0.70025  1.0000
  H   H8800     1.0  0.76452  0.76592  0.69344  1.0000
  H   H8801     1.0  0.87051  0.96365  0.64515  1.0000
  H   H8802     1.0  0.71942  0.74665  0.61195  1.0000
  H   H8803     1.0  0.98652  0.87314  0.67919  1.0000
  S   S1485     1.0  0.75121  0.76167  0.59676  1.0000
  C   C5157     1.0  0.85678  0.97952  0.62708  1.0000
  H   H8804     1.0  0.82718  0.80642  0.50840  1.0000
  C   C5158     1.0  0.65263  0.75157  0.62182  1.0000
  H   H8805     1.0  0.96164  0.84909  0.69272  1.0000
  C   C5159     1.0  0.82792  0.74566  0.63801  1.0000
  H   H8806     1.0  0.69922  0.76097  0.57284  1.0000
  C   C5160     1.0  0.65938  0.73858  0.61955  1.0000
  H   H8807     1.0  0.69559  0.83453  0.70073  1.0000
  C   C5161     1.0  0.68690  0.76691  0.61056  1.0000
  H   H8808     1.0  0.71675  0.83889  0.68601  1.0000
  C   C5162     1.0  0.97808  0.84231  0.67013  1.0000
  H   H8809     1.0  0.90640  0.79131  0.67363  1.0000
  H   H8810     1.0  0.86705  0.87715  0.64473  1.0000
  H   H8811     1.0  0.76381  0.78013  0.67938  1.0000
  H   H8812     1.0  0.87547  0.87204  0.59927  1.0000
  C   C5163     1.0  0.86628  0.85090  0.49850  1.0000
  H   H8813     1.0  0.81039  0.74378  0.66726  1.0000
  H   H8814     1.0  0.83470  0.81782  0.64594  1.0000
  S   S1486     1.0  0.63303  0.76736  0.73006  1.0000
  C   C5164     1.0  0.87111  0.86677  0.62813  1.0000
  C   C5165     1.0  0.82290  0.80616  0.62831  1.0000
  H   H8815     1.0  0.68104  0.82786  0.72520  1.0000
  C   C5166     1.0  0.81604  0.82643  0.61164  1.0000
  H   H8816     1.0  0.82436  0.82148  0.60406  1.0000
  C   C5167     1.0  0.89030  0.92453  0.67426  1.0000
  C   C5168     1.0  0.87030  0.85314  0.61291  1.0000
  H   H8817     1.0  0.90319  0.87552  0.61729  1.0000
  H   H8818     1.0  0.85925  0.85805  0.61356  1.0000
  C   C5169     1.0  0.84348  0.98019  0.63510  1.0000
  H   H8819     1.0  0.79763  0.82542  0.63456  1.0000
  H   H8820     1.0  0.81780  0.89088  0.62138  1.0000
  H   H8821     1.0  0.72744  0.83058  0.70634  1.0000
  C   C5170     1.0  0.89666  0.92862  0.58875  1.0000
  H   H8822     1.0  0.88919  0.93280  0.58209  1.0000
  N   N368      1.0  0.87445  0.85255  0.62577  1.0000
  H   H8823     1.0  0.90371  0.89381  0.56457  1.0000
  C   C5171     1.0  0.87812  0.86097  0.59966  1.0000
  H   H8824     1.0  0.87134  0.84027  0.64638  1.0000
  H   H8825     1.0  0.73995  0.74972  0.58227  1.0000
  H   H8826     1.0  0.94696  0.87877  0.66083  1.0000
  C   C5172     1.0  0.89540  0.91427  0.59713  1.0000
  H   H8827     1.0  0.89411  0.93557  0.59584  1.0000
  H   H8828     1.0  0.85498  0.96825  0.66608  1.0000
  H   H8829     1.0  0.83913  0.82656  0.61472  1.0000
  H   H8830     1.0  0.91451  0.77994  0.58729  1.0000
  H   H8831     1.0  0.89506  0.96469  0.63779  1.0000
  H   H8832     1.0  0.59057  0.76801  0.71193  1.0000
  H   H8833     1.0  0.83848  0.87308  0.49315  1.0000
  H   H8834     1.0  0.76677  0.75516  0.67554  1.0000
  H   H8835     1.0  0.89630  0.91421  0.67287  1.0000
  H   H8836     1.0  0.93390  0.90711  0.58131  1.0000
  C   C5173     1.0  0.89521  0.83299  0.62036  1.0000
  H   H8837     1.0  0.84572  0.85238  0.63382  1.0000
  H   H8838     1.0  0.89016  0.82498  0.62750  1.0000
  C   C5174     1.0  0.85324  0.95811  0.66692  1.0000
  C   C5175     1.0  0.88015  0.97060  0.66459  1.0000
  C   C5176     1.0  0.91110  0.75074  0.69434  1.0000
  H   H8839     1.0  0.87131  0.84276  0.61147  1.0000
  H   H8840     1.0  0.84667  0.84141  0.65009  1.0000
  H   H8841     1.0  0.90633  0.82958  0.62038  1.0000
  H   H8842     1.0  0.79036  0.74953  0.66318  1.0000
  H   H8843     1.0  0.87446  0.77153  0.71176  1.0000
  H   H8844     1.0  0.86760  0.83367  0.63457  1.0000
  H   H8845     1.0  0.86287  0.81036  0.54394  1.0000
  H   H8846     1.0  0.82036  0.79780  0.55886  1.0000
  H   H8847     1.0  0.89871  0.93351  0.65380  1.0000
  N   N369      1.0  0.87953  0.94759  0.66020  1.0000
  C   C5177     1.0  0.88658  0.95531  0.66526  1.0000
  H   H8848     1.0  0.89763  0.95417  0.66005  1.0000
  H   H8849     1.0  0.68068  0.76057  0.60907  1.0000
  H   H8850     1.0  0.71537  0.92576  0.72850  1.0000
  H   H8851     1.0  0.89906  0.77642  0.62662  1.0000
  H   H8852     1.0  0.81716  0.87135  0.49428  1.0000
  H   H8853     1.0  0.76286  0.77018  0.66241  1.0000
  H   H8854     1.0  0.80270  0.81975  0.55331  1.0000
  H   H8855     1.0  0.93102  0.89149  0.59277  1.0000
  H   H8856     1.0  0.91259  0.79405  0.68669  1.0000
  H   H8857     1.0  0.71626  0.77028  0.62024  1.0000
  C   C5178     1.0  0.90145  0.78126  0.61565  1.0000
  H   H8858     1.0  0.90064  0.79211  0.61509  1.0000
  C   C5179     1.0  0.88824  0.93337  0.66025  1.0000
  C   C5180     1.0  0.86568  0.94638  0.66953  1.0000
  H   H8859     1.0  0.88370  0.92763  0.65581  1.0000
  H   H8860     1.0  0.86274  0.93711  0.66905  1.0000
  S   S1487     1.0  0.83360  0.96877  0.63547  1.0000
  H   H8861     1.0  0.94817  0.87517  0.68380  1.0000
  H   H8862     1.0  0.96282  0.87936  0.64802  1.0000
  Fe  Fe744     1.0  0.86773  0.75613  0.67639  1.0000
  H   H8863     1.0  0.70648  0.77315  0.57565  1.0000
  H   H8864     1.0  0.88327  0.77462  0.61650  1.0000
  C   C5181     1.0  0.62727  0.75253  0.71539  1.0000
  H   H8865     1.0  0.88688  0.95086  0.67611  1.0000
  H   H8866     1.0  0.89090  0.77612  0.58362  1.0000
  H   H8867     1.0  0.87617  0.85359  0.49467  1.0000
  C   C5182     1.0  0.89187  0.77819  0.60848  1.0000
  H   H8868     1.0  0.89786  0.76918  0.60407  1.0000
  H   H8869     1.0  0.88363  0.81357  0.60754  1.0000
  H   H8870     1.0  0.86610  0.94500  0.68032  1.0000
  C   C5183     1.0  0.86043  0.84719  0.48982  1.0000
  H   H8871     1.0  0.89123  0.88564  0.57784  1.0000
  C   C5184     1.0  0.80783  0.82243  0.65084  1.0000
  H   H8872     1.0  0.80652  0.82353  0.61167  1.0000
  H   H8873     1.0  0.83218  0.80241  0.62074  1.0000
  H   H8874     1.0  0.81256  0.82910  0.65383  1.0000
  C   C5185     1.0  0.90306  0.88636  0.61238  1.0000
  H   H8875     1.0  0.95218  0.85304  0.66114  1.0000
  H   H8876     1.0  0.82577  0.80159  0.63824  1.0000
  H   H8877     1.0  0.90783  0.78697  0.57198  1.0000
  H   H8878     1.0  0.78310  0.90430  0.63892  1.0000
  H   H8879     1.0  0.79472  0.88037  0.64629  1.0000
  C   C5186     1.0  0.74174  0.74230  0.59141  1.0000
  H   H8880     1.0  0.81100  0.86245  0.62565  1.0000
  H   H8881     1.0  0.78136  0.91040  0.62191  1.0000
  N   N370      1.0  0.88634  0.78950  0.59763  1.0000
  C   C5187     1.0  0.87584  0.80743  0.61276  1.0000
  H   H8882     1.0  0.90031  0.80280  0.59442  1.0000
  H   H8883     1.0  0.86586  0.79342  0.61039  1.0000
  H   H8884     1.0  0.87807  0.80092  0.62253  1.0000
  C   C5188     1.0  0.70657  0.80930  0.70964  1.0000
  H   H8885     1.0  0.63674  0.76332  0.63484  1.0000
  C   C5189     1.0  0.89677  0.79753  0.58871  1.0000
  C   C5190     1.0  0.87379  0.79905  0.60382  1.0000
  C   C5191     1.0  0.90987  0.78939  0.58077  1.0000
  H   H8886     1.0  0.85114  0.79459  0.54171  1.0000
  C   C5192     1.0  0.84442  0.80407  0.54476  1.0000
  H   H8887     1.0  0.87345  0.76689  0.60349  1.0000
  C   C5193     1.0  0.81147  0.79956  0.62813  1.0000
  H   H8888     1.0  0.79718  0.82308  0.65709  1.0000
  H   H8889     1.0  0.81354  0.89217  0.59488  1.0000
  N   N371      1.0  0.70198  0.76122  0.60539  1.0000
  H   H8890     1.0  0.84103  0.81605  0.51914  1.0000
  H   H8891     1.0  0.89229  0.91587  0.57184  1.0000
  H   H8892     1.0  0.80891  0.85849  0.64354  1.0000
  C   C5194     1.0  0.94492  0.86543  0.68666  1.0000
  C   C5195     1.0  0.82955  0.78277  0.54658  1.0000
  H   H8893     1.0  0.78812  0.87313  0.63672  1.0000
  H   H8894     1.0  0.85794  0.74873  0.70637  1.0000
  C   C5196     1.0  0.81006  0.88361  0.60282  1.0000
  C   C5197     1.0  0.96057  0.85857  0.65869  1.0000
  H   H8895     1.0  0.71552  0.80048  0.70906  1.0000
  C   C5198     1.0  0.80799  0.82571  0.54378  1.0000
  C   C5199     1.0  0.74206  0.89385  0.71297  1.0000
  H   H8896     1.0  0.76052  0.90433  0.63486  1.0000
  N   N372      1.0  0.83127  0.80797  0.53977  1.0000
  C   C5200     1.0  0.83511  0.80812  0.52477  1.0000
  H   H8897     1.0  0.82801  0.82994  0.53440  1.0000
  C   C5201     1.0  0.82369  0.82190  0.54239  1.0000
  H   H8898     1.0  0.65567  0.76043  0.61477  1.0000
  C   C5202     1.0  0.95679  0.85319  0.68380  1.0000
  C   C5203     1.0  0.90080  0.76717  0.67641  1.0000
  H   H8899     1.0  0.80634  0.91198  0.60517  1.0000
  H   H8900     1.0  0.90288  0.74515  0.69614  1.0000
  H   H8901     1.0  0.78401  0.80532  0.65705  1.0000
  C   C5204     1.0  0.85222  0.88561  0.49069  1.0000
  C   C5205     1.0  0.91171  0.76404  0.66359  1.0000
  C   C5206     1.0  0.88303  0.76492  0.70588  1.0000
  H   H8902     1.0  0.79112  0.89824  0.60555  1.0000
  C   C5207     1.0  0.91501  0.78795  0.67884  1.0000
  H   H8903     1.0  0.80414  0.83656  0.54449  1.0000
  H   H8904     1.0  0.76864  0.89139  0.62522  1.0000
  H   H8905     1.0  0.88589  0.89902  0.56450  1.0000
  H   H8906     1.0  0.93662  0.86631  0.68150  1.0000
  H   H8907     1.0  0.84428  0.95664  0.67547  1.0000
  H   H8908     1.0  0.70698  0.75258  0.62532  1.0000
  H   H8909     1.0  0.89631  0.92859  0.67880  1.0000
  N   N373      1.0  0.79601  0.89108  0.62537  1.0000
  H   H8910     1.0  0.89433  0.77748  0.67357  1.0000
  C   C5208     1.0  0.82331  0.81099  0.51752  1.0000
  H   H8911     1.0  0.68762  0.89184  0.72748  1.0000
  C   C5209     1.0  0.80761  0.91155  0.61541  1.0000
  H   H8912     1.0  0.81758  0.91420  0.61414  1.0000
  C   C5210     1.0  0.80766  0.89732  0.62472  1.0000
  H   H8913     1.0  0.79954  0.91946  0.62006  1.0000
  C   C5211     1.0  0.68629  0.83641  0.72139  1.0000
  H   H8914     1.0  0.98235  0.82116  0.66875  1.0000
  H   H8915     1.0  0.71434  0.75057  0.58944  1.0000
  H   H8916     1.0  0.83211  0.78160  0.53591  1.0000
  S   S1488     1.0  0.83971  0.83878  0.48437  1.0000
  H   H8917     1.0  0.96485  0.82732  0.67639  1.0000
  C   C5212     1.0  0.69915  0.76642  0.58058  1.0000
  H   H8918     1.0  0.74208  0.90374  0.71483  1.0000
  H   H8919     1.0  0.71491  0.82683  0.72867  1.0000
  H   H8920     1.0  0.73399  0.82964  0.68239  1.0000
  C   C5213     1.0  0.76962  0.76002  0.66466  1.0000
  H   H8921     1.0  0.67316  0.77628  0.62694  1.0000
  H   H8922     1.0  0.88874  0.96128  0.62523  1.0000
  H   H8923     1.0  0.97127  0.83205  0.65822  1.0000
  H   H8924     1.0  0.59983  0.77949  0.71286  1.0000
  H   H8925     1.0  0.98209  0.83865  0.67958  1.0000
  H   H8926     1.0  0.69116  0.73890  0.62200  1.0000
  H   H8927     1.0  0.71394  0.91738  0.71680  1.0000
  H   H8928     1.0  0.62169  0.74177  0.70358  1.0000
  H   H8929     1.0  0.91802  0.75355  0.66536  1.0000
  H   H8930     1.0  0.85236  0.88270  0.50167  1.0000
  H   H8931     1.0  0.73307  0.80589  0.72557  1.0000
  H   H8932     1.0  0.97560  0.86275  0.69107  1.0000
  S   S1489     1.0  0.67287  0.73723  0.60515  1.0000
  C   C5214     1.0  0.86377  0.73955  0.71161  1.0000
  C   C5215     1.0  0.71183  0.81817  0.72705  1.0000
  C   C5216     1.0  0.69402  0.80403  0.71913  1.0000
  H   H8933     1.0  0.68445  0.80965  0.71560  1.0000
  H   H8934     1.0  0.91968  0.74605  0.68680  1.0000
  H   H8935     1.0  0.67878  0.84546  0.71743  1.0000
  C   C5217     1.0  0.73429  0.84722  0.72420  1.0000
  H   H8936     1.0  0.84531  0.74548  0.64548  1.0000
  H   H8937     1.0  0.58121  0.78381  0.71652  1.0000
  S   S1490     1.0  0.80498  0.74668  0.62958  1.0000
  H   H8938     1.0  0.59179  0.79507  0.72706  1.0000
  H   H8939     1.0  0.85366  0.89617  0.48711  1.0000
  H   H8940     1.0  0.74592  0.89441  0.70186  1.0000
  H   H8941     1.0  0.81365  0.89545  0.48211  1.0000
  C   C5218     1.0  0.62807  0.75317  0.72834  1.0000
  H   H8942     1.0  0.58380  0.73584  0.62546  1.0000
  H   H8943     1.0  0.69696  0.90491  0.71981  1.0000
  C   C5219     1.0  0.81753  0.87393  0.48322  1.0000
  H   H8944     1.0  0.75530  0.73765  0.61870  1.0000
  H   H8945     1.0  0.82591  0.73636  0.64499  1.0000
  C   C5220     1.0  0.71169  0.91707  0.72779  1.0000
  C   C5221     1.0  0.70253  0.73669  0.61932  1.0000
  C   C5222     1.0  0.75048  0.73549  0.61188  1.0000
  H   H8946     1.0  0.91828  0.73584  0.71125  1.0000
  H   H8947     1.0  0.69257  0.80432  0.72988  1.0000
  H   H8948     1.0  0.99426  0.87826  0.63284  1.0000
  H   H8949     1.0  0.68873  0.83877  0.73001  1.0000
  Fe  Fe745     1.0  0.57103  0.83930  0.87237  1.0000
  S   S1491     1.0  0.56086  0.86067  0.86371  1.0000
  S   S1492     1.0  0.57892  0.82978  0.89170  1.0000
  Fe  Fe746     1.0  0.57557  0.82988  0.84589  1.0000
  S   S1493     1.0  0.56608  0.85052  0.83496  1.0000
  S   S1494     1.0  0.58745  0.81067  0.83846  1.0000
  Fe  Fe747     1.0  0.57765  0.85878  0.84496  1.0000
  S   S1495     1.0  0.59292  0.87210  0.83366  1.0000
  Fe  Fe748     1.0  0.54981  0.85074  0.85451  1.0000
  S   S1496     1.0  0.58835  0.83810  0.85419  1.0000
  S   S1497     1.0  0.55877  0.82948  0.86481  1.0000
  Fe  Fe749     1.0  0.63123  0.85178  0.94983  1.0000
  S   S1498     1.0  0.64838  0.85824  0.93281  1.0000
  Fe  Fe750     1.0  0.61106  0.86008  0.93099  1.0000
  S   S1499     1.0  0.62650  0.86760  0.91287  1.0000
  S   S1500     1.0  0.58965  0.86413  0.92745  1.0000
  Fe  Fe751     1.0  0.64123  0.84857  0.92016  1.0000
  S   S1501     1.0  0.65577  0.83975  0.90257  1.0000
  Fe  Fe752     1.0  0.63227  0.87656  0.92685  1.0000
  S   S1502     1.0  0.63679  0.89736  0.92091  1.0000
  S   S1503     1.0  0.62535  0.84028  0.93761  1.0000
  S   S1504     1.0  0.61550  0.87086  0.94456  1.0000
  Fe  Fe753     1.0  0.61865  0.92689  0.85055  1.0000
  S   S1505     1.0  0.63898  0.91820  0.83809  1.0000
  S   S1506     1.0  0.60122  0.91590  0.86031  1.0000
  Fe  Fe754     1.0  0.62708  0.95345  0.84910  1.0000
  S   S1507     1.0  0.64799  0.94694  0.83636  1.0000
  Fe  Fe755     1.0  0.63721  0.93933  0.82515  1.0000
  S   S1508     1.0  0.64134  0.94423  0.80234  1.0000
  Fe  Fe756     1.0  0.64789  0.92652  0.85035  1.0000
  S   S1509     1.0  0.66574  0.91518  0.85982  1.0000
  S   S1510     1.0  0.61608  0.94754  0.83669  1.0000
  S   S1511     1.0  0.62776  0.93343  0.86406  1.0000
  H   H8950     1.0  0.60426  0.79000  0.82454  1.0000
  Fe  Fe757     1.0  0.61875  0.79095  0.76991  1.0000
  S   S1512     1.0  0.62956  0.79591  0.74795  1.0000
  S   S1513     1.0  0.59852  0.80479  0.77748  1.0000
  Fe  Fe758     1.0  0.64166  0.76674  0.77643  1.0000
  S   S1514     1.0  0.65420  0.76961  0.75508  1.0000
  S   S1515     1.0  0.65092  0.75170  0.79314  1.0000
  Fe  Fe759     1.0  0.64863  0.79171  0.75576  1.0000
  S   S1516     1.0  0.66522  0.80367  0.74936  1.0000
  Fe  Fe760     1.0  0.63414  0.77332  0.74903  1.0000
  C   C5223     1.0  0.49844  0.85430  0.80667  1.0000
  S   S1517     1.0  0.63750  0.78858  0.77750  1.0000
  S   S1518     1.0  0.62186  0.76865  0.77054  1.0000
  Fe  Fe761     1.0  0.69022  0.78164  0.85002  1.0000
  S   S1519     1.0  0.66827  0.79243  0.85578  1.0000
  S   S1520     1.0  0.70663  0.79274  0.83744  1.0000
  Fe  Fe762     1.0  0.68382  0.75373  0.86013  1.0000
  S   S1521     1.0  0.66122  0.76215  0.86689  1.0000
  H   H8951     1.0  0.60247  0.81429  0.87465  1.0000
  Fe  Fe763     1.0  0.66355  0.77749  0.84731  1.0000
  S   S1522     1.0  0.64722  0.78597  0.83532  1.0000
  Fe  Fe764     1.0  0.66779  0.77648  0.87496  1.0000
  S   S1523     1.0  0.65504  0.78222  0.89462  1.0000
  S   S1524     1.0  0.68552  0.76803  0.83977  1.0000
  S   S1525     1.0  0.69036  0.76668  0.86996  1.0000
  Fe  Fe765     1.0  0.68101  0.88213  0.77593  1.0000
  S   S1526     1.0  0.69613  0.86653  0.78693  1.0000
  S   S1527     1.0  0.68308  0.90366  0.76714  1.0000
  Fe  Fe766     1.0  0.66488  0.86179  0.77690  1.0000
  S   S1528     1.0  0.67839  0.84455  0.78819  1.0000
  S   S1529     1.0  0.64724  0.85782  0.77154  1.0000
  Fe  Fe767     1.0  0.67752  0.85934  0.80041  1.0000
  S   S1530     1.0  0.67392  0.85328  0.82315  1.0000
  Fe  Fe768     1.0  0.69563  0.85328  0.77360  1.0000
  S   S1531     1.0  0.71485  0.83991  0.76388  1.0000
  S   S1532     1.0  0.66231  0.87596  0.79042  1.0000
  S   S1533     1.0  0.68208  0.86959  0.76137  1.0000
  C   C5224     1.0  0.59514  0.76825  0.75415  1.0000
  C   C5225     1.0  0.73163  0.84252  0.73839  1.0000
  H   H8952     1.0  0.74070  0.75465  0.82197  1.0000
  C   C5226     1.0  0.69872  0.81005  0.83397  1.0000
  C   C5227     1.0  0.68793  0.81556  0.84372  1.0000
  C   C5228     1.0  0.68044  0.82892  0.84045  1.0000
  C   C5229     1.0  0.68386  0.83688  0.82745  1.0000
  C   C5230     1.0  0.69501  0.83158  0.81784  1.0000
  C   C5231     1.0  0.70249  0.81818  0.82113  1.0000
  H   H8953     1.0  0.68542  0.80953  0.85385  1.0000
  H   H8954     1.0  0.67194  0.83300  0.84796  1.0000
  H   H8955     1.0  0.69784  0.83776  0.80784  1.0000
  H   H8956     1.0  0.71100  0.81406  0.81364  1.0000
  S   S1534     1.0  0.52682  0.85930  0.85505  1.0000
  C   C5232     1.0  0.63646  0.89758  0.81034  1.0000
  H   H8957     1.0  0.72239  0.80398  0.74218  1.0000
  C   C5233     1.0  0.64996  0.76095  0.80506  1.0000
  C   C5234     1.0  0.66141  0.75946  0.81026  1.0000
  C   C5235     1.0  0.66062  0.76707  0.81964  1.0000
  C   C5236     1.0  0.64846  0.77633  0.82366  1.0000
  C   C5237     1.0  0.63714  0.77800  0.81826  1.0000
  C   C5238     1.0  0.63783  0.77019  0.80911  1.0000
  H   H8958     1.0  0.67093  0.75259  0.80686  1.0000
  H   H8959     1.0  0.66945  0.76585  0.82363  1.0000
  H   H8960     1.0  0.62779  0.78523  0.82128  1.0000
  H   H8961     1.0  0.62894  0.77127  0.80519  1.0000
  C   C5239     1.0  0.66010  0.81893  0.75515  1.0000
  C   C5240     1.0  0.64621  0.82509  0.75881  1.0000
  C   C5241     1.0  0.64231  0.83724  0.76350  1.0000
  C   C5242     1.0  0.65228  0.84307  0.76486  1.0000
  C   C5243     1.0  0.66619  0.83691  0.76118  1.0000
  C   C5244     1.0  0.67009  0.82493  0.75621  1.0000
  H   H8962     1.0  0.63846  0.82055  0.75789  1.0000
  H   H8963     1.0  0.63155  0.84203  0.76621  1.0000
  H   H8964     1.0  0.67396  0.84144  0.76202  1.0000
  H   H8965     1.0  0.68084  0.82022  0.75337  1.0000
  H   H8966     1.0  0.64140  0.81362  0.86104  1.0000
  C   C5245     1.0  0.59006  0.89236  0.89235  1.0000
  C   C5246     1.0  0.50193  0.87692  0.80378  1.0000
  C   C5247     1.0  0.73235  0.75552  0.83124  1.0000
  H   H8967     1.0  0.56837  0.77287  0.75298  1.0000
  H   H8968     1.0  0.65687  0.79836  0.80146  1.0000
  C   C5248     1.0  0.61386  0.89367  0.79551  1.0000
  H   H8969     1.0  0.58283  0.80825  0.87568  1.0000
  H   H8970     1.0  0.58846  0.90579  0.94037  1.0000
  C   C5249     1.0  0.58086  0.92028  0.89687  1.0000
  H   H8971     1.0  0.59041  0.88138  0.89387  1.0000
  H   H8972     1.0  0.58245  0.76198  0.73594  1.0000
  C   C5250     1.0  0.65422  0.93309  0.79322  1.0000
  C   C5251     1.0  0.65803  0.93730  0.77910  1.0000
  C   C5252     1.0  0.66730  0.92835  0.77125  1.0000
  C   C5253     1.0  0.67255  0.91498  0.77743  1.0000
  C   C5254     1.0  0.66895  0.91074  0.79159  1.0000
  C   C5255     1.0  0.65993  0.91988  0.79952  1.0000
  H   H8973     1.0  0.65368  0.94751  0.77419  1.0000
  H   H8974     1.0  0.67009  0.93168  0.76033  1.0000
  H   H8975     1.0  0.67312  0.90045  0.79642  1.0000
  H   H8976     1.0  0.65712  0.91659  0.81042  1.0000
  C   C5256     1.0  0.64590  0.90075  0.90403  1.0000
  C   C5257     1.0  0.65724  0.90664  0.90072  1.0000
  C   C5258     1.0  0.66396  0.91025  0.88710  1.0000
  C   C5259     1.0  0.65881  0.90873  0.87680  1.0000
  C   C5260     1.0  0.64756  0.90277  0.88009  1.0000
  C   C5261     1.0  0.64142  0.89835  0.89372  1.0000
  H   H8977     1.0  0.66083  0.90835  0.90870  1.0000
  H   H8978     1.0  0.67277  0.91474  0.88451  1.0000
  H   H8979     1.0  0.64359  0.90160  0.87210  1.0000
  H   H8980     1.0  0.63293  0.89352  0.89623  1.0000
  C   C5262     1.0  0.65569  0.82356  0.90080  1.0000
  C   C5263     1.0  0.64754  0.81535  0.91063  1.0000
  C   C5264     1.0  0.64738  0.80268  0.90863  1.0000
  C   C5265     1.0  0.65546  0.79812  0.89690  1.0000
  C   C5266     1.0  0.66361  0.80634  0.88710  1.0000
  C   C5267     1.0  0.66368  0.81904  0.88903  1.0000
  H   H8981     1.0  0.64134  0.81876  0.91973  1.0000
  H   H8982     1.0  0.64107  0.79636  0.91626  1.0000
  H   H8983     1.0  0.67001  0.80285  0.87814  1.0000
  H   H8984     1.0  0.67003  0.82533  0.88141  1.0000
  C   C5268     1.0  0.50889  0.83431  0.84507  1.0000
  C   C5269     1.0  0.51872  0.83953  0.84779  1.0000
  C   C5270     1.0  0.72883  0.87943  0.74048  1.0000
  H   H8985     1.0  0.52926  0.83386  0.84689  1.0000
  C   C5271     1.0  0.59479  0.88449  0.84108  1.0000
  C   C5272     1.0  0.58441  0.88987  0.85118  1.0000
  C   C5273     1.0  0.58639  0.89966  0.85689  1.0000
  C   C5274     1.0  0.59875  0.90411  0.85255  1.0000
  C   C5275     1.0  0.60915  0.89862  0.84255  1.0000
  C   C5276     1.0  0.60715  0.88888  0.83681  1.0000
  H   H8986     1.0  0.57482  0.88656  0.85455  1.0000
  H   H8987     1.0  0.57824  0.90389  0.86459  1.0000
  H   H8988     1.0  0.61878  0.90176  0.83944  1.0000
  H   H8989     1.0  0.61530  0.88451  0.82925  1.0000
  C   C5277     1.0  0.58157  0.83952  0.90164  1.0000
  C   C5278     1.0  0.57384  0.85273  0.90212  1.0000
  C   C5279     1.0  0.57629  0.86014  0.91019  1.0000
  C   C5280     1.0  0.58676  0.85458  0.91746  1.0000
  C   C5281     1.0  0.59456  0.84143  0.91686  1.0000
  C   C5282     1.0  0.59176  0.83384  0.90921  1.0000
  H   H8990     1.0  0.56585  0.85714  0.89645  1.0000
  H   H8991     1.0  0.57009  0.87024  0.91075  1.0000
  H   H8992     1.0  0.60252  0.83698  0.92256  1.0000
  H   H8993     1.0  0.59768  0.82359  0.90903  1.0000
  C   C5283     1.0  0.58930  0.80884  0.82178  1.0000
  C   C5284     1.0  0.58202  0.81848  0.81264  1.0000
  C   C5285     1.0  0.58465  0.81702  0.79911  1.0000
  C   C5286     1.0  0.59473  0.80608  0.79464  1.0000
  C   C5287     1.0  0.60176  0.79637  0.80387  1.0000
  C   C5288     1.0  0.59891  0.79765  0.81741  1.0000
  H   H8994     1.0  0.57450  0.82709  0.81593  1.0000
  H   H8995     1.0  0.57909  0.82452  0.79203  1.0000
  H   H8996     1.0  0.60932  0.78781  0.80057  1.0000
  C   C5289     1.0  0.60440  0.91103  0.90006  1.0000
  C   C5290     1.0  0.60772  0.92441  0.90020  1.0000
  H   H8997     1.0  0.61132  0.90264  0.90564  1.0000
  C   C5291     1.0  0.66360  0.79712  0.79142  1.0000
  H   H8998     1.0  0.58390  0.92312  0.92000  1.0000
  H   H8999     1.0  0.57400  0.91079  0.92424  1.0000
  H   H9000     1.0  0.60544  0.92622  0.91059  1.0000
  H   H9001     1.0  0.61892  0.92368  0.89614  1.0000
  H   H9002     1.0  0.60247  0.93328  0.89349  1.0000
  H   H9003     1.0  0.73940  0.78013  0.82881  1.0000
  H   H9004     1.0  0.71339  0.90351  0.74668  1.0000
  H   H9005     1.0  0.72059  0.76696  0.85222  1.0000
  C   C5292     1.0  0.57335  0.78168  0.74866  1.0000
  H   H9006     1.0  0.72934  0.90521  0.73612  1.0000
  C   C5293     1.0  0.72257  0.74661  0.83181  1.0000
  C   C5294     1.0  0.50845  0.87312  0.81621  1.0000
  H   H9007     1.0  0.60389  0.90465  0.92752  1.0000
  H   H9008     1.0  0.61079  0.93582  0.81040  1.0000
  H   H9009     1.0  0.75477  0.75735  0.84882  1.0000
  C   C5295     1.0  0.71916  0.90386  0.73596  1.0000
  H   H9010     1.0  0.66362  0.93747  0.91682  1.0000
  H   H9011     1.0  0.64781  0.93375  0.91720  1.0000
  H   H9012     1.0  0.55961  0.92724  0.90761  1.0000
  H   H9013     1.0  0.58129  0.93072  0.89696  1.0000
  H   H9014     1.0  0.60607  0.91414  0.78518  1.0000
  H   H9015     1.0  0.50821  0.85269  0.79887  1.0000
  H   H9016     1.0  0.64222  0.91111  0.76110  1.0000
  H   H9017     1.0  0.72640  0.76623  0.82929  1.0000
  C   C5296     1.0  0.64146  0.97479  0.89928  1.0000
  H   H9018     1.0  0.49783  0.88804  0.80195  1.0000
  H   H9019     1.0  0.75699  0.75827  0.83131  1.0000
  C   C5297     1.0  0.64870  0.94852  0.87707  1.0000
  H   H9020     1.0  0.60779  0.90988  0.88931  1.0000
  C   C5298     1.0  0.60680  0.93709  0.80127  1.0000
  H   H9021     1.0  0.70042  0.91884  0.73196  1.0000
  H   H9022     1.0  0.55546  0.79764  0.74490  1.0000
  H   H9023     1.0  0.63123  0.97375  0.90579  1.0000
  H   H9024     1.0  0.62429  0.88918  0.79032  1.0000
  C   C5299     1.0  0.62648  0.91139  0.80708  1.0000
  N   N374      1.0  0.73818  0.75252  0.84364  1.0000
  H   H9025     1.0  0.64609  0.75403  0.84978  1.0000
  H   H9026     1.0  0.59952  0.89446  0.88493  1.0000
  H   H9027     1.0  0.64115  0.95487  0.87088  1.0000
  C   C5300     1.0  0.64524  0.96795  0.88713  1.0000
  H   H9028     1.0  0.49807  0.86896  0.85570  1.0000
  C   C5301     1.0  0.74908  0.76050  0.84053  1.0000
  H   H9029     1.0  0.70711  0.87668  0.73675  1.0000
  C   C5302     1.0  0.65742  0.94500  0.89745  1.0000
  H   H9030     1.0  0.63729  0.89545  0.82107  1.0000
  C   C5303     1.0  0.50113  0.85924  0.85277  1.0000
  H   H9031     1.0  0.61189  0.88840  0.80637  1.0000
  H   H9032     1.0  0.64752  0.93788  0.87896  1.0000
  H   H9033     1.0  0.60384  0.94822  0.79730  1.0000
  H   H9034     1.0  0.65524  0.97027  0.88103  1.0000
  H   H9035     1.0  0.51462  0.88057  0.81520  1.0000
  H   H9036     1.0  0.62661  0.93561  0.78759  1.0000
  H   H9037     1.0  0.70213  0.81738  0.73470  1.0000
  H   H9038     1.0  0.64829  0.97281  0.84748  1.0000
  H   H9039     1.0  0.73567  0.74515  0.87301  1.0000
  H   H9040     1.0  0.62967  0.95235  0.90876  1.0000
  C   C5304     1.0  0.71811  0.84444  0.74607  1.0000
  H   H9041     1.0  0.64839  0.95067  0.91761  1.0000
  H   H9042     1.0  0.72145  0.75889  0.87612  1.0000
  N   N375      1.0  0.62258  0.91532  0.79347  1.0000
  H   H9043     1.0  0.61045  0.95374  0.89995  1.0000
  N   N376      1.0  0.61915  0.83310  0.80981  1.0000
  C   C5305     1.0  0.61644  0.82784  0.79900  1.0000
  C   C5306     1.0  0.60563  0.84143  0.81606  1.0000
  C   C5307     1.0  0.62389  0.82097  0.82041  1.0000
  C   C5308     1.0  0.63002  0.84126  0.80315  1.0000
  C   C5309     1.0  0.62810  0.81706  0.79279  1.0000
  C   C5310     1.0  0.59899  0.85369  0.80615  1.0000
  C   C5311     1.0  0.62695  0.82392  0.83268  1.0000
  C   C5312     1.0  0.63110  0.85159  0.81068  1.0000
  H   H9044     1.0  0.60734  0.82330  0.80305  1.0000
  H   H9045     1.0  0.61395  0.83625  0.79031  1.0000
  H   H9046     1.0  0.60637  0.84542  0.82447  1.0000
  H   H9047     1.0  0.59800  0.83493  0.82093  1.0000
  H   H9048     1.0  0.61617  0.81449  0.82440  1.0000
  H   H9049     1.0  0.63358  0.81436  0.81595  1.0000
  H   H9050     1.0  0.64034  0.83442  0.80098  1.0000
  H   H9051     1.0  0.62824  0.84730  0.79304  1.0000
  H   H9052     1.0  0.62892  0.80696  0.79987  1.0000
  H   H9053     1.0  0.62562  0.81583  0.78364  1.0000
  H   H9054     1.0  0.63808  0.82007  0.78959  1.0000
  H   H9055     1.0  0.59013  0.86000  0.81205  1.0000
  H   H9056     1.0  0.60617  0.86031  0.80014  1.0000
  H   H9057     1.0  0.59483  0.85036  0.79927  1.0000
  H   H9058     1.0  0.63609  0.82841  0.82964  1.0000
  H   H9059     1.0  0.62954  0.81410  0.83983  1.0000
  H   H9060     1.0  0.61800  0.83026  0.83838  1.0000
  H   H9061     1.0  0.64207  0.85054  0.81053  1.0000
  H   H9062     1.0  0.62549  0.85059  0.82137  1.0000
  H   H9063     1.0  0.62758  0.86214  0.80516  1.0000
  H   H9064     1.0  0.57945  0.89282  0.91311  1.0000
  H   H9065     1.0  0.63777  0.97353  0.88068  1.0000
  C   C5313     1.0  0.61086  0.90922  0.79408  1.0000
  N   N377      1.0  0.64585  0.95290  0.89034  1.0000
  H   H9066     1.0  0.64693  0.89789  0.80413  1.0000
  H   H9067     1.0  0.61714  0.91154  0.81545  1.0000
  H   H9068     1.0  0.63320  0.88900  0.80898  1.0000
  H   H9069     1.0  0.66367  0.94571  0.85834  1.0000
  C   C5314     1.0  0.63239  0.94954  0.89875  1.0000
  H   H9070     1.0  0.63150  0.91902  0.80809  1.0000
  C   C5315     1.0  0.51490  0.85206  0.85165  1.0000
  H   H9071     1.0  0.63980  0.90055  0.78458  1.0000
  H   H9072     1.0  0.69680  0.85124  0.74521  1.0000
  C   C5316     1.0  0.59086  0.75458  0.76109  1.0000
  H   H9073     1.0  0.56131  0.92311  0.89149  1.0000
  C   C5317     1.0  0.73085  0.75567  0.86849  1.0000
  H   H9074     1.0  0.59733  0.93313  0.80423  1.0000
  H   H9075     1.0  0.49548  0.87089  0.78309  1.0000
  H   H9076     1.0  0.69960  0.89107  0.74407  1.0000
  C   C5318     1.0  0.56544  0.92007  0.90083  1.0000
  H   H9077     1.0  0.63328  0.93832  0.90104  1.0000
  H   H9078     1.0  0.62463  0.91012  0.76739  1.0000
  C   C5319     1.0  0.58899  0.89555  0.90613  1.0000
  H   H9079     1.0  0.50063  0.87334  0.82582  1.0000
  H   H9080     1.0  0.66476  0.95960  0.86428  1.0000
  H   H9081     1.0  0.61342  0.93404  0.78087  1.0000
  H   H9082     1.0  0.58487  0.91975  0.88599  1.0000
  H   H9083     1.0  0.67147  0.94224  0.87233  1.0000
  H   H9084     1.0  0.51200  0.82461  0.84209  1.0000
  H   H9085     1.0  0.64316  0.91657  0.78218  1.0000
  N   N378      1.0  0.58838  0.77692  0.74269  1.0000
  C   C5320     1.0  0.64594  0.74449  0.84724  1.0000
  H   H9086     1.0  0.71360  0.74737  0.84047  1.0000
  N   N379      1.0  0.72031  0.89081  0.73188  1.0000
  H   H9087     1.0  0.73658  0.77969  0.84671  1.0000
  S   S1535     1.0  0.61895  0.97298  0.85711  1.0000
  H   H9088     1.0  0.51048  0.87539  0.79476  1.0000
  C   C5321     1.0  0.63251  0.91503  0.76802  1.0000
  H   H9089     1.0  0.73769  0.76257  0.86709  1.0000
  H   H9090     1.0  0.74008  0.83777  0.74343  1.0000
  C   C5322     1.0  0.65394  0.94171  0.91315  1.0000
  H   H9091     1.0  0.57173  0.78612  0.75764  1.0000
  H   H9092     1.0  0.84969  0.74036  0.73099  1.0000
  H   H9093     1.0  0.59305  0.77377  0.76242  1.0000
  C   C5323     1.0  0.64212  0.86422  0.97599  1.0000
  H   H9094     1.0  0.61795  0.96755  0.88979  1.0000
  H   H9095     1.0  0.59341  0.89228  0.93154  1.0000
  C   C5324     1.0  0.74401  0.77612  0.83785  1.0000
  C   C5325     1.0  0.64326  0.98148  0.85209  1.0000
  C   C5326     1.0  0.56457  0.79164  0.73892  1.0000
  C   C5327     1.0  0.72666  0.75649  0.85525  1.0000
  H   H9096     1.0  0.75292  0.78081  0.83574  1.0000
  C   C5328     1.0  0.61780  0.93063  0.79009  1.0000
  H   H9097     1.0  0.71999  0.88441  0.76085  1.0000
  H   H9098     1.0  0.66613  0.95023  0.89393  1.0000
  N   N380      1.0  0.61642  0.79477  0.87913  1.0000
  C   C5329     1.0  0.63000  0.79767  0.87052  1.0000
  C   C5330     1.0  0.61724  0.77988  0.88050  1.0000
  C   C5331     1.0  0.61489  0.79750  0.89293  1.0000
  C   C5332     1.0  0.60507  0.80399  0.87235  1.0000
  C   C5333     1.0  0.63221  0.81195  0.86923  1.0000
  C   C5334     1.0  0.62028  0.77525  0.86700  1.0000
  C   C5335     1.0  0.60218  0.79429  0.90387  1.0000
  C   C5336     1.0  0.59150  0.79919  0.87576  1.0000
  H   H9099     1.0  0.63870  0.79016  0.87447  1.0000
  H   H9100     1.0  0.63144  0.79648  0.85998  1.0000
  H   H9101     1.0  0.60771  0.77675  0.88679  1.0000
  H   H9102     1.0  0.62538  0.77354  0.88604  1.0000
  H   H9103     1.0  0.62410  0.79172  0.89714  1.0000
  H   H9104     1.0  0.61430  0.80843  0.89219  1.0000
  H   H9105     1.0  0.60861  0.80553  0.86109  1.0000
  H   H9106     1.0  0.62339  0.82010  0.86654  1.0000
  H   H9107     1.0  0.63435  0.81280  0.87871  1.0000
  H   H9108     1.0  0.61801  0.76505  0.86911  1.0000
  H   H9109     1.0  0.61402  0.78225  0.85986  1.0000
  H   H9110     1.0  0.63130  0.77422  0.86195  1.0000
  H   H9111     1.0  0.59261  0.80120  0.90132  1.0000
  H   H9112     1.0  0.60283  0.79620  0.91355  1.0000
  H   H9113     1.0  0.60157  0.78352  0.90599  1.0000
  H   H9114     1.0  0.58915  0.79239  0.88578  1.0000
  H   H9115     1.0  0.59110  0.79448  0.86765  1.0000
  N   N381      1.0  0.62490  0.85870  0.86706  1.0000
  C   C5337     1.0  0.63488  0.86157  0.85362  1.0000
  C   C5338     1.0  0.62058  0.87123  0.87300  1.0000
  C   C5339     1.0  0.61254  0.85573  0.86447  1.0000
  C   C5340     1.0  0.63208  0.84663  0.87615  1.0000
  C   C5341     1.0  0.63921  0.85059  0.84503  1.0000
  C   C5342     1.0  0.63213  0.87697  0.87429  1.0000
  C   C5343     1.0  0.59855  0.85980  0.87410  1.0000
  C   C5344     1.0  0.62326  0.84148  0.89005  1.0000
  H   H9116     1.0  0.63052  0.87135  0.84719  1.0000
  H   H9117     1.0  0.64461  0.86280  0.85507  1.0000
  H   H9118     1.0  0.61391  0.86945  0.88333  1.0000
  H   H9119     1.0  0.61429  0.87965  0.86673  1.0000
  H   H9120     1.0  0.61086  0.86115  0.85416  1.0000
  H   H9121     1.0  0.61420  0.84474  0.86460  1.0000
  H   H9122     1.0  0.63613  0.83776  0.87124  1.0000
  H   H9123     1.0  0.64123  0.84875  0.87793  1.0000
  H   H9124     1.0  0.63041  0.84759  0.84364  1.0000
  H   H9125     1.0  0.64483  0.85477  0.83472  1.0000
  H   H9126     1.0  0.64636  0.84143  0.84933  1.0000
  H   H9127     1.0  0.62733  0.88547  0.87967  1.0000
  H   H9128     1.0  0.63912  0.86938  0.88037  1.0000
  H   H9129     1.0  0.63794  0.88140  0.86422  1.0000
  H   H9130     1.0  0.59456  0.87095  0.87199  1.0000
  H   H9131     1.0  0.59896  0.85641  0.88492  1.0000
  H   H9132     1.0  0.59089  0.85523  0.87246  1.0000
  H   H9133     1.0  0.61924  0.84923  0.89639  1.0000
  H   H9134     1.0  0.62961  0.83269  0.89576  1.0000
  H   H9135     1.0  0.61483  0.83767  0.88895  1.0000
  N   N382      1.0  0.68364  0.86597  0.86214  1.0000
  C   C5345     1.0  0.68679  0.85508  0.85411  1.0000
  C   C5346     1.0  0.67209  0.87703  0.85735  1.0000
  C   C5347     1.0  0.67911  0.85966  0.87700  1.0000
  C   C5348     1.0  0.69657  0.87095  0.85959  1.0000
  C   C5349     1.0  0.69680  0.84169  0.85888  1.0000
  C   C5350     1.0  0.67528  0.88449  0.84234  1.0000
  C   C5351     1.0  0.67036  0.86930  0.88656  1.0000
  C   C5352     1.0  0.69554  0.88317  0.86557  1.0000
  H   H9136     1.0  0.67718  0.85228  0.85423  1.0000
  H   H9137     1.0  0.69131  0.85880  0.84320  1.0000
  H   H9138     1.0  0.66845  0.88503  0.86335  1.0000
  H   H9139     1.0  0.66297  0.87277  0.85897  1.0000
  H   H9140     1.0  0.67276  0.85227  0.87819  1.0000
  H   H9141     1.0  0.68813  0.85364  0.88138  1.0000
  H   H9142     1.0  0.70459  0.86274  0.86388  1.0000
  H   H9143     1.0  0.70136  0.87333  0.84855  1.0000
  H   H9144     1.0  0.70691  0.84328  0.85875  1.0000
  H   H9145     1.0  0.69239  0.83611  0.86909  1.0000
  H   H9146     1.0  0.69884  0.83488  0.85176  1.0000
  H   H9147     1.0  0.68402  0.88943  0.84002  1.0000
  H   H9148     1.0  0.67713  0.87771  0.83525  1.0000
  H   H9149     1.0  0.66623  0.89275  0.84031  1.0000
  H   H9150     1.0  0.65979  0.87319  0.88483  1.0000
  H   H9151     1.0  0.67483  0.87792  0.88579  1.0000
  H   H9152     1.0  0.66934  0.86349  0.89725  1.0000
  H   H9153     1.0  0.69733  0.87975  0.87605  1.0000
  H   H9154     1.0  0.68574  0.89070  0.86558  1.0000
  H   H9155     1.0  0.70341  0.88890  0.85910  1.0000
  N   N383      1.0  0.68582  0.79823  0.79697  1.0000
  C   C5353     1.0  0.67876  0.79859  0.81158  1.0000
  C   C5354     1.0  0.69226  0.78360  0.79606  1.0000
  C   C5355     1.0  0.67582  0.80399  0.78777  1.0000
  C   C5356     1.0  0.69651  0.80663  0.79254  1.0000
  C   C5357     1.0  0.66959  0.81236  0.81438  1.0000
  C   C5358     1.0  0.70527  0.77716  0.80185  1.0000
  C   C5359     1.0  0.70475  0.80756  0.77769  1.0000
  H   H9156     1.0  0.67225  0.79099  0.81585  1.0000
  H   H9157     1.0  0.68642  0.79562  0.81803  1.0000
  H   H9158     1.0  0.69487  0.78227  0.78540  1.0000
  H   H9159     1.0  0.68481  0.77703  0.80154  1.0000
  H   H9160     1.0  0.67173  0.81510  0.78718  1.0000
  H   H9161     1.0  0.68108  0.80311  0.77713  1.0000
  H   H9162     1.0  0.69171  0.81725  0.79351  1.0000
  H   H9163     1.0  0.70377  0.80335  0.79944  1.0000
  H   H9164     1.0  0.67554  0.82030  0.81180  1.0000
  H   H9165     1.0  0.66096  0.81594  0.80913  1.0000
  H   H9166     1.0  0.66496  0.81107  0.82545  1.0000
  H   H9167     1.0  0.70805  0.76608  0.80213  1.0000
  H   H9168     1.0  0.71414  0.78141  0.79528  1.0000
  H   H9169     1.0  0.70370  0.77845  0.81235  1.0000
  H   H9170     1.0  0.69954  0.81637  0.77083  1.0000
  H   H9171     1.0  0.70636  0.79829  0.77387  1.0000
  H   H9172     1.0  0.71516  0.80892  0.77696  1.0000
  H   H9173     1.0  0.64109  0.86942  0.96576  1.0000
  H   H9174     1.0  0.58097  0.89802  0.88806  1.0000
  H   H9175     1.0  0.66696  0.78619  0.79107  1.0000
  H   H9176     1.0  0.64944  0.97101  0.90533  1.0000
  H   H9177     1.0  0.71275  0.87210  0.75764  1.0000
  C   C5360     1.0  0.58466  0.91234  0.91996  1.0000
  H   H9178     1.0  0.60651  0.76585  0.75050  1.0000
  H   H9179     1.0  0.65729  0.80195  0.78370  1.0000
  N   N384      1.0  0.58969  0.90983  0.90575  1.0000
  H   H9180     1.0  0.59695  0.74909  0.76891  1.0000
  C   C5361     1.0  0.72221  0.87582  0.75578  1.0000
  C   C5362     1.0  0.66301  0.94914  0.86766  1.0000
  H   H9181     1.0  0.59744  0.88803  0.91044  1.0000
  H   H9182     1.0  0.66175  0.93485  0.89478  1.0000
  H   H9183     1.0  0.62042  0.95246  0.88338  1.0000
  C   C5363     1.0  0.63498  0.91152  0.78251  1.0000
  H   H9184     1.0  0.56336  0.90991  0.90593  1.0000
  H   H9185     1.0  0.60692  0.89129  0.79058  1.0000
  H   H9186     1.0  0.60231  0.91146  0.80286  1.0000
  C   C5364     1.0  0.61974  0.95631  0.89243  1.0000
  H   H9187     1.0  0.62975  0.92616  0.76409  1.0000
  C   C5365     1.0  0.59324  0.90317  0.93027  1.0000
  C   C5366     1.0  0.62416  0.74304  0.73951  1.0000
  H   H9188     1.0  0.73878  0.88180  0.73985  1.0000
  C   C5367     1.0  0.70725  0.85038  0.73947  1.0000
  H   H9189     1.0  0.62479  0.74335  0.74952  1.0000
  H   H9190     1.0  0.57990  0.75604  0.76643  1.0000
  H   H9191     1.0  0.59307  0.74780  0.75393  1.0000
  H   H9192     1.0  0.73151  0.86991  0.73663  1.0000
  H   H9193     1.0  0.51561  0.86298  0.81694  1.0000
  C   C5368     1.0  0.74455  0.73760  0.84758  1.0000
  H   H9194     1.0  0.72949  0.86734  0.76086  1.0000
  H   H9195     1.0  0.64179  0.74761  0.83794  1.0000
  H   H9196     1.0  0.66700  0.74209  0.83682  1.0000
  H   H9197     1.0  0.60662  0.78465  0.73227  1.0000
  H   H9198     1.0  0.76513  0.73568  0.83385  1.0000
  H   H9199     1.0  0.49547  0.83384  0.80990  1.0000
  H   H9200     1.0  0.71919  0.74992  0.85809  1.0000
  H   H9201     1.0  0.49848  0.82567  0.89074  1.0000
  C   C5369     1.0  0.59032  0.76824  0.73263  1.0000
  H   H9202     1.0  0.63882  0.73943  0.85585  1.0000
  H   H9203     1.0  0.56100  0.78608  0.73346  1.0000
  C   C5370     1.0  0.62901  0.98417  0.85700  1.0000
  C   C5371     1.0  0.70629  0.88780  0.73468  1.0000
  H   H9204     1.0  0.59945  0.79320  0.75387  1.0000
  C   C5372     1.0  0.49514  0.84152  0.84613  1.0000
  H   H9205     1.0  0.50142  0.85051  0.81667  1.0000
  H   H9206     1.0  0.60032  0.76077  0.73217  1.0000
  H   H9207     1.0  0.71850  0.75018  0.82243  1.0000
  S   S1536     1.0  0.63336  0.84320  0.97188  1.0000
  H   H9208     1.0  0.58342  0.80312  0.74933  1.0000
  C   C5373     1.0  0.66073  0.73569  0.84499  1.0000
  H   H9209     1.0  0.49514  0.84285  0.88174  1.0000
  C   C5374     1.0  0.59423  0.79831  0.74535  1.0000
  C   C5375     1.0  0.72249  0.80519  0.73130  1.0000
  C   C5376     1.0  0.59548  0.78860  0.73617  1.0000
  H   H9210     1.0  0.64833  0.88055  0.97983  1.0000
  H   H9211     1.0  0.56982  0.79934  0.73152  1.0000
  H   H9212     1.0  0.72783  0.73577  0.83227  1.0000
  H   H9213     1.0  0.59946  0.80665  0.73929  1.0000
  H   H9214     1.0  0.70435  0.73547  0.87896  1.0000
  H   H9215     1.0  0.74929  0.73549  0.85642  1.0000
  H   H9216     1.0  0.72001  0.79595  0.73032  1.0000
