data_image0
_chemical_formula_structural       HCFeS2FeSCHC6H6FeSH5CH2CHC2H2C2FeH3SH4SCHNHNHCHCH2C2HFeC3HCHCHSH2CSHC2H2SHCHCH3SHCHC2H3SCH2CFeH2FeCFeS2FeS2C6H3FeHS2CHC4H2CH4CHNH2CH4CH3C2HCHCFeH5SCH3CSHCH3CH5SH2C3NFeC3HC2H2CH4CSNCHCH7NH3SNSHCHCH6CHCH2C2HFeSCH5CH4CHCH2CHCH5CH2CH2SCH2FeS2HC2HFeHS2C6H3C2H3NHFeC2SH4C2H5C3H7C4HCH2NCH9SCSNFeHSHCSH2FeH2C2H2CH3C2H4CH4C2H5NCH6S2CSH2SHFeS4C7H4C2H2SCHCH2CH2CH2CH2CHC3HSH5CH2CFe2H3CFeCFeCS2CHCHCFeCH2CH4SCH5CH2CHSH2C2H2C2H2SHSFeS2HCSH2NFeS2FeS2HS2H4C6H4C6H4CHSCH3C5HC2H2C2H2CHSC2H3CH6CSNH6C3H5CFeHCH2CHCH2NC6H7NH6CHCFeHCH2SC3H4C3HN2C4FeC3H8SH3CH7NCHC2H2C5H4CSFeH3FeHCH2SH5CHC2H2CHCH2CH5CH3CHFeSHSC3HSH3CHFe2HCH3CH5SCSHCH2CH2FeH3CHCH2SHFeHFeSHCHFeC4H2FeS2FeS2FeS2FeS2HNH4CSH4FeS2C2HCH3CHC7H4CHCHC6H6C3H6CH3CH5C2SHC3H2FeC2HCHNC4HC3H9S2H9CH3C3H2CH6C2HC2H3FeH2SC2H2CHSHFeSH3SCH2CSCH2CH2CH2NH2NCH3SCNC8H9SH4CHCSH2C2H4C3H3CH2SHNH2C2HCH3FeHCHS2HC2H2CFeCFeCH2C3H3C2HCFeC4HCHFeSHFeSHCHSCHSFeS2H2SH2SFeS2C3HCSC6H4C3HC6H4CHSHCHFeCFeCSHSNH2C3H2SHSH2CHCHCH4SCHSH7CSHSH2C2H5NC5FeHCH13CFeC2H7C2HCH3CH2SH3CH3CN2C4HC3H9NCH9CSC2HC2FeH2CSHCH2CHC2FeH3CH3CH8SH2CH2CH2CH4CNC2FeSH2SHCH3CSCSHCHSH4SHSCHSHFeS2H2CFeCSFeS2FeHSHC2H3FeC2S2HFeS2H2CSH2C6H4C6H7C2SHC3H2CHC2FeHC2H3C2H3C3H2C3H2FeH2C2H2CH3SH2CHC2HCH2CH2S2H2SFeH3C2H3SH3FeHCNC4HC3H9CH2C3H7C2H6FeHFeH3CH6NC2HC2NC4HC5H8NH2CH6NCH2C4FeH10SCNCSHCHFeCHCH9C2FeS2FeH6FeS2HS2FeS2HSHCH4CHC6H4C6H5C3HC2H2CSCH3SCSC2H2C4H2C2H4CHCH3CH2NHCHC3HCHCH2NH4C2HCH5SHCH3SCH5CH4CSHCSCH4C2H3Fe2HCH5SCH3C4HCHC3HCH3CH2CHCH3CHCH8NH4SCH4CHCFeHCFeHNHSHSH2CHC2H2CH6NCH2CH5FeC3H2FeCH4NC2SCH2C3H2SHNSCHC2SH3CSHSCHC2SH2SHFeS2HS2CS2HFe2CFeSFe2S2CSH3FeC6H4C6H4C4H2CH2C3H3C4HSH2C3H2CHCSNC7H14CH2C2HCHNHC3HC3H4CH9SH7SHCH3FeHFeH2CSH2C2H4CHCSFe2HCNC8H12CFeH3CHSH4C2H3CH2CHNHCH2CFeHFeCH3C2H3C2H2CFeCH4CHCH4C2SCH7SHCH4S2HS2FeSH2C2HFeCHFeS2HCHCH2C6H4CH3C6H4C2HFeH2C2HC2H2CHCH4NH4SH2SHC2H2CH4SHCNC5H4CHCH5NSHC3HC2H8SH3CH7NC4H9C2HSHFeNFeHNC6HFeH7CH4C2SHCHC2H3CH4CH2CH2FeSHSHSH3S3HC3SHC2H2C2H2CHC3H2SCH3C2HNCH3CFeHC3H2FeH2CHC2FeH5C2H5NHSH2SC2S2FeSHFeS2HC2HC6H4CH2C7H6CHSC2HCH2FeC2HCNHCH2Fe2H12NFeH2C2SH5CSH2CHCNCHNC4HCHSH3C2HCH3SH4CH3SH3C2H8C2H3NHCSHCSCHC2HCHC2H3CH3SH7CHCH2CH3CSCH4CH3C2H3SCNH3FeH2C2NS2H2CH9SCHC2HCH4CHC2H2CH2C2HC2H2CH2CH7CHC3HCHSFeHCHSH2CH2SCSC5SCFeS2CSHC3FeSC2H2SH5SH2CH2CH5CHCHCHCH4SHCFeH2SCHCHCHCH3CHCH2CH7C2HCNH2NHCH2CHSH3CHFe3CHCH3SH2SCFeSC2HSH3CH4SHFeS2Fe2SHFeS2CHCH2C6H2CH5CH2CH3CHFeCH2C2HCHNHCHCHC2NH5SH3C2HC2HC2H2CHCHSH3CH3SC3H3CFeC2SH2CHSHFeSH2CHC2HNSC2H4CH4CH4CH4C2FeH3NFeH4S2CHCHNHFeHS2HCH4CH4C2HC3H3CH2CSH2CH2C3H2CHCH2CH3CH2CHCH4SH3CHNCHCHCH5CH2FeSCSH2FeC3H3C2SCHCSFeSHC6H2C3H3FeH3CHSH3CHC2HNH2CFeC2H4S2FeH7CH3S2H2C2HSCH4CHNH2SH4CHCHFeH
_chemical_formula_sum              "H1728 C1008 Fe144 S288 N72"
_cell_length_a       62.8054
_cell_length_b       62.4922
_cell_length_c       62.5668
_cell_angle_alpha    88.3949
_cell_angle_beta     88.1023
_cell_angle_gamma    88.0238

_space_group_name_H-M_alt    "P 1"
_space_group_IT_number       1

loop_
  _space_group_symop_operation_xyz
  'x, y, z'

loop_
  _atom_site_type_symbol
  _atom_site_label
  _atom_site_symmetry_multiplicity
  _atom_site_fract_x
  _atom_site_fract_y
  _atom_site_fract_z
  _atom_site_occupancy
  H   H1        1.0  0.10478  0.43962  0.37450  1.0000
  C   C1        1.0  0.12452  0.47252  0.34566  1.0000
  Fe  Fe1       1.0  0.21009  0.47795  0.39715  1.0000
  S   S1        1.0  0.21065  0.47083  0.36209  1.0000
  S   S2        1.0  0.22205  0.45802  0.42524  1.0000
  Fe  Fe2       1.0  0.18501  0.36023  0.48956  1.0000
  S   S3        1.0  0.17989  0.37080  0.45510  1.0000
  C   C2        1.0  0.07952  0.46966  0.34767  1.0000
  H   H2        1.0  0.12324  0.45165  0.31899  1.0000
  C   C3        1.0  0.20946  0.43419  0.43331  1.0000
  C   C4        1.0  0.21249  0.42583  0.45406  1.0000
  C   C5        1.0  0.20304  0.40672  0.46098  1.0000
  C   C6        1.0  0.19101  0.39541  0.44697  1.0000
  C   C7        1.0  0.18804  0.40369  0.42613  1.0000
  C   C8        1.0  0.19706  0.42318  0.41937  1.0000
  H   H3        1.0  0.12022  0.49311  0.37271  1.0000
  H   H4        1.0  0.20539  0.40056  0.47705  1.0000
  H   H5        1.0  0.15768  0.41715  0.35765  1.0000
  H   H6        1.0  0.19507  0.42931  0.40320  1.0000
  H   H7        1.0  0.02980  0.43514  0.41984  1.0000
  H   H8        1.0  0.12379  0.39245  0.40198  1.0000
  Fe  Fe3       1.0  0.02455  0.48005  0.36840  1.0000
  S   S4        1.0  0.15275  0.47258  0.34306  1.0000
  H   H9        1.0  0.12947  0.41722  0.35621  1.0000
  H   H10       1.0  0.15674  0.42601  0.39495  1.0000
  H   H11       1.0  0.13989  0.46034  0.44140  1.0000
  H   H12       1.0  0.04164  0.45951  0.49526  1.0000
  H   H13       1.0  0.22703  0.50035  0.44266  1.0000
  C   C9        1.0  0.00691  0.39490  0.44938  1.0000
  H   H14       1.0  0.17913  0.39478  0.41510  1.0000
  H   H15       1.0  0.15702  0.44980  0.42081  1.0000
  C   C10       1.0  0.14280  0.41406  0.36719  1.0000
  H   H16       1.0  0.17572  0.50146  0.31553  1.0000
  C   C11       1.0  0.20039  0.48023  0.30435  1.0000
  C   C12       1.0  0.12259  0.44574  0.41633  1.0000
  H   H17       1.0  0.20264  0.45797  0.49326  1.0000
  H   H18       1.0  0.12141  0.46113  0.40688  1.0000
  C   C13       1.0  0.08156  0.43583  0.39957  1.0000
  C   C14       1.0  0.11409  0.46024  0.33116  1.0000
  Fe  Fe4       1.0  0.17791  0.48719  0.36276  1.0000
  H   H19       1.0  0.24774  0.47800  0.30657  1.0000
  H   H20       1.0  0.10276  0.41495  0.44062  1.0000
  H   H21       1.0  0.09356  0.39374  0.42447  1.0000
  S   S5        1.0  0.05160  0.46605  0.34768  1.0000
  H   H22       1.0  0.06833  0.43407  0.38843  1.0000
  H   H23       1.0  0.07758  0.42643  0.41428  1.0000
  H   H24       1.0  0.08424  0.44913  0.32078  1.0000
  H   H25       1.0  0.09986  0.41251  0.38129  1.0000
  S   S6        1.0  0.00313  0.36723  0.44951  1.0000
  C   C15       1.0  0.12460  0.40578  0.41331  1.0000
  H   H26       1.0  0.14066  0.40314  0.42013  1.0000
  N   N1        1.0  0.12250  0.42709  0.40152  1.0000
  H   H27       1.0  0.20971  0.47523  0.28998  1.0000
  N   N2        1.0  0.21472  0.50094  0.47541  1.0000
  H   H28       1.0  0.14254  0.44575  0.37971  1.0000
  C   C16       1.0  0.14224  0.44672  0.43043  1.0000
  H   H29       1.0  0.08168  0.45313  0.40315  1.0000
  C   C17       1.0  0.02068  0.42732  0.43258  1.0000
  H   H30       1.0  0.20248  0.24448  0.49951  1.0000
  H   H31       1.0  0.10846  0.44621  0.42739  1.0000
  C   C18       1.0  0.10777  0.40093  0.43112  1.0000
  C   C19       1.0  0.11234  0.48352  0.36143  1.0000
  H   H32       1.0  0.04829  0.48622  0.47293  1.0000
  Fe  Fe5       1.0  0.00624  0.47886  0.41378  1.0000
  C   C20       1.0  0.19358  0.49393  0.46770  1.0000
  C   C21       1.0  0.14165  0.42910  0.38641  1.0000
  C   C22       1.0  0.10268  0.42828  0.38838  1.0000
  H   H33       1.0  0.01367  0.46018  0.49438  1.0000
  C   C23       1.0  0.09191  0.45879  0.33218  1.0000
  H   H34       1.0  0.11486  0.38932  0.44290  1.0000
  C   C24       1.0  0.08977  0.48213  0.36240  1.0000
  H   H35       1.0  0.02648  0.39552  0.42044  1.0000
  S   S7        1.0  0.01087  0.46745  0.44757  1.0000
  H   H36       1.0  0.08034  0.49062  0.37443  1.0000
  H   H37       1.0  0.14351  0.39694  0.37227  1.0000
  C   C25       1.0  0.21570  0.46691  0.50005  1.0000
  S   S8        1.0  0.02983  0.49975  0.39680  1.0000
  H   H38       1.0  0.14453  0.43202  0.44056  1.0000
  C   C26       1.0  0.01886  0.40496  0.43294  1.0000
  C   C27       1.0  0.22701  0.48103  0.48280  1.0000
  H   H39       1.0  0.21123  0.48590  0.31647  1.0000
  H   H40       1.0  0.19286  0.46572  0.31146  1.0000
  S   S9        1.0  0.17655  0.49144  0.39820  1.0000
  H   H41       1.0  0.22237  0.43398  0.46480  1.0000
  C   C28       1.0  0.04423  0.50169  0.48055  1.0000
  H   H42       1.0  0.23138  0.47068  0.46899  1.0000
  C   C29       1.0  0.01047  0.43951  0.44862  1.0000
  H   H43       1.0  0.01091  0.49658  0.48551  1.0000
  H   H44       1.0  0.19615  0.48100  0.45588  1.0000
  H   H45       1.0  0.18380  0.48687  0.48108  1.0000
  S   S10       1.0  0.00311  0.45721  0.38635  1.0000
  H   H46       1.0  0.22256  0.49926  0.26215  1.0000
  C   C30       1.0  0.20711  0.49874  0.25427  1.0000
  H   H47       1.0  0.20170  0.48199  0.25463  1.0000
  C   C31       1.0  0.18281  0.49734  0.29957  1.0000
  C   C32       1.0  0.02436  0.50038  0.49574  1.0000
  H   H48       1.0  0.24521  0.29376  0.49061  1.0000
  H   H49       1.0  0.24241  0.48521  0.48967  1.0000
  H   H50       1.0  0.17003  0.48922  0.29128  1.0000
  S   S11       1.0  0.01645  0.46719  0.62947  1.0000
  C   C33       1.0  0.01391  0.37358  0.61003  1.0000
  H   H51       1.0  0.22481  0.44030  0.75751  1.0000
  H   H52       1.0  0.00199  0.38711  0.61003  1.0000
  C   C34       1.0  0.09558  0.33954  0.52964  1.0000
  Fe  Fe6       1.0  0.16199  0.34132  0.52855  1.0000
  H   H53       1.0  0.20213  0.47382  0.75041  1.0000
  H   H54       1.0  0.11421  0.47455  0.59957  1.0000
  Fe  Fe7       1.0  0.21045  0.33213  0.52162  1.0000
  C   C35       1.0  0.08974  0.48343  0.68294  1.0000
  Fe  Fe8       1.0  0.19302  0.37744  0.53302  1.0000
  S   S12       1.0  0.20098  0.40886  0.54749  1.0000
  S   S13       1.0  0.19028  0.34524  0.54908  1.0000
  Fe  Fe9       1.0  0.19959  0.46366  0.65257  1.0000
  S   S14       1.0  0.19790  0.42817  0.64661  1.0000
  S   S15       1.0  0.18301  0.47854  0.68120  1.0000
  C   C36       1.0  0.19967  0.41357  0.57515  1.0000
  C   C37       1.0  0.19227  0.39832  0.59019  1.0000
  C   C38       1.0  0.19201  0.40271  0.61218  1.0000
  C   C39       1.0  0.19882  0.42246  0.61913  1.0000
  C   C40       1.0  0.20603  0.43767  0.60404  1.0000
  C   C41       1.0  0.20648  0.43322  0.58218  1.0000
  H   H55       1.0  0.18663  0.38328  0.58485  1.0000
  H   H56       1.0  0.18630  0.39091  0.62378  1.0000
  H   H57       1.0  0.21157  0.45283  0.60919  1.0000
  Fe  Fe10      1.0  0.21250  0.49847  0.68217  1.0000
  H   H58       1.0  0.15302  0.48582  0.59469  1.0000
  S   S16       1.0  0.18489  0.48714  0.62957  1.0000
  S   S17       1.0  0.22972  0.48168  0.65496  1.0000
  C   C42       1.0  0.07282  0.31253  0.55782  1.0000
  H   H59       1.0  0.20481  0.29041  0.56425  1.0000
  C   C43       1.0  0.17463  0.28281  0.54940  1.0000
  C   C44       1.0  0.09510  0.31226  0.55780  1.0000
  C   C45       1.0  0.07148  0.48887  0.67123  1.0000
  C   C46       1.0  0.22453  0.44808  0.74126  1.0000
  H   H60       1.0  0.21225  0.44508  0.57066  1.0000
  H   H61       1.0  0.02866  0.39986  0.54312  1.0000
  C   C47       1.0  0.21488  0.39850  0.70748  1.0000
  H   H62       1.0  0.01661  0.41832  0.61423  1.0000
  H   H63       1.0  0.23214  0.37710  0.56352  1.0000
  H   H64       1.0  0.04117  0.44263  0.53148  1.0000
  H   H65       1.0  0.12839  0.44944  0.66573  1.0000
  C   C48       1.0  0.17642  0.24349  0.54997  1.0000
  H   H66       1.0  0.16254  0.24616  0.56128  1.0000
  N   N3        1.0  0.23025  0.43204  0.72414  1.0000
  H   H67       1.0  0.19713  0.42499  0.71976  1.0000
  H   H68       1.0  0.20012  0.46670  0.72323  1.0000
  C   C49       1.0  0.08092  0.45578  0.62010  1.0000
  H   H69       1.0  0.09766  0.43417  0.64173  1.0000
  H   H70       1.0  0.00860  0.39186  0.57289  1.0000
  H   H71       1.0  0.17578  0.29776  0.53940  1.0000
  H   H72       1.0  0.04542  0.37605  0.54516  1.0000
  C   C50       1.0  0.10115  0.44919  0.63242  1.0000
  H   H73       1.0  0.12797  0.48035  0.62221  1.0000
  H   H74       1.0  0.13661  0.25298  0.53467  1.0000
  H   H75       1.0  0.24267  0.32787  0.57448  1.0000
  C   C51       1.0  0.02659  0.44350  0.52195  1.0000
  C   C52       1.0  0.03816  0.38958  0.55430  1.0000
  H   H76       1.0  0.06438  0.35029  0.51862  1.0000
  C   C53       1.0  0.02695  0.46220  0.50534  1.0000
  H   H77       1.0  0.17759  0.22190  0.52155  1.0000
  C   C54       1.0  0.12719  0.46807  0.60977  1.0000
  Fe  Fe11      1.0  0.00771  0.34181  0.52597  1.0000
  H   H78       1.0  0.20499  0.27985  0.51882  1.0000
  H   H79       1.0  0.08162  0.47236  0.61338  1.0000
  H   H80       1.0  0.00879  0.47848  0.54442  1.0000
  H   H81       1.0  0.01138  0.33847  0.60670  1.0000
  H   H82       1.0  0.21424  0.40498  0.69080  1.0000
  S   S18       1.0  0.16312  0.37477  0.51475  1.0000
  C   C55       1.0  0.13753  0.41789  0.59287  1.0000
  H   H83       1.0  0.11023  0.43914  0.58791  1.0000
  H   H84       1.0  0.14365  0.40604  0.60492  1.0000
  H   H85       1.0  0.22939  0.38823  0.70968  1.0000
  C   C56       1.0  0.20262  0.26461  0.52818  1.0000
  S   S19       1.0  0.13484  0.32433  0.54586  1.0000
  H   H86       1.0  0.16105  0.45939  0.60137  1.0000
  C   C57       1.0  0.11790  0.43080  0.60179  1.0000
  H   H87       1.0  0.21682  0.44795  0.69624  1.0000
  H   H88       1.0  0.13446  0.42100  0.63960  1.0000
  H   H89       1.0  0.10657  0.41841  0.60763  1.0000
  C   C58       1.0  0.06152  0.32622  0.54387  1.0000
  H   H90       1.0  0.15072  0.42800  0.58707  1.0000
  H   H91       1.0  0.20111  0.38787  0.70971  1.0000
  H   H92       1.0  0.08829  0.47311  0.69705  1.0000
  H   H93       1.0  0.10342  0.30155  0.56882  1.0000
  H   H94       1.0  0.15789  0.28271  0.55583  1.0000
  S   S20       1.0  0.21519  0.36502  0.50688  1.0000
  H   H95       1.0  0.01720  0.36590  0.56668  1.0000
  H   H96       1.0  0.10436  0.34995  0.51873  1.0000
  C   C59       1.0  0.21241  0.41652  0.72376  1.0000
  C   C60       1.0  0.10981  0.49146  0.67671  1.0000
  C   C61       1.0  0.14121  0.26542  0.52262  1.0000
  N   N4        1.0  0.03220  0.37792  0.59437  1.0000
  Fe  Fe12      1.0  1.00000  0.49742  0.61788  1.0000
  C   C62       1.0  0.04299  0.39742  0.60190  1.0000
  C   C63       1.0  0.04739  0.35863  0.59510  1.0000
  C   C64       1.0  0.02317  0.38120  0.57243  1.0000
  H   H97       1.0  0.18917  0.27103  0.57955  1.0000
  C   C65       1.0  0.02940  0.41844  0.60159  1.0000
  C   C66       1.0  0.07047  0.36177  0.58665  1.0000
  H   H98       1.0  0.01230  0.44416  0.53275  1.0000
  H   H99       1.0  0.01962  0.37221  0.62672  1.0000
  C   C67       1.0  0.18847  0.28556  0.56901  1.0000
  H   H100      1.0  0.05770  0.40082  0.59238  1.0000
  H   H101      1.0  0.04845  0.39457  0.61855  1.0000
  H   H102      1.0  0.04884  0.35229  0.61185  1.0000
  H   H103      1.0  0.04114  0.34525  0.58605  1.0000
  C   C68       1.0  0.17210  0.22250  0.53846  1.0000
  S   S21       1.0  0.23673  0.30911  0.53439  1.0000
  N   N5        1.0  0.02600  0.48441  0.51419  1.0000
  C   C69       1.0  0.07294  0.33972  0.52958  1.0000
  H   H104      1.0  0.15490  0.21892  0.53975  1.0000
  C   C70       1.0  0.00125  0.35336  0.60614  1.0000
  H   H105      1.0  0.02603  0.42825  0.51329  1.0000
  H   H106      1.0  0.20950  0.47629  0.51383  1.0000
  H   H107      1.0  0.07132  0.36793  0.56994  1.0000
  H   H108      1.0  0.07913  0.34597  0.58685  1.0000
  H   H109      1.0  0.07935  0.37208  0.59714  1.0000
  H   H110      1.0  0.14553  0.46729  0.65022  1.0000
  H   H111      1.0  0.05087  0.39980  0.55946  1.0000
  N   N6        1.0  0.12160  0.44645  0.61921  1.0000
  H   H112      1.0  0.02250  0.42212  0.58578  1.0000
  H   H113      1.0  0.18940  0.44965  0.74466  1.0000
  H   H114      1.0  0.07753  0.44455  0.60737  1.0000
  S   S22       1.0  0.01102  0.37313  0.50848  1.0000
  N   N7        1.0  0.17972  0.26335  0.53610  1.0000
  S   S23       1.0  0.03330  0.32623  0.54651  1.0000
  H   H115      1.0  0.22806  0.24966  0.50898  1.0000
  C   C71       1.0  0.20272  0.46003  0.73953  1.0000
  H   H116      1.0  0.21610  0.35749  0.58796  1.0000
  C   C72       1.0  0.10668  0.32575  0.54390  1.0000
  H   H117      1.0  0.15423  0.43564  0.62559  1.0000
  H   H118      1.0  0.10260  0.46176  0.64443  1.0000
  H   H119      1.0  0.21907  0.33405  0.60435  1.0000
  H   H120      1.0  0.14423  0.46441  0.57871  1.0000
  H   H121      1.0  0.13276  0.40860  0.57902  1.0000
  H   H122      1.0  0.15602  0.44324  0.66245  1.0000
  C   C73       1.0  0.24638  0.43274  0.68506  1.0000
  H   H123      1.0  0.06701  0.45579  0.63160  1.0000
  C   C74       1.0  0.14206  0.45036  0.65410  1.0000
  H   H124      1.0  0.06425  0.30206  0.56888  1.0000
  H   H125      1.0  0.19043  0.24027  0.56021  1.0000
  C   C75       1.0  0.14744  0.46912  0.59525  1.0000
  C   C76       1.0  0.13847  0.43749  0.63394  1.0000
  H   H126      1.0  0.03968  0.43191  0.60510  1.0000
  Fe  Fe13      1.0  0.01604  0.48318  0.66110  1.0000
  S   S24       1.0  0.04654  0.47841  0.67974  1.0000
  C   C77       1.0  0.23272  0.44390  0.70287  1.0000
  H   H127      1.0  0.12363  0.48740  0.68605  1.0000
  H   H128      1.0  0.21361  0.26488  0.54173  1.0000
  H   H129      1.0  0.23650  0.46078  0.74133  1.0000
  H   H130      1.0  0.18132  0.29879  0.57868  1.0000
  H   H131      1.0  0.20980  0.40888  0.73992  1.0000
  C   C78       1.0  0.16538  0.26494  0.51718  1.0000
  H   H132      1.0  0.04600  0.47666  0.54101  1.0000
  H   H133      1.0  0.21253  0.23085  0.52357  1.0000
  H   H134      1.0  0.18044  0.20891  0.54688  1.0000
  H   H135      1.0  0.13561  0.28138  0.52831  1.0000
  C   C79       1.0  0.00681  0.48763  0.52904  1.0000
  H   H136      1.0  0.23819  0.43490  0.66964  1.0000
  C   C80       1.0  0.22756  0.34829  0.59795  1.0000
  H   H137      1.0  0.06036  0.48280  0.51693  1.0000
  H   H138      1.0  0.24004  0.45958  0.70508  1.0000
  C   C81       1.0  0.21146  0.24619  0.51426  1.0000
  H   H139      1.0  0.23173  0.35749  0.61202  1.0000
  C   C82       1.0  0.04580  0.48746  0.52656  1.0000
  H   H140      1.0  0.23777  0.35515  0.54702  1.0000
  H   H141      1.0  0.23845  0.38952  0.59888  1.0000
  H   H142      1.0  0.13241  0.26267  0.50788  1.0000
  H   H143      1.0  0.16855  0.25179  0.50594  1.0000
  H   H144      1.0  0.16866  0.27971  0.50738  1.0000
  C   C83       1.0  0.24553  0.36767  0.55607  1.0000
  H   H145      1.0  0.24774  0.41191  0.74670  1.0000
  H   H146      1.0  0.24458  0.39329  0.53162  1.0000
  C   C84       1.0  0.24762  0.34057  0.58524  1.0000
  H   H147      1.0  0.24933  0.41535  0.68734  1.0000
  H   H148      1.0  0.22729  0.45462  0.50631  1.0000
  S   S25       1.0  0.18183  0.32610  0.50206  1.0000
  C   C85       1.0  0.21934  0.54475  0.28330  1.0000
  H   H149      1.0  0.02049  0.51680  0.50154  1.0000
  H   H150      1.0  0.09602  0.62120  0.47686  1.0000
  Fe  Fe14      1.0  0.19161  0.52301  0.39062  1.0000
  S   S26       1.0  0.19033  0.51990  0.35495  1.0000
  S   S27       1.0  0.17773  0.55153  0.40858  1.0000
  H   H151      1.0  0.22182  0.54248  0.26588  1.0000
  C   C86       1.0  0.23717  0.64145  0.43829  1.0000
  C   C87       1.0  0.17290  0.53494  0.29246  1.0000
  H   H152      1.0  0.17393  0.53972  0.30945  1.0000
  Fe  Fe15      1.0  0.21928  0.61888  0.49890  1.0000
  H   H153      1.0  0.04959  0.58950  0.47696  1.0000
  S   S28       1.0  0.23493  0.59701  0.47433  1.0000
  S   S29       1.0  0.19721  0.64669  0.49076  1.0000
  C   C88       1.0  0.19382  0.56460  0.42639  1.0000
  C   C89       1.0  0.21600  0.56170  0.42556  1.0000
  C   C90       1.0  0.22843  0.57188  0.44026  1.0000
  C   C91       1.0  0.21879  0.58504  0.45586  1.0000
  C   C92       1.0  0.19662  0.58821  0.45655  1.0000
  C   C93       1.0  0.18419  0.57806  0.44179  1.0000
  H   H154      1.0  0.22360  0.55165  0.41357  1.0000
  H   H155      1.0  0.21066  0.68747  0.42354  1.0000
  H   H156      1.0  0.06290  0.61031  0.48795  1.0000
  C   C94       1.0  0.11852  0.59487  0.47960  1.0000
  C   C95       1.0  0.07005  0.60621  0.44438  1.0000
  H   H157      1.0  0.18907  0.59836  0.46853  1.0000
  H   H158      1.0  0.10835  0.61319  0.45234  1.0000
  H   H159      1.0  0.09778  0.57377  0.44004  1.0000
  N   N8        1.0  0.18933  0.51742  0.28736  1.0000
  H   H160      1.0  0.09765  0.56343  0.46641  1.0000
  Fe  Fe16      1.0  0.22313  0.50397  0.35645  1.0000
  C   C96       1.0  0.08754  0.57248  0.45490  1.0000
  C   C97       1.0  0.20951  0.54005  0.48879  1.0000
  S   S30       1.0  0.22515  0.50985  0.39182  1.0000
  H   H161      1.0  0.24558  0.56946  0.43960  1.0000
  H   H162      1.0  0.07621  0.63983  0.45253  1.0000
  H   H163      1.0  0.21077  0.50362  0.23736  1.0000
  H   H164      1.0  0.12697  0.58270  0.46955  1.0000
  C   C98       1.0  0.06574  0.59395  0.48165  1.0000
  C   C99       1.0  0.06290  0.62970  0.44831  1.0000
  H   H165      1.0  0.19737  0.54428  0.47688  1.0000
  H   H166      1.0  0.19837  0.67362  0.44635  1.0000
  H   H167      1.0  0.07575  0.54162  0.44630  1.0000
  H   H168      1.0  0.21364  0.62105  0.42536  1.0000
  H   H169      1.0  0.14635  0.52580  0.27241  1.0000
  C   C100      1.0  0.01380  0.57970  0.44764  1.0000
  C   C101      1.0  0.06905  0.55775  0.45032  1.0000
  C   C102      1.0  0.10059  0.60687  0.46741  1.0000
  H   H170      1.0  0.22931  0.63808  0.45416  1.0000
  H   H171      1.0  0.05987  0.56348  0.43633  1.0000
  H   H172      1.0  0.13066  0.60655  0.48358  1.0000
  H   H173      1.0  0.22878  0.67201  0.46635  1.0000
  H   H174      1.0  0.05813  0.55557  0.46445  1.0000
  H   H175      1.0  0.05617  0.63681  0.43342  1.0000
  H   H176      1.0  0.05538  0.59807  0.44019  1.0000
  C   C103      1.0  0.21052  0.68534  0.44112  1.0000
  C   C104      1.0  0.21158  0.51578  0.49405  1.0000
  C   C105      1.0  0.18959  0.51407  0.26358  1.0000
  C   C106      1.0  0.09646  0.66100  0.49700  1.0000
  H   H177      1.0  0.16705  0.58046  0.44243  1.0000
  C   C107      1.0  0.01121  0.56210  0.46173  1.0000
  H   H178      1.0  0.23574  0.67141  0.40544  1.0000
  H   H179      1.0  0.08048  0.60618  0.42959  1.0000
  N   N9        1.0  0.08109  0.59452  0.46260  1.0000
  C   C108      1.0  0.00572  0.53964  0.43185  1.0000
  H   H180      1.0  0.01728  0.59512  0.45366  1.0000
  H   H181      1.0  0.20924  0.55931  0.28632  1.0000
  H   H182      1.0  0.17584  0.54967  0.28256  1.0000
  H   H183      1.0  0.05001  0.63078  0.46080  1.0000
  H   H184      1.0  0.08211  0.56541  0.49714  1.0000
  H   H185      1.0  0.21964  0.52614  0.45131  1.0000
  H   H186      1.0  0.19025  0.52956  0.25435  1.0000
  H   H187      1.0  0.20536  0.70126  0.44732  1.0000
  H   H188      1.0  0.09499  0.67365  0.48492  1.0000
  S   S31       1.0  0.00356  0.62769  0.48073  1.0000
  C   C109      1.0  0.22078  0.63674  0.42134  1.0000
  S   S32       1.0  0.01292  0.56428  0.48933  1.0000
  N   N10       1.0  0.24648  0.66349  0.43760  1.0000
  Fe  Fe17      1.0  0.00063  0.51848  0.38649  1.0000
  H   H189      1.0  0.00497  0.52856  0.46449  1.0000
  S   S33       1.0  0.05254  0.65997  0.49645  1.0000
  H   H190      1.0  0.23524  0.54772  0.28974  1.0000
  C   C110      1.0  0.01184  0.57725  0.42555  1.0000
  S   S34       1.0  0.00181  0.55404  0.39072  1.0000
  H   H191      1.0  0.00286  0.52406  0.42614  1.0000
  H   H192      1.0  0.24079  0.69382  0.45373  1.0000
  Fe  Fe18      1.0  0.00530  0.59739  0.50050  1.0000
  H   H193      1.0  0.11289  0.58754  0.49493  1.0000
  H   H194      1.0  0.01359  0.59085  0.41462  1.0000
  C   C111      1.0  0.00730  0.55720  0.41770  1.0000
  C   C112      1.0  0.00731  0.54213  0.45375  1.0000
  H   H195      1.0  0.04084  0.51341  0.46735  1.0000
  H   H196      1.0  0.20752  0.64878  0.42071  1.0000
  C   C113      1.0  0.23242  0.67895  0.45018  1.0000
  H   H197      1.0  0.22309  0.51211  0.29331  1.0000
  H   H198      1.0  0.14404  0.51626  0.30005  1.0000
  H   H199      1.0  0.22494  0.54658  0.48309  1.0000
  C   C114      1.0  0.07202  0.57962  0.50109  1.0000
  C   C115      1.0  0.21043  0.52470  0.29484  1.0000
  H   H200      1.0  0.13102  0.66089  0.49643  1.0000
  H   H201      1.0  0.18694  0.51975  0.44354  1.0000
  H   H202      1.0  0.17241  0.52272  0.46909  1.0000
  H   H203      1.0  0.20938  0.52790  0.31226  1.0000
  C   C116      1.0  0.14939  0.52955  0.28922  1.0000
  H   H204      1.0  0.13907  0.54377  0.29325  1.0000
  H   H205      1.0  0.05829  0.50740  0.48865  1.0000
  H   H206      1.0  0.22857  0.63521  0.40524  1.0000
  H   H207      1.0  0.17426  0.50748  0.25885  1.0000
  C   C117      1.0  0.17905  0.51127  0.45723  1.0000
  C   C118      1.0  0.22714  0.51079  0.45681  1.0000
  H   H208      1.0  0.24951  0.70604  0.41979  1.0000
  H   H209      1.0  0.16519  0.50344  0.45059  1.0000
  H   H210      1.0  0.11051  0.59643  0.60734  1.0000
  H   H211      1.0  0.17839  0.55323  0.61962  1.0000
  H   H212      1.0  0.16163  0.55698  0.64279  1.0000
  N   N11       1.0  0.15480  0.58585  0.59435  1.0000
  C   C119      1.0  0.11885  0.63728  0.51894  1.0000
  H   H213      1.0  0.06406  0.51066  0.54290  1.0000
  H   H214      1.0  0.13862  0.58316  0.62540  1.0000
  H   H215      1.0  0.17848  0.61671  0.56904  1.0000
  H   H216      1.0  0.17619  0.63703  0.58835  1.0000
  H   H217      1.0  0.12307  0.62032  0.59670  1.0000
  H   H218      1.0  0.00505  0.50464  0.53372  1.0000
  S   S35       1.0  0.22720  0.51909  0.60246  1.0000
  S   S36       1.0  0.19803  0.52497  0.66114  1.0000
  C   C120      1.0  0.16455  0.60648  0.60042  1.0000
  S   S37       1.0  0.19880  0.60719  0.52633  1.0000
  H   H219      1.0  0.17770  0.57841  0.63331  1.0000
  H   H220      1.0  0.18052  0.60329  0.60725  1.0000
  S   S38       1.0  0.24019  0.63752  0.51965  1.0000
  H   H221      1.0  0.24534  0.77070  0.51901  1.0000
  Fe  Fe19      1.0  0.21734  0.62835  0.54646  1.0000
  S   S39       1.0  0.22536  0.61870  0.58037  1.0000
  S   S40       1.0  0.19564  0.65732  0.54179  1.0000
  S   S41       1.0  0.22705  0.50459  0.71462  1.0000
  S   S42       1.0  0.14377  0.62640  0.52710  1.0000
  C   C121      1.0  0.00423  0.54827  0.56263  1.0000
  C   C122      1.0  0.22674  0.54684  0.59674  1.0000
  C   C123      1.0  0.22452  0.56174  0.61299  1.0000
  C   C124      1.0  0.22456  0.58380  0.60786  1.0000
  C   C125      1.0  0.22636  0.59103  0.58645  1.0000
  C   C126      1.0  0.22846  0.57611  0.57020  1.0000
  C   C127      1.0  0.22885  0.55408  0.57537  1.0000
  H   H222      1.0  0.22311  0.55628  0.62952  1.0000
  H   H223      1.0  0.22303  0.59529  0.62048  1.0000
  H   H224      1.0  0.23014  0.58154  0.55369  1.0000
  H   H225      1.0  0.01010  0.54362  0.61628  1.0000
  C   C128      1.0  0.17083  0.57353  0.58060  1.0000
  C   C129      1.0  0.13492  0.59012  0.58184  1.0000
  H   H226      1.0  0.09487  0.52130  0.63319  1.0000
  H   H227      1.0  0.15287  0.62946  0.57535  1.0000
  S   S43       1.0  0.13653  0.51623  0.65044  1.0000
  C   C130      1.0  0.10036  0.62826  0.52795  1.0000
  H   H228      1.0  0.05735  0.57310  0.50886  1.0000
  C   C131      1.0  0.07795  0.65173  0.50590  1.0000
  H   H229      1.0  0.24450  0.50902  0.75612  1.0000
  H   H230      1.0  0.15018  0.55061  0.56560  1.0000
  C   C132      1.0  0.16798  0.56518  0.62806  1.0000
  H   H231      1.0  0.21935  0.80846  0.56310  1.0000
  H   H232      1.0  0.13950  0.55919  0.61103  1.0000
  C   C133      1.0  0.23048  0.82010  0.55555  1.0000
  H   H233      1.0  0.10418  0.60718  0.58154  1.0000
  H   H234      1.0  0.17801  0.54352  0.56486  1.0000
  C   C134      1.0  0.16801  0.62314  0.58207  1.0000
  H   H235      1.0  0.18640  0.57213  0.58844  1.0000
  H   H236      1.0  0.12720  0.57489  0.57850  1.0000
  C   C135      1.0  0.08007  0.63553  0.52160  1.0000
  H   H237      1.0  0.00515  0.58308  0.61288  1.0000
  C   C136      1.0  0.00136  0.58314  0.57883  1.0000
  C   C137      1.0  0.14906  0.57329  0.61455  1.0000
  C   C138      1.0  0.11741  0.60436  0.59275  1.0000
  H   H238      1.0  0.16308  0.54000  0.58930  1.0000
  S   S44       1.0  0.02674  0.61015  0.52431  1.0000
  H   H239      1.0  0.10171  0.61559  0.54000  1.0000
  H   H240      1.0  0.15490  0.61450  0.61331  1.0000
  H   H241      1.0  0.03608  0.51466  0.54681  1.0000
  H   H242      1.0  0.13884  0.59745  0.56581  1.0000
  H   H243      1.0  0.17401  0.58224  0.56514  1.0000
  C   C139      1.0  0.16485  0.55067  0.57494  1.0000
  H   H244      1.0  0.22836  0.82087  0.53810  1.0000
  H   H245      1.0  0.06609  0.62865  0.52903  1.0000
  C   C140      1.0  0.11180  0.50518  0.65875  1.0000
  Fe  Fe20      1.0  0.21722  0.66506  0.51320  1.0000
  Fe  Fe21      1.0  0.17786  0.63649  0.52012  1.0000
  H   H246      1.0  0.23076  0.54260  0.56277  1.0000
  H   H247      1.0  0.22567  0.83639  0.56102  1.0000
  H   H248      1.0  0.23448  0.75523  0.54069  1.0000
  C   C141      1.0  0.04865  0.51024  0.53476  1.0000
  Fe  Fe22      1.0  0.21339  0.50672  0.63401  1.0000
  C   C142      1.0  0.00678  0.53837  0.58273  1.0000
  Fe  Fe23      1.0  0.02307  0.64134  0.50633  1.0000
  C   C143      1.0  0.00476  0.57337  0.59887  1.0000
  S   S45       1.0  0.00830  0.51026  0.58484  1.0000
  S   S46       1.0  0.00115  0.51435  0.64895  1.0000
  C   C144      1.0  0.09356  0.51057  0.64700  1.0000
  H   H249      1.0  0.22590  0.78262  0.53756  1.0000
  C   C145      1.0  0.00743  0.55099  0.60081  1.0000
  H   H250      1.0  0.00376  0.53880  0.54850  1.0000
  C   C146      1.0  0.23989  0.77153  0.53604  1.0000
  Fe  Fe24      1.0  0.17011  0.50352  0.65798  1.0000
  C   C147      1.0  0.11688  0.65380  0.50348  1.0000
  H   H251      1.0  0.04899  0.52267  0.52179  1.0000
  H   H252      1.0  0.08003  0.58905  0.51307  1.0000
  C   C148      1.0  0.00160  0.57054  0.56070  1.0000
  H   H253      1.0  0.19722  0.51148  0.50395  1.0000
  H   H254      1.0  0.05963  0.50678  0.64400  1.0000
  H   H255      1.0  0.20482  0.54868  0.50360  1.0000
  H   H256      1.0  0.22504  0.51393  0.50520  1.0000
  S   S47       1.0  0.22946  0.69794  0.50206  1.0000
  C   C149      1.0  0.07355  0.50236  0.65310  1.0000
  H   H257      1.0  0.45905  0.35215  0.07359  1.0000
  H   H258      1.0  0.37421  0.24781  0.39976  1.0000
  H   H259      1.0  0.32626  0.22443  0.46073  1.0000
  H   H260      1.0  0.34028  0.41893  0.03797  1.0000
  H   H261      1.0  0.38480  0.01520  0.42215  1.0000
  C   C150      1.0  0.47920  0.18982  0.27656  1.0000
  H   H262      1.0  0.44594  0.47239  0.01962  1.0000
  H   H263      1.0  0.34451  0.43185  0.33667  1.0000
  C   C151      1.0  0.49814  0.11036  0.35159  1.0000
  H   H264      1.0  0.44187  0.22134  0.31960  1.0000
  S   S48       1.0  0.46774  0.35748  0.02641  1.0000
  H   H265      1.0  0.41753  0.01602  0.48876  1.0000
  H   H266      1.0  0.29573  0.38908  0.06232  1.0000
  C   C152      1.0  0.48048  0.48454  0.22679  1.0000
  C   C153      1.0  0.30667  0.45739  0.31468  1.0000
  H   H267      1.0  0.31237  0.25458  0.44965  1.0000
  H   H268      1.0  0.34116  0.27398  0.45783  1.0000
  C   C154      1.0  0.35563  0.44334  0.32885  1.0000
  C   C155      1.0  0.31414  0.43600  0.02392  1.0000
  H   H269      1.0  0.41573  0.04422  0.49487  1.0000
  H   H270      1.0  0.45965  0.18436  0.24866  1.0000
  S   S49       1.0  0.29979  0.48811  0.24694  1.0000
  H   H271      1.0  0.42484  0.02665  0.42206  1.0000
  S   S50       1.0  0.33973  0.48377  0.00483  1.0000
  Fe  Fe25      1.0  0.48011  0.20919  0.39674  1.0000
  S   S51       1.0  0.45960  0.22735  0.42099  1.0000
  S   S52       1.0  0.47007  0.20097  0.36392  1.0000
  H   H272      1.0  0.43731  0.05885  0.40207  1.0000
  C   C156      1.0  0.41724  0.41237  0.01142  1.0000
  S   S53       1.0  0.35714  0.47836  0.15106  1.0000
  H   H273      1.0  0.37175  0.43999  0.33522  1.0000
  H   H274      1.0  0.31453  0.45320  0.32980  1.0000
  N   N12       1.0  0.34190  0.45503  0.29132  1.0000
  Fe  Fe26      1.0  0.46556  0.36393  0.21069  1.0000
  S   S54       1.0  0.43532  0.38084  0.19943  1.0000
  S   S55       1.0  0.47138  0.32829  0.20816  1.0000
  Fe  Fe27      1.0  0.37714  0.48611  0.22584  1.0000
  S   S56       1.0  0.40323  0.46733  0.24272  1.0000
  S   S57       1.0  0.34847  0.47150  0.21290  1.0000
  H   H275      1.0  0.46803  0.49140  0.04226  1.0000
  S   S58       1.0  0.38358  0.17572  0.46397  1.0000
  S   S59       1.0  0.46606  0.13853  0.36585  1.0000
  H   H276      1.0  0.29072  0.45019  0.31574  1.0000
  H   H277      1.0  0.44997  0.12606  0.29838  1.0000
  H   H278      1.0  0.44530  0.37748  0.07507  1.0000
  H   H279      1.0  0.29371  0.45554  0.09548  1.0000
  C   C157      1.0  0.42717  0.40525  0.21121  1.0000
  C   C158      1.0  0.40961  0.41694  0.20308  1.0000
  C   C159      1.0  0.40240  0.43618  0.21242  1.0000
  C   C160      1.0  0.41254  0.44372  0.23015  1.0000
  C   C161      1.0  0.43028  0.43221  0.23813  1.0000
  C   C162      1.0  0.43766  0.41309  0.22861  1.0000
  H   H280      1.0  0.40145  0.41102  0.18960  1.0000
  H   H281      1.0  0.38884  0.44501  0.20600  1.0000
  H   H282      1.0  0.43829  0.43801  0.25176  1.0000
  H   H283      1.0  0.45128  0.40430  0.23491  1.0000
  C   C163      1.0  0.43902  0.21265  0.43351  1.0000
  C   C164      1.0  0.43373  0.19281  0.42581  1.0000
  C   C165      1.0  0.41702  0.18146  0.43568  1.0000
  C   C166      1.0  0.40573  0.18963  0.45354  1.0000
  C   C167      1.0  0.41134  0.20924  0.46161  1.0000
  C   C168      1.0  0.42775  0.22088  0.45140  1.0000
  H   H284      1.0  0.44224  0.18638  0.41197  1.0000
  H   H285      1.0  0.41267  0.16635  0.42928  1.0000
  H   H286      1.0  0.40287  0.21553  0.47553  1.0000
  H   H287      1.0  0.43187  0.23618  0.45749  1.0000
  C   C169      1.0  0.39457  0.02500  0.45384  1.0000
  H   H288      1.0  0.38393  0.07082  0.42605  1.0000
  S   S60       1.0  0.32962  0.17981  0.49516  1.0000
  C   C170      1.0  0.47159  0.39827  0.14655  1.0000
  H   H289      1.0  0.41352  0.07596  0.45735  1.0000
  H   H290      1.0  0.26063  0.50015  0.45979  1.0000
  H   H291      1.0  0.37389  0.23605  0.45930  1.0000
  C   C171      1.0  0.38270  0.07402  0.44330  1.0000
  C   C172      1.0  0.48798  0.20011  0.49603  1.0000
  C   C173      1.0  0.44285  0.41951  0.03831  1.0000
  C   C174      1.0  0.31895  0.44885  0.29474  1.0000
  C   C175      1.0  0.34420  0.47849  0.29560  1.0000
  H   H292      1.0  0.35206  0.39945  0.07189  1.0000
  C   C176      1.0  0.43400  0.05963  0.41960  1.0000
  C   C177      1.0  0.48436  0.17241  0.31153  1.0000
  H   H293      1.0  0.45184  0.09647  0.37707  1.0000
  H   H294      1.0  0.30025  0.46158  0.05642  1.0000
  C   C178      1.0  0.36262  0.24651  0.45002  1.0000
  C   C179      1.0  0.49100  0.30342  0.11189  1.0000
  H   H295      1.0  0.35114  0.45970  0.33395  1.0000
  H   H296      1.0  0.36502  0.45491  0.26466  1.0000
  C   C180      1.0  0.46729  0.09462  0.36903  1.0000
  H   H297      1.0  0.37259  0.25782  0.44042  1.0000
  S   S61       1.0  0.47818  0.36455  0.24358  1.0000
  C   C181      1.0  0.35214  0.49117  0.12608  1.0000
  C   C182      1.0  0.47623  0.47624  0.04718  1.0000
  H   H298      1.0  0.42785  0.07610  0.42283  1.0000
  H   H299      1.0  0.47421  0.44280  0.00777  1.0000
  H   H300      1.0  0.48365  0.28901  0.10699  1.0000
  C   C183      1.0  0.35003  0.26069  0.46608  1.0000
  H   H301      1.0  0.44947  0.05654  0.42735  1.0000
  H   H302      1.0  0.35335  0.41675  0.26737  1.0000
  H   H303      1.0  0.36698  0.06889  0.44991  1.0000
  H   H304      1.0  0.33777  0.48289  0.31162  1.0000
  H   H305      1.0  0.32133  0.39375  0.05148  1.0000
  H   H306      1.0  0.39449  0.06262  0.47312  1.0000
  C   C184      1.0  0.48753  0.28610  0.28385  1.0000
  S   S62       1.0  0.48995  0.31542  0.06949  1.0000
  N   N13       1.0  0.46816  0.17772  0.29471  1.0000
  H   H307      1.0  0.47950  0.38791  0.11482  1.0000
  H   H308      1.0  0.47258  0.37436  0.08339  1.0000
  H   H309      1.0  0.30363  0.47497  0.31338  1.0000
  H   H310      1.0  0.39634  0.44768  0.04741  1.0000
  H   H311      1.0  0.47144  0.14806  0.27718  1.0000
  H   H312      1.0  0.43051  0.14728  0.30440  1.0000
  C   C185      1.0  0.34409  0.42969  0.25905  1.0000
  C   C186      1.0  0.42970  0.03726  0.46261  1.0000
  C   C187      1.0  0.45007  0.19099  0.30456  1.0000
  H   H313      1.0  0.46091  0.17919  0.49237  1.0000
  H   H314      1.0  0.40424  0.04501  0.41529  1.0000
  H   H315      1.0  0.35344  0.42359  0.30186  1.0000
  H   H316      1.0  0.48449  0.48402  0.24396  1.0000
  H   H317      1.0  0.43524  0.48533  0.17581  1.0000
  C   C188      1.0  0.40101  0.06386  0.45640  1.0000
  Fe  Fe28      1.0  0.49621  0.01592  0.36731  1.0000
  H   H318      1.0  0.43205  0.44160  0.06248  1.0000
  C   C189      1.0  0.33141  0.43425  0.04091  1.0000
  H   H319      1.0  0.44700  0.16185  0.27415  1.0000
  H   H320      1.0  0.45094  0.20762  0.26370  1.0000
  C   C190      1.0  0.47833  0.11291  0.36225  1.0000
  H   H321      1.0  0.47663  0.16820  0.32727  1.0000
  C   C191      1.0  0.47849  0.28018  0.30397  1.0000
  H   H322      1.0  0.31776  0.43110  0.29544  1.0000
  H   H323      1.0  0.32197  0.43359  0.00792  1.0000
  N   N14       1.0  0.34979  0.23311  0.43580  1.0000
  C   C192      1.0  0.36527  0.22068  0.42142  1.0000
  C   C193      1.0  0.33794  0.21688  0.44947  1.0000
  C   C194      1.0  0.33530  0.24702  0.42202  1.0000
  C   C195      1.0  0.38169  0.23385  0.40827  1.0000
  C   C196      1.0  0.32594  0.20023  0.43719  1.0000
  C   C197      1.0  0.31328  0.25389  0.43202  1.0000
  H   H324      1.0  0.37446  0.20843  0.43085  1.0000
  H   H325      1.0  0.35666  0.21146  0.40965  1.0000
  H   H326      1.0  0.33917  0.25153  0.47687  1.0000
  H   H327      1.0  0.34917  0.20779  0.46003  1.0000
  H   H328      1.0  0.34349  0.26180  0.41651  1.0000
  H   H329      1.0  0.33174  0.23848  0.40721  1.0000
  H   H330      1.0  0.48662  0.36928  0.29292  1.0000
  N   N15       1.0  0.49089  0.47271  0.00792  1.0000
  H   H331      1.0  0.44391  0.18306  0.31960  1.0000
  H   H332      1.0  0.33717  0.18775  0.43065  1.0000
  H   H333      1.0  0.31476  0.19187  0.44847  1.0000
  H   H334      1.0  0.31645  0.20762  0.42416  1.0000
  H   H335      1.0  0.30884  0.27025  0.42591  1.0000
  H   H336      1.0  0.38304  0.09174  0.44423  1.0000
  C   C198      1.0  0.37758  0.02190  0.43707  1.0000
  H   H337      1.0  0.48863  0.39919  0.15055  1.0000
  C   C199      1.0  0.47600  0.07394  0.36530  1.0000
  Fe  Fe29      1.0  0.48459  0.16827  0.37151  1.0000
  H   H338      1.0  0.32050  0.46363  0.10061  1.0000
  C   C200      1.0  0.46495  0.19781  0.25814  1.0000
  H   H339      1.0  0.30066  0.24344  0.42664  1.0000
  H   H340      1.0  0.45803  0.22442  0.29577  1.0000
  S   S63       1.0  0.38352  0.48842  0.03230  1.0000
  C   C201      1.0  0.42536  0.03162  0.48655  1.0000
  C   C202      1.0  0.30732  0.46493  0.08924  1.0000
  C   C203      1.0  0.40254  0.42675  0.02099  1.0000
  H   H341      1.0  0.37347  0.46930  0.10922  1.0000
  H   H342      1.0  0.49118  0.20347  0.44763  1.0000
  H   H343      1.0  0.49368  0.18667  0.31479  1.0000
  H   H344      1.0  0.36616  0.00996  0.44356  1.0000
  C   C204      1.0  0.46465  0.19639  0.49045  1.0000
  C   C205      1.0  0.36216  0.48267  0.10766  1.0000
  C   C206      1.0  0.41765  0.04263  0.42626  1.0000
  H   H345      1.0  0.37490  0.48458  0.27829  1.0000
  N   N16       1.0  0.41030  0.04246  0.44947  1.0000
  N   N17       1.0  0.44748  0.37744  0.12218  1.0000
  C   C207      1.0  0.46975  0.38190  0.12874  1.0000
  C   C208      1.0  0.44898  0.35992  0.10600  1.0000
  C   C209      1.0  0.43392  0.37001  0.14109  1.0000
  C   C210      1.0  0.43751  0.39778  0.11295  1.0000
  Fe  Fe30      1.0  0.48468  0.38726  0.03344  1.0000
  C   C211      1.0  0.40786  0.43715  0.03951  1.0000
  C   C212      1.0  0.44303  0.35047  0.15387  1.0000
  C   C213      1.0  0.41486  0.39598  0.10434  1.0000
  H   H346      1.0  0.49655  0.45119  0.03501  1.0000
  H   H347      1.0  0.46565  0.29002  0.31086  1.0000
  H   H348      1.0  0.43344  0.35218  0.10441  1.0000
  H   H349      1.0  0.45988  0.34660  0.11145  1.0000
  H   H350      1.0  0.43057  0.38320  0.15245  1.0000
  H   H351      1.0  0.41791  0.36558  0.13588  1.0000
  H   H352      1.0  0.43595  0.41025  0.12531  1.0000
  H   H353      1.0  0.44797  0.40514  0.10021  1.0000
  S   S64       1.0  0.35160  0.04841  0.49166  1.0000
  H   H354      1.0  0.39457  0.23914  0.41848  1.0000
  H   H355      1.0  0.30218  0.42345  0.02628  1.0000
  H   H356      1.0  0.26636  0.46877  0.27223  1.0000
  C   C214      1.0  0.45697  0.36668  0.08333  1.0000
  H   H357      1.0  0.37731  0.47854  0.30655  1.0000
  H   H358      1.0  0.44608  0.33631  0.14379  1.0000
  H   H359      1.0  0.43122  0.34582  0.16663  1.0000
  H   H360      1.0  0.45777  0.35424  0.16209  1.0000
  H   H361      1.0  0.40259  0.40014  0.11689  1.0000
  H   H362      1.0  0.41160  0.37992  0.09853  1.0000
  H   H363      1.0  0.41293  0.40715  0.09033  1.0000
  N   N18       1.0  0.32359  0.43609  0.06386  1.0000
  C   C215      1.0  0.31449  0.45864  0.06632  1.0000
  H   H364      1.0  0.34967  0.42960  0.24200  1.0000
  C   C216      1.0  0.34202  0.43312  0.07874  1.0000
  C   C217      1.0  0.30620  0.42078  0.06981  1.0000
  H   H365      1.0  0.44896  0.39829  0.01205  1.0000
  H   H366      1.0  0.46961  0.21432  0.32009  1.0000
  C   C218      1.0  0.35891  0.41530  0.07366  1.0000
  C   C219      1.0  0.31089  0.39683  0.06569  1.0000
  C   C220      1.0  0.45541  0.21402  0.31021  1.0000
  C   C221      1.0  0.49498  0.23310  0.46291  1.0000
  C   C222      1.0  0.27051  0.48304  0.28034  1.0000
  H   H367      1.0  0.34324  0.44676  0.03697  1.0000
  H   H368      1.0  0.35118  0.44803  0.07901  1.0000
  H   H369      1.0  0.33616  0.43016  0.09553  1.0000
  H   H370      1.0  0.30193  0.42162  0.08718  1.0000
  C   C223      1.0  0.45019  0.46776  0.00309  1.0000
  S   S65       1.0  0.49185  0.17593  0.40519  1.0000
  Fe  Fe31      1.0  0.36465  0.18611  0.49355  1.0000
  H   H371      1.0  0.46622  0.41462  0.14138  1.0000
  H   H372      1.0  0.36866  0.41945  0.05910  1.0000
  H   H373      1.0  0.38965  0.22346  0.39606  1.0000
  Fe  Fe32      1.0  0.32983  0.49901  0.22808  1.0000
  H   H374      1.0  0.37011  0.41377  0.08702  1.0000
  C   C224      1.0  0.49694  0.30513  0.13324  1.0000
  H   H375      1.0  0.49197  0.04863  0.43127  1.0000
  H   H376      1.0  0.31786  0.38863  0.07994  1.0000
  S   S66       1.0  0.46817  0.41550  0.04889  1.0000
  H   H377      1.0  0.33449  0.48854  0.28427  1.0000
  H   H378      1.0  0.29102  0.42562  0.06199  1.0000
  H   H379      1.0  0.40315  0.00926  0.45533  1.0000
  H   H380      1.0  0.48323  0.47959  0.06276  1.0000
  H   H381      1.0  0.46727  0.06001  0.37046  1.0000
  C   C225      1.0  0.35661  0.44072  0.30439  1.0000
  H   H382      1.0  0.36147  0.26819  0.47652  1.0000
  C   C226      1.0  0.36719  0.48653  0.29431  1.0000
  C   C227      1.0  0.45915  0.15771  0.28627  1.0000
  H   H383      1.0  0.47817  0.36692  0.13422  1.0000
  H   H384      1.0  0.37354  0.44218  0.29871  1.0000
  C   C228      1.0  0.42800  0.43354  0.04817  1.0000
  H   H385      1.0  0.43617  0.19213  0.29395  1.0000
  C   C229      1.0  0.43747  0.40891  0.01995  1.0000
  H   H386      1.0  0.32693  0.42601  0.25931  1.0000
  H   H387      1.0  0.38602  0.02720  0.46952  1.0000
  C   C230      1.0  0.34789  0.45199  0.26798  1.0000
  H   H388      1.0  0.44071  0.05086  0.46211  1.0000
  H   H389      1.0  0.36339  0.09220  0.48519  1.0000
  H   H390      1.0  0.30936  0.45450  0.28086  1.0000
  H   H391      1.0  0.33896  0.46385  0.25780  1.0000
  H   H392      1.0  0.47899  0.25764  0.33092  1.0000
  C   C231      1.0  0.49553  0.07137  0.35412  1.0000
  H   H393      1.0  0.46434  0.46364  0.04991  1.0000
  H   H394      1.0  0.26975  0.26488  0.47673  1.0000
  H   H395      1.0  0.32624  0.47058  0.06038  1.0000
  C   C232      1.0  0.35175  0.09170  0.49829  1.0000
  H   H396      1.0  0.45837  0.47776  0.19016  1.0000
  Fe  Fe33      1.0  0.35368  0.49311  0.18396  1.0000
  S   S67       1.0  0.37785  0.43221  0.00936  1.0000
  H   H397      1.0  0.46697  0.47407  0.22451  1.0000
  S   S68       1.0  0.47691  0.01984  0.39773  1.0000
  C   C233      1.0  0.48603  0.26181  0.31541  1.0000
  C   C234      1.0  0.44299  0.48695  0.19137  1.0000
  C   C235      1.0  0.25978  0.48831  0.29979  1.0000
  H   H398      1.0  0.48741  0.20393  0.28254  1.0000
  S   S69       1.0  0.47795  0.31011  0.27088  1.0000
  H   H399      1.0  0.30177  0.48202  0.08887  1.0000
  H   H400      1.0  0.47446  0.20821  0.24702  1.0000
  H   H401      1.0  0.43915  0.02345  0.45588  1.0000
  C   C236      1.0  0.44782  0.14304  0.30308  1.0000
  H   H402      1.0  0.48546  0.17102  0.46420  1.0000
  Fe  Fe34      1.0  0.49493  0.34053  0.04303  1.0000
  Fe  Fe35      1.0  0.48682  0.32945  0.24027  1.0000
  H   H403      1.0  0.36814  0.03667  0.43336  1.0000
  C   C237      1.0  0.26924  0.26817  0.49362  1.0000
  H   H404      1.0  0.43213  0.47958  0.20357  1.0000
  H   H405      1.0  0.49436  0.29196  0.14452  1.0000
  H   H406      1.0  0.45436  0.14363  0.31924  1.0000
  C   C238      1.0  0.28675  0.49586  0.27144  1.0000
  H   H407      1.0  0.44081  0.02980  0.49466  1.0000
  H   H408      1.0  0.49022  0.07674  0.42611  1.0000
  H   H409      1.0  0.30613  0.45207  0.02322  1.0000
  H   H410      1.0  0.46293  0.39345  0.16154  1.0000
  H   H411      1.0  0.46118  0.20182  0.47390  1.0000
  S   S70       1.0  0.49647  0.37276  0.19442  1.0000
  C   C239      1.0  0.49535  0.31973  0.09671  1.0000
  S   S71       1.0  0.29955  0.23522  0.49649  1.0000
  H   H412      1.0  0.47779  0.23425  0.46756  1.0000
  C   C240      1.0  0.35741  0.49104  0.08722  1.0000
  H   H413      1.0  0.36508  0.48409  0.07330  1.0000
  H   H414      1.0  0.43891  0.49184  0.23469  1.0000
  C   C241      1.0  0.49419  0.46863  0.03149  1.0000
  H   H415      1.0  0.49685  0.24243  0.44762  1.0000
  H   H416      1.0  0.49217  0.17974  0.26909  1.0000
  Fe  Fe36      1.0  0.37223  0.46774  0.00673  1.0000
  H   H417      1.0  0.47081  0.50189  0.00968  1.0000
  H   H418      1.0  0.48868  0.21699  0.50093  1.0000
  H   H419      1.0  0.49450  0.47694  0.21832  1.0000
  C   C242      1.0  0.25527  0.28458  0.50146  1.0000
  H   H420      1.0  0.49323  0.13836  0.30671  1.0000
  C   C243      1.0  0.48625  0.49607  0.00259  1.0000
  H   H421      1.0  0.45364  0.20536  0.50153  1.0000
  H   H422      1.0  0.45427  0.18844  0.73381  1.0000
  S   S72       1.0  0.46978  0.05428  0.69691  1.0000
  H   H423      1.0  0.38149  0.11214  0.59642  1.0000
  Fe  Fe37      1.0  0.48158  0.02694  0.67631  1.0000
  H   H424      1.0  0.36030  0.06920  0.60360  1.0000
  Fe  Fe38      1.0  0.47693  0.21316  0.68779  1.0000
  S   S73       1.0  0.34069  0.46658  0.86219  1.0000
  H   H425      1.0  0.38758  0.06305  0.63096  1.0000
  C   C244      1.0  0.34321  0.07204  0.50503  1.0000
  H   H426      1.0  0.47384  0.13234  0.69729  1.0000
  Fe  Fe39      1.0  0.33806  0.48609  0.78138  1.0000
  C   C245      1.0  0.37242  0.10531  0.58343  1.0000
  C   C246      1.0  0.49149  0.13177  0.75024  1.0000
  C   C247      1.0  0.34541  0.11081  0.50848  1.0000
  C   C248      1.0  0.34385  0.48150  0.92489  1.0000
  H   H427      1.0  0.43918  0.45503  0.99905  1.0000
  H   H428      1.0  0.32087  0.05679  0.52683  1.0000
  Fe  Fe40      1.0  0.33592  0.16586  0.52780  1.0000
  S   S74       1.0  0.37125  0.17007  0.52525  1.0000
  S   S75       1.0  0.32277  0.13397  0.53937  1.0000
  Fe  Fe41      1.0  0.36368  0.20244  0.53872  1.0000
  S   S76       1.0  0.38527  0.21851  0.56117  1.0000
  S   S77       1.0  0.32849  0.19733  0.54405  1.0000
  Fe  Fe42      1.0  0.38380  0.47558  0.79607  1.0000
  S   S78       1.0  0.35282  0.45929  0.80166  1.0000
  S   S79       1.0  0.41679  0.46076  0.79065  1.0000
  Fe  Fe43      1.0  0.46819  0.35318  0.81362  1.0000
  S   S80       1.0  0.48110  0.31984  0.82138  1.0000
  S   S81       1.0  0.43322  0.36181  0.81085  1.0000
  H   H429      1.0  0.47396  0.13074  0.75231  1.0000
  N   N19       1.0  0.38041  0.08286  0.57838  1.0000
  H   H430      1.0  0.38899  0.01299  0.62212  1.0000
  H   H431      1.0  0.30946  0.09054  0.54471  1.0000
  H   H432      1.0  0.27980  0.49929  0.77128  1.0000
  H   H433      1.0  0.26213  0.40258  0.60501  1.0000
  C   C249      1.0  0.26763  0.27681  0.53707  1.0000
  S   S82       1.0  0.46801  0.22009  0.65351  1.0000
  H   H434      1.0  0.47550  0.45666  0.98259  1.0000
  H   H435      1.0  0.44678  0.08168  0.60300  1.0000
  H   H436      1.0  0.49086  0.15594  0.72493  1.0000
  H   H437      1.0  0.46124  0.50064  0.76955  1.0000
  Fe  Fe44      1.0  0.45990  0.18528  0.65224  1.0000
  S   S83       1.0  0.43297  0.16876  0.63669  1.0000
  S   S84       1.0  0.46576  0.17916  0.68720  1.0000
  C   C250      1.0  0.32134  0.09091  0.53179  1.0000
  C   C251      1.0  0.49817  0.15373  0.74083  1.0000
  H   H438      1.0  0.46632  0.16012  0.77328  1.0000
  C   C252      1.0  0.36702  0.07484  0.56074  1.0000
  H   H439      1.0  0.43237  0.06527  0.56319  1.0000
  H   H440      1.0  0.26838  0.39287  0.54664  1.0000
  H   H441      1.0  0.45536  0.14305  0.58609  1.0000
  C   C253      1.0  0.46993  0.17359  0.76185  1.0000
  H   H442      1.0  0.41915  0.48118  0.85036  1.0000
  C   C254      1.0  0.28979  0.48520  0.71978  1.0000
  C   C255      1.0  0.42090  0.43304  0.79529  1.0000
  C   C256      1.0  0.44176  0.42483  0.79765  1.0000
  C   C257      1.0  0.44563  0.40293  0.80210  1.0000
  C   C258      1.0  0.42865  0.38905  0.80403  1.0000
  C   C259      1.0  0.40778  0.39712  0.80115  1.0000
  C   C260      1.0  0.40388  0.41913  0.79695  1.0000
  H   H443      1.0  0.45500  0.43548  0.79624  1.0000
  H   H444      1.0  0.46179  0.39687  0.80418  1.0000
  H   H445      1.0  0.39460  0.38643  0.80255  1.0000
  H   H446      1.0  0.38777  0.42531  0.79495  1.0000
  C   C261      1.0  0.37748  0.06913  0.59846  1.0000
  H   H447      1.0  0.41257  0.09281  0.58273  1.0000
  C   C262      1.0  0.27796  0.34590  0.56067  1.0000
  H   H448      1.0  0.46576  0.06712  0.61838  1.0000
  C   C263      1.0  0.39875  0.20397  0.58156  1.0000
  C   C264      1.0  0.41455  0.21410  0.59255  1.0000
  C   C265      1.0  0.42530  0.20333  0.60925  1.0000
  C   C266      1.0  0.42012  0.18241  0.61531  1.0000
  C   C267      1.0  0.40437  0.17218  0.60428  1.0000
  C   C268      1.0  0.39381  0.18287  0.58734  1.0000
  H   H449      1.0  0.41842  0.23041  0.58818  1.0000
  H   H450      1.0  0.43738  0.21136  0.61760  1.0000
  H   H451      1.0  0.40013  0.15608  0.60902  1.0000
  H   H452      1.0  0.38153  0.17502  0.57906  1.0000
  H   H453      1.0  0.38255  0.40130  0.84144  1.0000
  H   H454      1.0  0.26482  0.37312  0.52659  1.0000
  C   C269      1.0  0.47151  0.49404  0.78245  1.0000
  C   C270      1.0  0.48219  0.09763  0.63919  1.0000
  C   C271      1.0  0.28162  0.26043  0.52922  1.0000
  H   H455      1.0  0.43435  0.38379  0.85678  1.0000
  H   H456      1.0  0.29167  0.25120  0.54005  1.0000
  H   H457      1.0  0.48211  0.11099  0.65064  1.0000
  H   H458      1.0  0.36701  0.11626  0.54986  1.0000
  H   H459      1.0  0.43753  0.06869  0.64188  1.0000
  H   H460      1.0  0.28394  0.37983  0.58031  1.0000
  C   C272      1.0  0.33020  0.11049  0.52534  1.0000
  H   H461      1.0  0.45558  0.15939  0.73374  1.0000
  H   H462      1.0  0.42137  0.08650  0.65788  1.0000
  H   H463      1.0  0.40503  0.09321  0.55569  1.0000
  C   C273      1.0  0.25451  0.39341  0.59255  1.0000
  H   H464      1.0  0.25538  0.40727  0.72002  1.0000
  H   H465      1.0  0.28582  0.31670  0.57979  1.0000
  H   H466      1.0  0.40767  0.07476  0.61421  1.0000
  H   H467      1.0  0.35631  0.04652  0.54509  1.0000
  H   H468      1.0  0.40892  0.05390  0.55386  1.0000
  C   C274      1.0  0.47232  0.09792  0.69762  1.0000
  C   C275      1.0  0.48274  0.11741  0.69518  1.0000
  S   S85       1.0  0.37988  0.49602  0.82483  1.0000
  H   H469      1.0  0.45542  0.09796  0.70162  1.0000
  C   C276      1.0  0.47594  0.35281  0.91988  1.0000
  C   C277      1.0  0.25668  0.38259  0.53942  1.0000
  C   C278      1.0  0.34262  0.47031  0.90574  1.0000
  H   H470      1.0  0.34326  0.47292  0.94014  1.0000
  H   H471      1.0  0.34112  0.45311  0.90642  1.0000
  Fe  Fe45      1.0  0.35344  0.01559  0.50833  1.0000
  C   C279      1.0  0.45020  0.12865  0.59545  1.0000
  C   C280      1.0  0.48308  0.27451  0.76219  1.0000
  H   H472      1.0  0.49842  0.46292  0.83538  1.0000
  C   C281      1.0  0.36339  0.05052  0.56042  1.0000
  H   H473      1.0  0.44781  0.11584  0.58400  1.0000
  N   N20       1.0  0.44414  0.33016  0.74119  1.0000
  C   C282      1.0  0.45837  0.34793  0.73316  1.0000
  C   C283      1.0  0.42141  0.33817  0.73862  1.0000
  C   C284      1.0  0.44890  0.31096  0.72744  1.0000
  C   C285      1.0  0.44923  0.32521  0.76424  1.0000
  H   H474      1.0  0.26709  0.27999  0.55398  1.0000
  C   C286      1.0  0.41426  0.35744  0.75233  1.0000
  C   C287      1.0  0.43210  0.29353  0.72745  1.0000
  C   C288      1.0  0.43447  0.31006  0.77722  1.0000
  H   H475      1.0  0.45300  0.35468  0.71747  1.0000
  H   H476      1.0  0.45755  0.36158  0.74427  1.0000
  H   H477      1.0  0.40983  0.32554  0.74242  1.0000
  H   H478      1.0  0.41866  0.34274  0.72155  1.0000
  H   H479      1.0  0.45114  0.31615  0.71033  1.0000
  H   H480      1.0  0.46423  0.30284  0.73189  1.0000
  H   H481      1.0  0.46559  0.31800  0.76544  1.0000
  H   H482      1.0  0.44999  0.34013  0.77341  1.0000
  H   H483      1.0  0.43478  0.13337  0.60340  1.0000
  S   S86       1.0  0.49957  0.03418  0.64564  1.0000
  S   S87       1.0  0.48999  0.35835  0.78507  1.0000
  H   H484      1.0  0.42359  0.37187  0.74849  1.0000
  H   H485      1.0  0.39736  0.36186  0.74913  1.0000
  H   H486      1.0  0.41499  0.35345  0.76967  1.0000
  H   H487      1.0  0.42754  0.28746  0.74361  1.0000
  H   H488      1.0  0.43892  0.27957  0.71859  1.0000
  H   H489      1.0  0.41768  0.29919  0.71888  1.0000
  H   H490      1.0  0.44044  0.29319  0.77637  1.0000
  H   H491      1.0  0.41765  0.31118  0.77267  1.0000
  H   H492      1.0  0.43412  0.31462  0.79429  1.0000
  C   C289      1.0  0.48084  0.25176  0.73101  1.0000
  H   H493      1.0  0.43194  0.45869  0.83697  1.0000
  H   H494      1.0  0.40721  0.38417  0.86594  1.0000
  H   H495      1.0  0.43399  0.46183  0.86531  1.0000
  C   C290      1.0  0.48510  0.34678  0.89997  1.0000
  C   C291      1.0  0.39541  0.00352  0.58962  1.0000
  C   C292      1.0  0.46315  0.08247  0.60916  1.0000
  H   H496      1.0  0.38323  0.45101  0.90403  1.0000
  H   H497      1.0  0.35188  0.04561  0.57336  1.0000
  C   C293      1.0  0.25432  0.28896  0.52329  1.0000
  H   H498      1.0  0.42782  0.39292  0.88307  1.0000
  H   H499      1.0  0.29864  0.34051  0.58846  1.0000
  H   H500      1.0  0.37362  0.07970  0.54464  1.0000
  H   H501      1.0  0.26184  0.44071  0.68252  1.0000
  H   H502      1.0  0.25271  0.40448  0.57851  1.0000
  H   H503      1.0  0.48289  0.12327  0.60330  1.0000
  C   C294      1.0  0.27722  0.49706  0.75449  1.0000
  C   C295      1.0  0.46728  0.12240  0.61189  1.0000
  H   H504      1.0  0.44690  0.48148  0.99191  1.0000
  C   C296      1.0  0.44382  0.10334  0.63679  1.0000
  C   C297      1.0  0.39030  0.07517  0.61789  1.0000
  H   H505      1.0  0.48921  0.33464  0.74464  1.0000
  H   H506      1.0  0.28435  0.42381  0.73567  1.0000
  H   H507      1.0  0.27325  0.44401  0.71824  1.0000
  Fe  Fe46      1.0  0.34798  0.48153  0.82937  1.0000
  H   H508      1.0  0.47990  0.08273  0.64899  1.0000
  H   H509      1.0  0.35687  0.40724  0.85323  1.0000
  S   S88       1.0  0.31880  0.47951  0.75167  1.0000
  C   C298      1.0  0.40348  0.08394  0.57108  1.0000
  C   C299      1.0  0.32788  0.07175  0.52177  1.0000
  H   H510      1.0  0.36978  0.42762  0.83794  1.0000
  H   H511      1.0  0.43731  0.17328  0.75128  1.0000
  C   C300      1.0  0.47857  0.08181  0.58931  1.0000
  H   H512      1.0  0.30760  0.32733  0.56458  1.0000
  S   S89       1.0  0.38712  0.48701  0.97982  1.0000
  H   H513      1.0  0.38502  0.09085  0.62440  1.0000
  Fe  Fe47      1.0  0.48860  0.35665  0.99624  1.0000
  S   S90       1.0  0.36996  0.50067  0.77377  1.0000
  H   H514      1.0  0.35067  0.08229  0.56163  1.0000
  H   H515      1.0  0.48925  0.19302  0.72636  1.0000
  H   H516      1.0  0.27320  0.36558  0.60269  1.0000
  S   S91       1.0  0.47348  0.35477  0.96374  1.0000
  C   C301      1.0  0.41538  0.06237  0.56741  1.0000
  H   H517      1.0  0.46606  0.18841  0.77086  1.0000
  H   H518      1.0  0.48437  0.49847  0.98502  1.0000
  C   C302      1.0  0.43200  0.00659  0.57663  1.0000
  S   S92       1.0  0.38391  0.00966  0.52537  1.0000
  C   C303      1.0  0.29322  0.33192  0.57447  1.0000
  H   H519      1.0  0.44394  0.00483  0.56386  1.0000
  H   H520      1.0  0.46956  0.08408  0.57440  1.0000
  C   C304      1.0  0.48637  0.34788  0.93905  1.0000
  H   H521      1.0  0.36437  0.13666  0.56918  1.0000
  H   H522      1.0  0.37816  0.04059  0.56183  1.0000
  C   C305      1.0  0.26877  0.37345  0.58720  1.0000
  H   H523      1.0  0.49676  0.11916  0.73886  1.0000
  H   H524      1.0  0.35227  0.12581  0.50328  1.0000
  N   N21       1.0  0.25979  0.35736  0.57259  1.0000
  H   H525      1.0  0.48533  0.33076  0.71658  1.0000
  H   H526      1.0  0.27177  0.33536  0.54834  1.0000
  N   N22       1.0  0.46444  0.10123  0.62371  1.0000
  C   C306      1.0  0.42219  0.01629  0.61291  1.0000
  H   H527      1.0  0.39038  0.12681  0.56136  1.0000
  H   H528      1.0  0.46054  0.36111  0.92047  1.0000
  H   H529      1.0  0.43008  0.10655  0.62631  1.0000
  S   S93       1.0  0.46645  0.23274  0.71707  1.0000
  C   C307      1.0  0.37375  0.12194  0.56472  1.0000
  N   N23       1.0  0.40411  0.43070  0.86806  1.0000
  C   C308      1.0  0.38233  0.42125  0.87022  1.0000
  C   C309      1.0  0.41179  0.43432  0.89024  1.0000
  C   C310      1.0  0.41986  0.41585  0.85674  1.0000
  C   C311      1.0  0.40237  0.45132  0.85508  1.0000
  C   C312      1.0  0.37269  0.41403  0.84933  1.0000
  C   C313      1.0  0.40063  0.45304  0.90224  1.0000
  C   C314      1.0  0.42219  0.39298  0.86646  1.0000
  C   C315      1.0  0.42314  0.46375  0.85180  1.0000
  H   H530      1.0  0.38233  0.40727  0.88164  1.0000
  H   H531      1.0  0.37057  0.43300  0.87726  1.0000
  H   H532      1.0  0.42924  0.43682  0.89008  1.0000
  H   H533      1.0  0.40965  0.41975  0.90066  1.0000
  H   H534      1.0  0.41585  0.41452  0.83974  1.0000
  H   H535      1.0  0.43608  0.42254  0.85615  1.0000
  H   H536      1.0  0.39721  0.44823  0.83863  1.0000
  H   H537      1.0  0.38945  0.46227  0.86147  1.0000
  H   H538      1.0  0.48012  0.48016  0.77533  1.0000
  S   S94       1.0  0.46360  0.02257  0.59940  1.0000
  H   H539      1.0  0.40685  0.45346  0.91864  1.0000
  H   H540      1.0  0.41521  0.05191  0.58195  1.0000
  H   H541      1.0  0.40379  0.46877  0.89435  1.0000
  H   H542      1.0  0.48637  0.06559  0.58842  1.0000
  C   C316      1.0  0.48230  0.34182  0.72999  1.0000
  H   H543      1.0  0.25784  0.33229  0.59730  1.0000
  C   C317      1.0  0.47338  0.45913  0.00012  1.0000
  S   S95       1.0  0.49273  0.17402  0.64161  1.0000
  H   H544      1.0  0.35546  0.10521  0.58936  1.0000
  H   H545      1.0  0.46744  0.13566  0.62347  1.0000
  C   C318      1.0  0.26979  0.49071  0.71111  1.0000
  C   C319      1.0  0.26999  0.43428  0.73294  1.0000
  H   H546      1.0  0.38191  0.05208  0.59566  1.0000
  H   H547      1.0  0.30235  0.47839  0.70957  1.0000
  H   H548      1.0  0.44407  0.11737  0.64747  1.0000
  H   H549      1.0  0.46086  0.48839  0.79584  1.0000
  C   C320      1.0  0.45364  0.17359  0.74392  1.0000
  C   C321      1.0  0.48354  0.07839  0.69449  1.0000
  C   C322      1.0  0.34301  0.48124  0.88580  1.0000
  H   H550      1.0  0.26828  0.44492  0.74685  1.0000
  H   H551      1.0  0.47676  0.27964  0.77756  1.0000
  H   H552      1.0  0.47677  0.35049  0.88539  1.0000
  C   C323      1.0  0.43770  0.08368  0.65093  1.0000
  H   H553      1.0  0.28817  0.35753  0.55171  1.0000
  H   H554      1.0  0.45792  0.25256  0.75744  1.0000
  S   S96       1.0  0.48878  0.36947  0.83629  1.0000
  H   H555      1.0  0.49922  0.12762  0.76552  1.0000
  N   N24       1.0  0.49308  0.17276  0.75464  1.0000
  H   H556      1.0  0.44821  0.08134  0.66468  1.0000
  H   H557      1.0  0.49129  0.19040  0.51086  1.0000
  C   C324      1.0  0.47257  0.25899  0.75082  1.0000
  C   C325      1.0  0.29360  0.48811  0.74155  1.0000
  H   H558      1.0  0.26715  0.48821  0.69438  1.0000
  C   C326      1.0  0.43759  0.01433  0.59633  1.0000
  H   H559      1.0  0.42641  0.02248  0.62811  1.0000
  H   H560      1.0  0.49137  0.20735  0.75012  1.0000
  H   H561      1.0  0.48910  0.19236  0.79666  1.0000
  Fe  Fe48      1.0  0.47654  0.01271  0.63121  1.0000
  H   H562      1.0  0.41320  0.40430  0.99709  1.0000
  C   C327      1.0  0.49768  0.19288  0.74170  1.0000
  H   H563      1.0  0.48683  0.46550  0.80987  1.0000
  S   S97       1.0  0.45701  0.00731  0.66125  1.0000
  S   S98       1.0  0.35983  0.21902  0.50654  1.0000
  H   H564      1.0  0.49149  0.09334  0.58902  1.0000
  C   C328      1.0  0.40103  0.01105  0.60948  1.0000
  C   C329      1.0  0.25043  0.42027  0.73091  1.0000
  H   H565      1.0  0.49327  0.50073  0.82946  1.0000
  H   H566      1.0  0.49122  0.35652  0.72598  1.0000
  C   C330      1.0  0.28250  0.25594  0.50741  1.0000
  Fe  Fe49      1.0  0.49912  0.17037  0.67648  1.0000
  C   C331      1.0  0.25322  0.49914  0.72416  1.0000
  Fe  Fe50      1.0  0.32494  0.21188  0.51085  1.0000
  C   C332      1.0  0.48579  0.74033  0.29156  1.0000
  H   H567      1.0  0.42995  0.62064  0.28612  1.0000
  H   H568      1.0  0.45683  0.70176  0.10865  1.0000
  C   C333      1.0  0.28094  0.51970  0.30143  1.0000
  C   C334      1.0  0.47421  0.70256  0.17956  1.0000
  C   C335      1.0  0.48964  0.74661  0.17408  1.0000
  H   H569      1.0  0.25233  0.73430  0.48534  1.0000
  H   H570      1.0  0.45703  0.51614  0.18143  1.0000
  H   H571      1.0  0.39382  0.85811  0.47114  1.0000
  C   C336      1.0  0.29205  0.51414  0.28225  1.0000
  C   C337      1.0  0.25067  0.51514  0.46091  1.0000
  H   H572      1.0  0.25277  0.52230  0.47669  1.0000
  C   C338      1.0  0.47035  0.91326  0.41017  1.0000
  Fe  Fe51      1.0  0.49657  0.76945  0.35197  1.0000
  C   C339      1.0  0.48969  0.87324  0.35231  1.0000
  C   C340      1.0  0.37746  0.87683  0.49675  1.0000
  C   C341      1.0  0.41037  0.56246  0.01394  1.0000
  C   C342      1.0  0.45503  0.54093  0.21650  1.0000
  H   H573      1.0  0.45202  0.97895  0.47027  1.0000
  C   C343      1.0  0.48184  0.73419  0.15487  1.0000
  H   H574      1.0  0.25682  0.52647  0.44835  1.0000
  Fe  Fe52      1.0  0.36291  0.53082  0.21143  1.0000
  S   S99       1.0  0.37378  0.56467  0.20542  1.0000
  H   H575      1.0  0.41704  0.65120  0.26476  1.0000
  Fe  Fe53      1.0  0.35858  0.79823  0.48936  1.0000
  S   S100      1.0  0.36759  0.80614  0.45490  1.0000
  H   H576      1.0  0.44235  0.67814  0.24315  1.0000
  C   C344      1.0  0.37774  0.86478  0.47554  1.0000
  H   H577      1.0  0.39196  0.96820  0.42255  1.0000
  S   S101      1.0  0.47630  0.84981  0.34593  1.0000
  C   C345      1.0  0.41772  0.65391  0.28224  1.0000
  H   H578      1.0  0.25915  0.66336  0.48245  1.0000
  S   S102      1.0  0.43292  0.62216  0.01490  1.0000
  Fe  Fe54      1.0  0.47753  0.78457  0.39556  1.0000
  S   S103      1.0  0.46133  0.77458  0.42694  1.0000
  S   S104      1.0  0.46635  0.78804  0.36173  1.0000
  H   H579      1.0  0.45731  0.63195  0.30612  1.0000
  H   H580      1.0  0.38778  0.96023  0.46152  1.0000
  S   S105      1.0  0.47457  0.64246  0.15308  1.0000
  H   H581      1.0  0.39570  0.90220  0.46301  1.0000
  H   H582      1.0  0.36503  0.92322  0.45655  1.0000
  S   S106      1.0  0.33480  0.51756  0.05922  1.0000
  Fe  Fe55      1.0  0.47678  0.62050  0.23031  1.0000
  S   S107      1.0  0.45516  0.59859  0.24977  1.0000
  S   S108      1.0  0.46475  0.65038  0.21359  1.0000
  C   C346      1.0  0.49431  0.91175  0.34673  1.0000
  C   C347      1.0  0.44567  0.51591  0.25664  1.0000
  C   C348      1.0  0.45172  0.71036  0.18709  1.0000
  H   H583      1.0  0.49539  0.80730  0.44966  1.0000
  C   C349      1.0  0.26779  0.65248  0.47118  1.0000
  S   S109      1.0  0.35865  0.51249  0.24268  1.0000
  C   C350      1.0  0.39392  0.79810  0.44725  1.0000
  C   C351      1.0  0.40201  0.80313  0.42658  1.0000
  C   C352      1.0  0.42283  0.79635  0.42017  1.0000
  C   C353      1.0  0.43552  0.78431  0.43437  1.0000
  C   C354      1.0  0.42748  0.77949  0.45506  1.0000
  C   C355      1.0  0.40685  0.78650  0.46155  1.0000
  H   H584      1.0  0.39209  0.81209  0.41545  1.0000
  H   H585      1.0  0.42890  0.80009  0.40416  1.0000
  H   H586      1.0  0.43716  0.77011  0.46607  1.0000
  H   H587      1.0  0.40086  0.78266  0.47753  1.0000
  C   C356      1.0  0.25044  0.67109  0.41476  1.0000
  C   C357      1.0  0.26069  0.72811  0.49915  1.0000
  C   C358      1.0  0.43134  0.59431  0.01364  1.0000
  H   H588      1.0  0.39724  0.59452  0.01822  1.0000
  C   C359      1.0  0.39668  0.57340  0.21777  1.0000
  C   C360      1.0  0.40917  0.58890  0.20721  1.0000
  C   C361      1.0  0.42723  0.59660  0.21681  1.0000
  C   C362      1.0  0.43259  0.58927  0.23731  1.0000
  C   C363      1.0  0.41992  0.57403  0.24805  1.0000
  C   C364      1.0  0.40222  0.56582  0.23817  1.0000
  H   H589      1.0  0.40488  0.59492  0.19149  1.0000
  H   H590      1.0  0.43688  0.60834  0.20838  1.0000
  H   H591      1.0  0.42386  0.56849  0.26401  1.0000
  H   H592      1.0  0.39253  0.55409  0.24653  1.0000
  C   C365      1.0  0.45709  0.65638  0.27874  1.0000
  H   H593      1.0  0.36698  0.55539  0.04459  1.0000
  S   S110      1.0  0.41706  0.96394  0.49603  1.0000
  H   H594      1.0  0.43139  0.56621  0.10209  1.0000
  C   C366      1.0  0.49742  0.72864  0.30691  1.0000
  H   H595      1.0  0.40186  0.62398  0.28832  1.0000
  Fe  Fe56      1.0  0.35221  0.50594  0.02901  1.0000
  C   C367      1.0  0.33749  0.50841  0.12389  1.0000
  Fe  Fe57      1.0  0.46221  0.98922  0.38933  1.0000
  C   C368      1.0  0.48734  0.64562  0.08897  1.0000
  S   S111      1.0  0.48488  0.70026  0.24093  1.0000
  H   H596      1.0  0.47822  0.64486  0.07465  1.0000
  S   S112      1.0  0.38393  0.50559  0.19610  1.0000
  N   N25       1.0  0.45502  0.51676  0.21610  1.0000
  H   H597      1.0  0.39417  0.57614  0.12230  1.0000
  H   H598      1.0  0.41994  0.69793  0.28302  1.0000
  C   C369      1.0  0.47719  0.64310  0.10925  1.0000
  C   C370      1.0  0.34221  0.50772  0.08489  1.0000
  C   C371      1.0  0.48867  0.64426  0.12806  1.0000
  H   H599      1.0  0.44176  0.53309  0.25922  1.0000
  H   H600      1.0  0.47321  0.89292  0.32889  1.0000
  S   S113      1.0  0.49749  0.60985  0.20243  1.0000
  H   H601      1.0  0.28492  0.53412  0.30939  1.0000
  S   S114      1.0  0.47921  0.98654  0.35716  1.0000
  H   H602      1.0  0.41486  0.50547  0.06295  1.0000
  H   H603      1.0  0.42524  0.52093  0.08341  1.0000
  C   C372      1.0  0.38463  0.56155  0.12351  1.0000
  H   H604      1.0  0.40258  0.66268  0.28688  1.0000
  C   C373      1.0  0.43896  0.97633  0.45987  1.0000
  H   H605      1.0  0.47600  0.72142  0.11362  1.0000
  C   C374      1.0  0.43661  0.67121  0.31070  1.0000
  H   H606      1.0  0.43763  0.65629  0.32057  1.0000
  H   H607      1.0  0.47442  0.68472  0.18052  1.0000
  H   H608      1.0  0.46026  0.64039  0.11035  1.0000
  H   H609      1.0  0.48221  0.64492  0.30039  1.0000
  S   S115      1.0  0.33253  0.51952  0.19761  1.0000
  C   C375      1.0  0.38946  0.91008  0.47775  1.0000
  H   H610      1.0  0.45179  0.70250  0.31277  1.0000
  S   S116      1.0  0.25060  0.51543  0.33407  1.0000
  H   H611      1.0  0.46556  0.74096  0.15171  1.0000
  H   H612      1.0  0.26152  0.65956  0.40632  1.0000
  H   H613      1.0  0.44904  0.72783  0.18453  1.0000
  H   H614      1.0  0.45550  0.98860  0.43192  1.0000
  H   H615      1.0  0.47593  0.75414  0.18308  1.0000
  H   H616      1.0  0.44952  0.71008  0.14461  1.0000
  H   H617      1.0  0.46854  0.56960  0.20208  1.0000
  C   C376      1.0  0.43024  0.68838  0.25150  1.0000
  S   S117      1.0  0.42755  0.98378  0.39690  1.0000
  H   H618      1.0  0.47901  0.92287  0.39779  1.0000
  S   S118      1.0  0.48585  0.96819  0.40667  1.0000
  H   H619      1.0  0.31133  0.90075  0.49066  1.0000
  H   H620      1.0  0.47686  0.91723  0.42582  1.0000
  C   C377      1.0  0.46545  0.70203  0.14205  1.0000
  C   C378      1.0  0.42433  0.97823  0.42443  1.0000
  H   H621      1.0  0.46078  0.55133  0.18280  1.0000
  H   H622      1.0  0.32952  0.51497  0.13797  1.0000
  H   H623      1.0  0.48531  0.70694  0.19196  1.0000
  H   H624      1.0  0.26117  0.63627  0.47258  1.0000
  H   H625      1.0  0.38729  0.55410  0.13960  1.0000
  N   N26       1.0  0.39088  0.55311  0.08333  1.0000
  C   C379      1.0  0.36858  0.56174  0.07925  1.0000
  C   C380      1.0  0.39134  0.54516  0.10634  1.0000
  C   C381      1.0  0.39586  0.53478  0.06836  1.0000
  C   C382      1.0  0.40591  0.57117  0.07891  1.0000
  C   C383      1.0  0.36399  0.56858  0.05588  1.0000
  Fe  Fe58      1.0  0.49211  0.66656  0.22821  1.0000
  H   H626      1.0  0.39960  0.92421  0.47882  1.0000
  C   C384      1.0  0.42928  0.56656  0.08454  1.0000
  H   H627      1.0  0.35666  0.54972  0.08437  1.0000
  H   H628      1.0  0.36461  0.57613  0.08887  1.0000
  H   H629      1.0  0.40750  0.53899  0.11053  1.0000
  H   H630      1.0  0.38063  0.53135  0.10882  1.0000
  H   H631      1.0  0.38099  0.52698  0.06397  1.0000
  H   H632      1.0  0.40305  0.54070  0.05292  1.0000
  H   H633      1.0  0.40608  0.57615  0.06169  1.0000
  H   H634      1.0  0.40034  0.58549  0.08796  1.0000
  H   H635      1.0  0.34682  0.57326  0.05487  1.0000
  H   H636      1.0  0.47325  0.74071  0.25979  1.0000
  H   H637      1.0  0.46278  0.68470  0.14502  1.0000
  H   H638      1.0  0.37147  0.87493  0.46220  1.0000
  H   H639      1.0  0.41918  0.87896  0.48294  1.0000
  C   C385      1.0  0.46821  0.55227  0.19856  1.0000
  Fe  Fe59      1.0  0.46737  0.62987  0.01044  1.0000
  C   C386      1.0  0.48229  0.73147  0.27146  1.0000
  C   C387      1.0  0.49031  0.71083  0.26638  1.0000
  H   H640      1.0  0.43871  0.58027  0.07830  1.0000
  H   H641      1.0  0.43639  0.55238  0.07655  1.0000
  H   H642      1.0  0.48500  0.54619  0.19763  1.0000
  H   H643      1.0  0.49049  0.92654  0.33806  1.0000
  H   H644      1.0  0.44969  0.70680  0.20453  1.0000
  H   H645      1.0  0.32059  0.52942  0.10174  1.0000
  H   H646      1.0  0.45473  0.68522  0.33564  1.0000
  C   C388      1.0  0.41975  0.96875  0.46842  1.0000
  C   C389      1.0  0.48460  0.89267  0.34150  1.0000
  H   H647      1.0  0.47853  0.78326  0.47138  1.0000
  C   C390      1.0  0.44631  0.51089  0.19492  1.0000
  H   H648      1.0  0.43584  0.50671  0.26854  1.0000
  H   H649      1.0  0.27622  0.69409  0.41725  1.0000
  H   H650      1.0  0.41702  0.63134  0.31030  1.0000
  C   C391      1.0  0.45450  0.68550  0.31789  1.0000
  H   H651      1.0  0.43181  0.70489  0.24469  1.0000
  H   H652      1.0  0.45464  0.64911  0.26299  1.0000
  S   S119      1.0  0.48221  0.66213  0.01105  1.0000
  H   H653      1.0  0.42115  0.67899  0.31599  1.0000
  H   H654      1.0  0.48605  0.51793  0.22987  1.0000
  H   H655      1.0  0.46263  0.51240  0.26010  1.0000
  C   C392      1.0  0.25965  0.69360  0.41175  1.0000
  H   H656      1.0  0.43065  0.51943  0.19244  1.0000
  H   H657      1.0  0.46940  0.66856  0.27549  1.0000
  H   H658      1.0  0.30443  0.52422  0.27564  1.0000
  C   C393      1.0  0.41031  0.51594  0.07654  1.0000
  N   N27       1.0  0.43662  0.66705  0.28705  1.0000
  N   N28       1.0  0.43504  0.91644  0.38981  1.0000
  C   C394      1.0  0.44604  0.91825  0.41077  1.0000
  C   C395      1.0  0.41193  0.92308  0.39356  1.0000
  C   C396      1.0  0.44545  0.93170  0.37381  1.0000
  C   C397      1.0  0.43795  0.89359  0.38278  1.0000
  H   H659      1.0  0.28456  0.75243  0.49690  1.0000
  C   C398      1.0  0.39927  0.90937  0.41007  1.0000
  C   C399      1.0  0.43221  0.93996  0.35476  1.0000
  C   C400      1.0  0.42638  0.88734  0.36266  1.0000
  H   H660      1.0  0.44342  0.93469  0.41712  1.0000
  H   H661      1.0  0.43934  0.90710  0.42319  1.0000
  H   H662      1.0  0.40290  0.92320  0.37864  1.0000
  H   H663      1.0  0.41066  0.93996  0.39883  1.0000
  H   H664      1.0  0.45048  0.94636  0.38174  1.0000
  H   H665      1.0  0.46032  0.92438  0.36701  1.0000
  H   H666      1.0  0.45508  0.88973  0.37911  1.0000
  H   H667      1.0  0.43400  0.88189  0.39595  1.0000
  H   H668      1.0  0.47411  0.89600  0.40773  1.0000
  N   N29       1.0  0.48129  0.71010  0.15740  1.0000
  C   C401      1.0  0.40276  0.96583  0.45496  1.0000
  H   H669      1.0  0.40018  0.89212  0.40635  1.0000
  H   H670      1.0  0.40446  0.91182  0.42654  1.0000
  H   H671      1.0  0.38219  0.91460  0.40981  1.0000
  H   H672      1.0  0.42534  0.92696  0.34589  1.0000
  H   H673      1.0  0.44275  0.94891  0.34332  1.0000
  H   H674      1.0  0.41937  0.95148  0.36007  1.0000
  H   H675      1.0  0.43604  0.89115  0.34794  1.0000
  H   H676      1.0  0.41018  0.89461  0.36141  1.0000
  H   H677      1.0  0.42405  0.86978  0.36336  1.0000
  C   C402      1.0  0.26786  0.66174  0.44804  1.0000
  S   S120      1.0  0.35787  0.98531  0.48969  1.0000
  C   C403      1.0  0.42886  0.54983  0.01016  1.0000
  C   C404      1.0  0.43370  0.68863  0.27577  1.0000
  H   H678      1.0  0.49187  0.73874  0.14055  1.0000
  C   C405      1.0  0.46765  0.63887  0.29333  1.0000
  C   C406      1.0  0.26465  0.50693  0.31031  1.0000
  Fe  Fe60      1.0  0.48687  0.81734  0.36006  1.0000
  H   H679      1.0  0.39515  0.55520  0.01555  1.0000
  H   H680      1.0  0.37311  0.58272  0.05049  1.0000
  C   C407      1.0  0.41696  0.63131  0.29262  1.0000
  S   S121      1.0  0.49033  0.61358  0.03266  1.0000
  H   H681      1.0  0.27934  0.65161  0.43841  1.0000
  C   C408      1.0  0.44106  0.98151  0.43802  1.0000
  H   H682      1.0  0.47046  0.67983  0.31198  1.0000
  H   H683      1.0  0.41400  0.68331  0.24793  1.0000
  C   C409      1.0  0.40512  0.97040  0.43292  1.0000
  H   H684      1.0  0.43923  0.70164  0.17910  1.0000
  C   C410      1.0  0.48574  0.78495  0.48716  1.0000
  C   C411      1.0  0.33240  0.51651  0.10334  1.0000
  Fe  Fe61      1.0  0.48762  0.64117  0.18661  1.0000
  H   H685      1.0  0.36736  0.56589  0.12315  1.0000
  H   H686      1.0  0.44786  0.69855  0.27767  1.0000
  H   H687      1.0  0.47947  0.75619  0.29518  1.0000
  C   C412      1.0  0.36680  0.91957  0.47388  1.0000
  H   H688      1.0  0.48363  0.69310  0.11266  1.0000
  H   H689      1.0  0.46138  0.54647  0.23173  1.0000
  H   H690      1.0  0.47324  0.62519  0.28341  1.0000
  C   C413      1.0  0.47110  0.70496  0.11796  1.0000
  H   H691      1.0  0.27505  0.67770  0.44889  1.0000
  H   H692      1.0  0.36705  0.85099  0.47743  1.0000
  H   H693      1.0  0.48832  0.75292  0.45926  1.0000
  H   H694      1.0  0.43845  0.54773  0.21572  1.0000
  H   H695      1.0  0.40160  0.50590  0.08863  1.0000
  H   H696      1.0  0.26028  0.69799  0.39441  1.0000
  H   H697      1.0  0.28446  0.65093  0.47656  1.0000
  H   H698      1.0  0.46296  0.54979  0.00540  1.0000
  S   S122      1.0  0.49552  0.81492  0.39447  1.0000
  H   H699      1.0  0.48675  0.50953  0.20299  1.0000
  H   H700      1.0  0.35401  0.90843  0.47834  1.0000
  C   C414      1.0  0.44981  0.58158  0.01011  1.0000
  H   H701      1.0  0.36380  0.93450  0.48291  1.0000
  H   H702      1.0  0.46510  0.58871  0.00829  1.0000
  C   C415      1.0  0.44005  0.50942  0.23396  1.0000
  H   H703      1.0  0.48294  0.80220  0.49079  1.0000
  H   H704      1.0  0.42345  0.51554  0.23109  1.0000
  C   C416      1.0  0.47758  0.50804  0.21848  1.0000
  H   H705      1.0  0.24996  0.62872  0.43649  1.0000
  H   H706      1.0  0.43251  0.91580  0.48761  1.0000
  H   H707      1.0  0.49781  0.52832  0.00513  1.0000
  H   H708      1.0  0.36674  0.50396  0.29742  1.0000
  C   C417      1.0  0.44859  0.55941  0.00842  1.0000
  N   N30       1.0  0.39179  0.89568  0.49728  1.0000
  C   C418      1.0  0.41453  0.88720  0.49800  1.0000
  C   C419      1.0  0.41157  0.58471  0.01560  1.0000
  Fe  Fe62      1.0  0.39501  0.50950  0.00536  1.0000
  S   S123      1.0  0.36449  0.52885  0.00349  1.0000
  H   H709      1.0  0.36067  0.88165  0.50071  1.0000
  H   H710      1.0  0.47368  0.75439  0.50054  1.0000
  S   S124      1.0  0.42783  0.52222  0.00666  1.0000
  H   H711      1.0  0.49933  0.76013  0.16792  1.0000
  C   C420      1.0  0.43158  0.90398  0.50114  1.0000
  H   H712      1.0  0.45498  0.77652  0.50136  1.0000
  H   H713      1.0  0.29514  0.55490  0.79608  1.0000
  H   H714      1.0  0.33202  0.54073  0.70887  1.0000
  C   C421      1.0  0.25827  0.77714  0.55044  1.0000
  S   S125      1.0  0.48478  0.61952  0.98049  1.0000
  C   C422      1.0  0.48943  0.70089  0.74619  1.0000
  S   S126      1.0  0.31187  0.74403  0.53397  1.0000
  H   H715      1.0  0.48779  0.71591  0.85097  1.0000
  C   C423      1.0  0.38874  0.57512  0.95966  1.0000
  H   H716      1.0  0.29763  0.55981  0.71080  1.0000
  S   S127      1.0  0.46772  0.94650  0.67899  1.0000
  H   H717      1.0  0.42268  0.54970  0.96502  1.0000
  H   H718      1.0  0.44842  0.76135  0.83659  1.0000
  H   H719      1.0  0.41637  0.87466  0.51088  1.0000
  H   H720      1.0  0.43863  0.59045  0.94068  1.0000
  S   S128      1.0  0.36913  0.96029  0.53559  1.0000
  H   H721      1.0  0.40308  0.53587  0.90487  1.0000
  S   S129      1.0  0.48789  0.81344  0.62586  1.0000
  C   C424      1.0  0.47623  0.70686  0.81021  1.0000
  H   H722      1.0  0.35771  0.58891  0.96916  1.0000
  S   S130      1.0  0.48504  0.76611  0.65024  1.0000
  H   H723      1.0  0.40721  0.99376  0.55859  1.0000
  Fe  Fe63      1.0  0.46513  0.79659  0.64821  1.0000
  S   S131      1.0  0.43026  0.79793  0.64039  1.0000
  S   S132      1.0  0.47774  0.81025  0.67820  1.0000
  H   H724      1.0  0.28873  0.77122  0.57924  1.0000
  H   H725      1.0  0.38862  0.53429  0.95253  1.0000
  C   C425      1.0  0.26776  0.80686  0.52511  1.0000
  Fe  Fe64      1.0  0.48495  0.63717  0.83262  1.0000
  C   C426      1.0  0.41857  0.57506  0.90438  1.0000
  S   S133      1.0  0.46843  0.64336  0.86487  1.0000
  Fe  Fe65      1.0  0.48219  0.60513  0.79664  1.0000
  S   S134      1.0  0.46889  0.57356  0.78720  1.0000
  S   S135      1.0  0.46471  0.63609  0.80363  1.0000
  Fe  Fe66      1.0  0.36343  0.51973  0.80315  1.0000
  H   H726      1.0  0.30945  0.78945  0.58254  1.0000
  S   S136      1.0  0.37095  0.55468  0.80463  1.0000
  H   H727      1.0  0.32733  0.57650  0.72098  1.0000
  C   C427      1.0  0.29239  0.78848  0.57861  1.0000
  C   C428      1.0  0.40155  0.57943  0.92239  1.0000
  H   H728      1.0  0.28671  0.55472  0.73747  1.0000
  H   H729      1.0  0.44360  0.68700  0.79467  1.0000
  H   H730      1.0  0.35553  0.58654  0.77339  1.0000
  Fe  Fe67      1.0  0.34143  0.81907  0.52964  1.0000
  C   C429      1.0  0.29554  0.56623  0.72715  1.0000
  C   C430      1.0  0.33638  0.52867  0.72142  1.0000
  S   S137      1.0  0.32936  0.84807  0.54790  1.0000
  S   S138      1.0  0.34385  0.51875  0.94798  1.0000
  H   H731      1.0  0.28663  0.56588  0.77117  1.0000
  Fe  Fe68      1.0  0.37831  0.78599  0.53145  1.0000
  S   S139      1.0  0.41048  0.77659  0.54464  1.0000
  S   S140      1.0  0.34703  0.78890  0.54939  1.0000
  H   H732      1.0  0.39504  0.59102  0.96317  1.0000
  H   H733      1.0  0.30999  0.52949  0.74387  1.0000
  C   C431      1.0  0.34469  0.50385  0.92426  1.0000
  S   S141      1.0  0.36506  0.76633  0.50576  1.0000
  H   H734      1.0  0.36875  0.91403  0.51623  1.0000
  H   H735      1.0  0.29200  0.83183  0.52561  1.0000
  C   C432      1.0  0.44159  0.56877  0.79231  1.0000
  C   C433      1.0  0.43397  0.54845  0.78841  1.0000
  C   C434      1.0  0.41241  0.54396  0.79243  1.0000
  C   C435      1.0  0.39818  0.55991  0.80002  1.0000
  C   C436      1.0  0.40571  0.58033  0.80373  1.0000
  C   C437      1.0  0.42740  0.58471  0.80006  1.0000
  H   H736      1.0  0.44472  0.53614  0.78216  1.0000
  H   H737      1.0  0.40680  0.52818  0.78946  1.0000
  H   H738      1.0  0.39478  0.59275  0.80959  1.0000
  H   H739      1.0  0.43307  0.60044  0.80307  1.0000
  C   C438      1.0  0.42508  0.79272  0.61353  1.0000
  C   C439      1.0  0.44071  0.78303  0.60020  1.0000
  C   C440      1.0  0.43608  0.77832  0.57905  1.0000
  C   C441      1.0  0.41595  0.78359  0.57096  1.0000
  C   C442      1.0  0.40047  0.79375  0.58411  1.0000
  C   C443      1.0  0.40495  0.79804  0.60542  1.0000
  H   H740      1.0  0.45628  0.77890  0.60630  1.0000
  H   H741      1.0  0.44816  0.77056  0.56895  1.0000
  H   H742      1.0  0.38500  0.79814  0.57795  1.0000
  H   H743      1.0  0.39286  0.80564  0.61563  1.0000
  H   H744      1.0  0.42911  0.91252  0.51635  1.0000
  H   H745      1.0  0.42194  0.70083  0.80908  1.0000
  H   H746      1.0  0.28312  0.79705  0.59128  1.0000
  C   C444      1.0  0.25718  0.50251  0.74584  1.0000
  C   C445      1.0  0.48237  0.73024  0.72005  1.0000
  S   S142      1.0  0.32518  0.80227  0.50368  1.0000
  H   H747      1.0  0.44747  0.89565  0.50181  1.0000
  C   C446      1.0  0.32754  0.87397  0.53582  1.0000
  C   C447      1.0  0.33246  0.89175  0.54774  1.0000
  C   C448      1.0  0.33038  0.91267  0.53895  1.0000
  H   H748      1.0  0.33787  0.88934  0.56390  1.0000
  H   H749      1.0  0.33415  0.92624  0.54832  1.0000
  C   C449      1.0  0.47568  0.71204  0.73206  1.0000
  H   H750      1.0  0.37508  0.54710  0.93079  1.0000
  C   C450      1.0  0.34522  0.51478  0.90431  1.0000
  C   C451      1.0  0.28206  0.71271  0.53501  1.0000
  Fe  Fe69      1.0  0.47935  0.97890  0.66713  1.0000
  H   H751      1.0  0.40562  0.89251  0.54130  1.0000
  C   C452      1.0  0.48394  0.88307  0.67500  1.0000
  C   C453      1.0  0.47419  0.90275  0.68101  1.0000
  H   H752      1.0  0.48054  0.86854  0.68411  1.0000
  H   H753      1.0  0.46309  0.90317  0.69461  1.0000
  H   H754      1.0  0.37576  0.58610  0.75302  1.0000
  C   C454      1.0  0.41411  0.95791  0.65534  1.0000
  C   C455      1.0  0.42366  0.55984  0.95009  1.0000
  H   H755      1.0  0.27121  0.76507  0.54671  1.0000
  H   H756      1.0  0.37886  0.88258  0.54027  1.0000
  H   H757      1.0  0.34571  0.53207  0.90366  1.0000
  C   C456      1.0  0.49922  0.71290  0.66960  1.0000
  C   C457      1.0  0.47926  0.92192  0.67003  1.0000
  C   C458      1.0  0.38870  0.89696  0.53847  1.0000
  H   H758      1.0  0.46802  0.71547  0.79680  1.0000
  H   H759      1.0  0.35399  0.52658  0.72187  1.0000
  C   C459      1.0  0.48139  0.64916  0.88861  1.0000
  C   C460      1.0  0.47049  0.64596  0.90834  1.0000
  C   C461      1.0  0.47976  0.65119  0.92760  1.0000
  H   H760      1.0  0.45473  0.63947  0.90873  1.0000
  H   H761      1.0  0.47114  0.64869  0.94267  1.0000
  Fe  Fe70      1.0  0.35554  0.50479  0.97949  1.0000
  H   H762      1.0  0.43629  0.68802  0.84378  1.0000
  H   H763      1.0  0.28999  0.70679  0.54916  1.0000
  C   C462      1.0  0.26401  0.70219  0.52829  1.0000
  C   C463      1.0  0.43392  0.68741  0.80982  1.0000
  H   H764      1.0  0.29562  0.81511  0.55669  1.0000
  H   H765      1.0  0.35005  0.59732  0.74680  1.0000
  C   C464      1.0  0.28916  0.79877  0.55615  1.0000
  H   H766      1.0  0.40955  0.95459  0.67240  1.0000
  H   H767      1.0  0.44741  0.89973  0.64146  1.0000
  H   H768      1.0  0.47046  0.75210  0.82042  1.0000
  S   S143      1.0  0.49659  0.98266  0.63556  1.0000
  H   H769      1.0  0.39470  0.92368  0.51658  1.0000
  H   H770      1.0  0.45964  0.70664  0.73048  1.0000
  C   C465      1.0  0.27898  0.73845  0.50568  1.0000
  H   H771      1.0  0.25830  0.68834  0.53723  1.0000
  C   C466      1.0  0.29788  0.55398  0.77848  1.0000
  C   C467      1.0  0.32120  0.55939  0.77305  1.0000
  H   H772      1.0  0.41851  0.52304  0.92627  1.0000
  C   C468      1.0  0.34471  0.50351  0.88514  1.0000
  H   H773      1.0  0.31593  0.86373  0.50590  1.0000
  H   H774      1.0  0.27842  0.79570  0.51573  1.0000
  C   C469      1.0  0.27542  0.82984  0.52072  1.0000
  H   H775      1.0  0.39292  0.51415  0.92035  1.0000
  H   H776      1.0  0.47913  0.69022  0.80467  1.0000
  S   S144      1.0  0.33274  0.99997  0.53399  1.0000
  S   S145      1.0  0.36887  0.99766  0.58506  1.0000
  H   H777      1.0  0.40343  0.59628  0.92724  1.0000
  H   H778      1.0  0.33436  0.52322  0.75555  1.0000
  S   S146      1.0  0.33055  0.50707  0.80970  1.0000
  Fe  Fe71      1.0  0.38635  0.97814  0.50931  1.0000
  H   H779      1.0  0.36150  0.54984  0.75894  1.0000
  H   H780      1.0  0.38625  0.71904  0.52239  1.0000
  H   H781      1.0  0.42927  0.56094  0.90700  1.0000
  C   C470      1.0  0.46386  0.70265  0.87180  1.0000
  C   C471      1.0  0.49887  0.88244  0.65793  1.0000
  H   H782      1.0  0.34289  0.68010  0.57320  1.0000
  H   H783      1.0  0.41060  0.57276  0.88904  1.0000
  H   H784      1.0  0.32281  0.57603  0.77845  1.0000
  S   S147      1.0  0.47960  0.67843  0.76135  1.0000
  H   H785      1.0  0.38573  0.57956  0.91484  1.0000
  H   H786      1.0  0.35905  0.56040  0.73246  1.0000
  H   H787      1.0  0.49903  0.73187  0.81814  1.0000
  Fe  Fe72      1.0  0.34011  0.96886  0.51697  1.0000
  H   H788      1.0  0.31445  0.58861  0.74356  1.0000
  C   C472      1.0  0.31719  0.57302  0.73554  1.0000
  N   N31       1.0  0.36803  0.71749  0.56719  1.0000
  C   C473      1.0  0.35263  0.73301  0.57827  1.0000
  C   C474      1.0  0.35555  0.70549  0.55146  1.0000
  C   C475      1.0  0.38489  0.73038  0.55544  1.0000
  C   C476      1.0  0.37777  0.70296  0.58412  1.0000
  H   H789      1.0  0.25297  0.77344  0.56726  1.0000
  C   C477      1.0  0.33725  0.69211  0.56111  1.0000
  C   C478      1.0  0.39682  0.71999  0.53619  1.0000
  C   C479      1.0  0.39254  0.68431  0.57649  1.0000
  H   H790      1.0  0.34343  0.74267  0.56627  1.0000
  H   H791      1.0  0.34060  0.72442  0.58838  1.0000
  H   H792      1.0  0.36582  0.69439  0.54186  1.0000
  H   H793      1.0  0.34862  0.71691  0.53937  1.0000
  H   H794      1.0  0.37768  0.74559  0.54880  1.0000
  H   H795      1.0  0.39722  0.73528  0.56658  1.0000
  H   H796      1.0  0.38769  0.71231  0.59468  1.0000
  H   H797      1.0  0.36541  0.69633  0.59539  1.0000
  H   H798      1.0  0.42494  0.67238  0.81074  1.0000
  C   C480      1.0  0.36254  0.74906  0.59309  1.0000
  H   H799      1.0  0.35599  0.56396  0.95654  1.0000
  H   H800      1.0  0.47147  0.73868  0.70947  1.0000
  C   C481      1.0  0.32274  0.91603  0.51833  1.0000
  C   C482      1.0  0.35233  0.56184  0.74904  1.0000
  C   C483      1.0  0.40251  0.52872  0.92126  1.0000
  H   H801      1.0  0.26176  0.83023  0.56378  1.0000
  H   H802      1.0  0.40393  0.70401  0.54004  1.0000
  H   H803      1.0  0.40917  0.68959  0.57393  1.0000
  H   H804      1.0  0.38727  0.67671  0.56194  1.0000
  H   H805      1.0  0.39246  0.67127  0.58893  1.0000
  H   H806      1.0  0.45273  0.57424  0.95988  1.0000
  H   H807      1.0  0.37014  0.74103  0.60704  1.0000
  C   C484      1.0  0.32675  0.53431  0.74364  1.0000
  C   C485      1.0  0.43656  0.57965  0.95488  1.0000
  H   H808      1.0  0.45705  0.67285  0.83083  1.0000
  H   H809      1.0  0.45347  0.68870  0.87372  1.0000
  H   H810      1.0  0.33031  0.51305  0.71668  1.0000
  H   H811      1.0  0.45453  0.71768  0.87492  1.0000
  H   H812      1.0  0.38160  0.86471  0.50944  1.0000
  H   H813      1.0  0.33130  0.54905  0.78372  1.0000
  Fe  Fe73      1.0  0.33291  0.77164  0.52226  1.0000
  H   H814      1.0  0.47571  0.70072  0.88459  1.0000
  Fe  Fe74      1.0  0.49161  0.65250  0.78547  1.0000
  H   H815      1.0  0.29411  0.53746  0.77430  1.0000
  H   H816      1.0  0.29995  0.78971  0.54490  1.0000
  H   H817      1.0  0.40723  0.92557  0.64753  1.0000
  C   C486      1.0  0.28971  0.73087  0.52379  1.0000
  H   H818      1.0  0.37417  0.75931  0.58442  1.0000
  H   H819      1.0  0.46999  0.74743  0.84928  1.0000
  H   H820      1.0  0.49763  0.57829  0.91745  1.0000
  H   H821      1.0  0.33017  0.68320  0.54811  1.0000
  H   H822      1.0  0.34490  0.51213  0.86989  1.0000
  H   H823      1.0  0.43381  0.55010  0.93908  1.0000
  N   N32       1.0  0.26663  0.79955  0.54831  1.0000
  C   C487      1.0  0.49339  0.92109  0.65229  1.0000
  C   C488      1.0  0.46041  0.74798  0.83471  1.0000
  H   H824      1.0  0.42937  0.58884  0.96834  1.0000
  C   C489      1.0  0.39115  0.54381  0.93735  1.0000
  C   C490      1.0  0.31745  0.89825  0.50653  1.0000
  N   N33       1.0  0.42727  0.93791  0.62135  1.0000
  C   C491      1.0  0.42077  0.93652  0.64482  1.0000
  C   C492      1.0  0.43096  0.91525  0.61396  1.0000
  C   C493      1.0  0.40900  0.94874  0.60963  1.0000
  C   C494      1.0  0.44701  0.95099  0.61914  1.0000
  H   H825      1.0  0.28489  0.58069  0.72538  1.0000
  C   C495      1.0  0.44978  0.90253  0.62399  1.0000
  C   C496      1.0  0.40784  0.94499  0.58543  1.0000
  C   C497      1.0  0.45850  0.95208  0.59699  1.0000
  C   C498      1.0  0.38577  0.90860  0.51665  1.0000
  C   C499      1.0  0.25307  0.70992  0.51041  1.0000
  H   H826      1.0  0.43390  0.91459  0.59644  1.0000
  H   H827      1.0  0.41634  0.90588  0.61711  1.0000
  H   H828      1.0  0.39338  0.94358  0.61665  1.0000
  H   H829      1.0  0.40901  0.96636  0.61159  1.0000
  H   H830      1.0  0.44324  0.96796  0.62321  1.0000
  H   H831      1.0  0.45895  0.94578  0.63115  1.0000
  H   H832      1.0  0.40010  0.96593  0.64784  1.0000
  H   H833      1.0  0.48246  0.59670  0.93361  1.0000
  N   N34       1.0  0.32883  0.55720  0.75007  1.0000
  H   H834      1.0  0.45123  0.88643  0.61686  1.0000
  H   H835      1.0  0.46509  0.91038  0.62050  1.0000
  C   C500      1.0  0.49846  0.58879  0.93134  1.0000
  H   H836      1.0  0.40356  0.92832  0.58227  1.0000
  H   H837      1.0  0.42261  0.94907  0.57639  1.0000
  H   H838      1.0  0.39485  0.95548  0.57887  1.0000
  H   H839      1.0  0.45239  0.96602  0.58735  1.0000
  H   H840      1.0  0.45763  0.93740  0.58772  1.0000
  H   H841      1.0  0.47580  0.95411  0.59917  1.0000
  N   N35       1.0  0.46236  0.70687  0.83049  1.0000
  C   C501      1.0  0.44769  0.68826  0.82980  1.0000
  H   H842      1.0  0.38319  0.90796  0.55133  1.0000
  H   H843      1.0  0.32415  0.70236  0.56802  1.0000
  C   C502      1.0  0.44868  0.72713  0.83173  1.0000
  C   C503      1.0  0.36472  0.57912  0.95597  1.0000
  C   C504      1.0  0.47588  0.70333  0.84988  1.0000
  C   C505      1.0  0.35836  0.58432  0.75600  1.0000
  Fe  Fe75      1.0  0.36378  0.99247  0.55011  1.0000
  H   H844      1.0  0.49800  0.72907  0.67634  1.0000
  H   H845      1.0  0.34971  0.76000  0.59953  1.0000
  H   H846      1.0  0.42747  0.96903  0.65540  1.0000
  H   H847      1.0  0.43393  0.92952  0.65450  1.0000
  H   H848      1.0  0.42869  0.58922  0.90178  1.0000
  H   H849      1.0  0.38989  0.56538  0.97481  1.0000
  H   H850      1.0  0.43952  0.72976  0.81692  1.0000
  H   H851      1.0  0.43651  0.72574  0.84499  1.0000
  H   H852      1.0  0.41008  0.73037  0.53078  1.0000
  H   H853      1.0  0.36165  0.58810  0.94080  1.0000
  S   S148      1.0  0.37396  0.81741  0.51392  1.0000
  C   C506      1.0  0.48596  0.51177  0.78976  1.0000
  N   N36       1.0  0.40164  0.56451  0.94179  1.0000
  C   C507      1.0  0.32008  0.87727  0.51512  1.0000
  S   S149      1.0  0.31927  0.94214  0.50701  1.0000
  H   H854      1.0  0.25217  0.80623  0.51744  1.0000
  C   C508      1.0  0.41107  0.00073  0.57347  1.0000
  H   H855      1.0  0.48706  0.52414  0.77662  1.0000
  Fe  Fe76      1.0  0.49956  0.78055  0.67870  1.0000
  C   C509      1.0  0.49879  0.71582  0.81125  1.0000
  H   H856      1.0  0.25222  0.80844  0.57880  1.0000
  C   C510      1.0  0.47205  0.77181  0.50334  1.0000
  H   H857      1.0  0.48825  0.70282  0.67951  1.0000
  H   H858      1.0  0.48539  0.68797  0.84854  1.0000
  H   H859      1.0  0.49320  0.71353  0.65313  1.0000
  H   H860      1.0  0.27532  0.83340  0.50323  1.0000
  H   H861      1.0  0.47650  0.52032  0.80243  1.0000
  H   H862      1.0  0.26474  0.84202  0.52850  1.0000
  H   H863      1.0  0.49713  0.93560  0.64338  1.0000
  H   H864      1.0  0.47559  0.77514  0.52015  1.0000
  H   H865      1.0  0.49483  0.54545  0.81693  1.0000
  C   C511      1.0  0.25358  0.81484  0.56207  1.0000
  C   C512      1.0  0.51433  0.34778  0.29113  1.0000
  Fe  Fe77      1.0  0.60265  0.48531  0.02295  1.0000
  S   S150      1.0  0.56961  0.47404  0.03068  1.0000
  S   S151      1.0  0.63229  0.46435  0.02250  1.0000
  Fe  Fe78      1.0  0.52758  0.36782  0.02013  1.0000
  H   H866      1.0  0.69757  0.23152  0.49536  1.0000
  H   H867      1.0  0.58227  0.45361  0.13335  1.0000
  H   H868      1.0  0.50621  0.33656  0.30253  1.0000
  H   H869      1.0  0.57835  0.34389  0.26401  1.0000
  H   H870      1.0  0.63698  0.22827  0.46204  1.0000
  H   H871      1.0  0.53592  0.22884  0.48380  1.0000
  Fe  Fe79      1.0  0.52333  0.18664  0.39168  1.0000
  S   S152      1.0  0.55268  0.17333  0.40813  1.0000
  S   S153      1.0  0.51694  0.17652  0.35840  1.0000
  H   H872      1.0  0.51008  0.38274  0.28482  1.0000
  S   S154      1.0  0.52644  0.39846  0.24131  1.0000
  S   S155      1.0  0.51951  0.33597  0.22609  1.0000
  Fe  Fe80      1.0  0.62723  0.45996  0.21990  1.0000
  S   S156      1.0  0.62078  0.42500  0.21569  1.0000
  S   S157      1.0  0.65997  0.47338  0.21429  1.0000
  H   H873      1.0  0.50676  0.12430  0.34626  1.0000
  S   S158      1.0  0.59259  0.22340  0.48324  1.0000
  H   H874      1.0  0.52679  0.13230  0.39967  1.0000
  C   C513      1.0  0.58389  0.43505  0.01572  1.0000
  H   H875      1.0  0.73504  0.40441  0.39109  1.0000
  H   H876      1.0  0.64182  0.43001  0.08360  1.0000
  H   H877      1.0  0.68635  0.30464  0.48924  1.0000
  H   H878      1.0  0.73817  0.44609  0.31104  1.0000
  C   C514      1.0  0.50493  0.33826  0.10338  1.0000
  H   H879      1.0  0.63266  0.24774  0.49453  1.0000
  C   C515      1.0  0.55239  0.40567  0.23300  1.0000
  C   C516      1.0  0.55958  0.42564  0.23878  1.0000
  C   C517      1.0  0.58036  0.43179  0.23315  1.0000
  C   C518      1.0  0.59433  0.41780  0.22209  1.0000
  C   C519      1.0  0.58721  0.39772  0.21638  1.0000
  C   C520      1.0  0.56620  0.39173  0.22162  1.0000
  H   H880      1.0  0.54898  0.43648  0.24759  1.0000
  H   H881      1.0  0.58562  0.44730  0.23757  1.0000
  H   H882      1.0  0.59795  0.38683  0.20781  1.0000
  H   H883      1.0  0.56081  0.37627  0.21715  1.0000
  C   C521      1.0  0.56376  0.18769  0.42869  1.0000
  C   C522      1.0  0.55846  0.20934  0.43173  1.0000
  C   C523      1.0  0.56750  0.22025  0.44840  1.0000
  C   C524      1.0  0.58177  0.20954  0.46217  1.0000
  C   C525      1.0  0.58705  0.18790  0.45912  1.0000
  C   C526      1.0  0.57813  0.17705  0.44238  1.0000
  H   H884      1.0  0.54756  0.21771  0.42111  1.0000
  H   H885      1.0  0.56343  0.23702  0.45062  1.0000
  H   H886      1.0  0.59813  0.17952  0.46954  1.0000
  H   H887      1.0  0.58239  0.16034  0.44005  1.0000
  H   H888      1.0  0.71471  0.49369  0.16491  1.0000
  C   C527      1.0  0.51124  0.33980  0.12469  1.0000
  C   C528      1.0  0.57712  0.30924  0.02127  1.0000
  C   C529      1.0  0.51165  0.25481  0.28661  1.0000
  H   H889      1.0  0.62533  0.43995  0.11313  1.0000
  C   C530      1.0  0.59148  0.41947  0.09926  1.0000
  C   C531      1.0  0.50250  0.20967  0.45914  1.0000
  H   H890      1.0  0.57937  0.33445  0.04328  1.0000
  H   H891      1.0  0.53889  0.19152  0.47518  1.0000
  C   C532      1.0  0.51812  0.06013  0.41087  1.0000
  S   S159      1.0  0.51236  0.22080  0.38558  1.0000
  C   C533      1.0  0.50397  0.36992  0.29571  1.0000
  H   H892      1.0  0.66508  0.28056  0.45366  1.0000
  H   H893      1.0  0.65993  0.24335  0.48884  1.0000
  H   H894      1.0  0.51447  0.10215  0.42159  1.0000
  S   S160      1.0  0.66056  0.47461  0.07373  1.0000
  C   C534      1.0  0.64025  0.24564  0.46112  1.0000
  S   S161      1.0  0.51306  0.22577  0.32059  1.0000
  C   C535      1.0  0.63002  0.42736  0.07125  1.0000
  C   C536      1.0  0.64576  0.25305  0.48355  1.0000
  H   H895      1.0  0.63845  0.43009  0.05559  1.0000
  H   H896      1.0  0.62540  0.41041  0.07176  1.0000
  C   C537      1.0  0.56789  0.44649  0.02706  1.0000
  C   C538      1.0  0.56472  0.40229  0.02181  1.0000
  C   C539      1.0  0.54866  0.41379  0.03303  1.0000
  C   C540      1.0  0.55036  0.43581  0.03586  1.0000
  H   H897      1.0  0.53487  0.40580  0.03953  1.0000
  H   H898      1.0  0.53799  0.44456  0.04471  1.0000
  C   C541      1.0  0.65796  0.48262  0.13801  1.0000
  C   C542      1.0  0.66035  0.47371  0.11761  1.0000
  H   H899      1.0  0.66101  0.47280  0.15217  1.0000
  H   H900      1.0  0.66518  0.45701  0.11619  1.0000
  H   H901      1.0  0.71711  0.40223  0.33077  1.0000
  H   H902      1.0  0.59274  0.48510  0.07904  1.0000
  C   C543      1.0  0.57738  0.45567  0.09075  1.0000
  H   H903      1.0  0.56204  0.32019  0.28601  1.0000
  C   C544      1.0  0.59974  0.45093  0.13364  1.0000
  H   H904      1.0  0.56498  0.45177  0.10323  1.0000
  H   H905      1.0  0.59018  0.29809  0.02641  1.0000
  H   H906      1.0  0.53171  0.30106  0.04557  1.0000
  C   C545      1.0  0.52368  0.09838  0.40661  1.0000
  H   H907      1.0  0.55349  0.33180  0.03355  1.0000
  H   H908      1.0  0.60584  0.46458  0.14241  1.0000
  N   N37       1.0  0.53826  0.34554  0.29247  1.0000
  H   H909      1.0  0.54740  0.12137  0.41576  1.0000
  C   C546      1.0  0.54838  0.35971  0.27534  1.0000
  H   H910      1.0  0.73957  0.45859  0.33603  1.0000
  C   C547      1.0  0.54541  0.35013  0.31463  1.0000
  C   C548      1.0  0.60915  0.28669  0.48808  1.0000
  C   C549      1.0  0.57294  0.35814  0.27317  1.0000
  H   H911      1.0  0.53836  0.31841  0.27146  1.0000
  C   C550      1.0  0.54855  0.37389  0.31987  1.0000
  H   H912      1.0  0.71009  0.48014  0.25534  1.0000
  C   C551      1.0  0.55833  0.04985  0.38665  1.0000
  H   H913      1.0  0.54406  0.37682  0.27752  1.0000
  H   H914      1.0  0.54217  0.35621  0.25940  1.0000
  N   N38       1.0  0.53505  0.07675  0.40854  1.0000
  H   H915      1.0  0.70034  0.43372  0.32287  1.0000
  H   H916      1.0  0.53405  0.34338  0.32691  1.0000
  H   H917      1.0  0.56108  0.34176  0.31740  1.0000
  H   H918      1.0  0.54405  0.30718  0.31972  1.0000
  C   C552      1.0  0.54765  0.07236  0.38808  1.0000
  C   C553      1.0  0.55442  0.00741  0.42962  1.0000
  H   H919      1.0  0.57866  0.37236  0.26386  1.0000
  C   C554      1.0  0.57128  0.08406  0.42581  1.0000
  H   H920      1.0  0.71665  0.42433  0.36263  1.0000
  H   H921      1.0  0.50938  0.47531  0.03662  1.0000
  H   H922      1.0  0.52413  0.26877  0.06533  1.0000
  H   H923      1.0  0.50922  0.06516  0.44497  1.0000
  H   H924      1.0  0.68900  0.16147  0.48237  1.0000
  S   S162      1.0  0.65118  0.13207  0.49520  1.0000
  H   H925      1.0  0.56570  0.37769  0.31861  1.0000
  C   C555      1.0  0.50414  0.27323  0.27518  1.0000
  H   H926      1.0  0.53931  0.38581  0.31029  1.0000
  H   H927      1.0  0.60321  0.43588  0.14296  1.0000
  H   H928      1.0  0.52100  0.17385  0.44242  1.0000
  S   S163      1.0  0.51042  0.37044  0.05175  1.0000
  C   C556      1.0  0.66897  0.28139  0.47084  1.0000
  H   H929      1.0  0.51957  0.30467  0.30575  1.0000
  H   H930      1.0  0.54814  0.01100  0.41411  1.0000
  H   H931      1.0  0.58331  0.07076  0.42365  1.0000
  H   H932      1.0  0.72285  0.25719  0.47837  1.0000
  H   H933      1.0  0.58070  0.35783  0.28881  1.0000
  C   C557      1.0  0.73309  0.44451  0.32820  1.0000
  H   H934      1.0  0.69448  0.18796  0.47314  1.0000
  H   H935      1.0  0.52542  0.04382  0.41339  1.0000
  H   H936      1.0  0.57522  0.09149  0.44106  1.0000
  H   H937      1.0  0.54639  0.03771  0.38360  1.0000
  C   C558      1.0  0.64616  0.08847  0.49686  1.0000
  S   S164      1.0  0.56227  0.37486  0.01781  1.0000
  H   H938      1.0  0.52154  0.08785  0.33840  1.0000
  C   C559      1.0  0.65666  0.48630  0.09904  1.0000
  S   S165      1.0  0.51419  0.33625  0.01213  1.0000
  C   C560      1.0  0.71876  0.25816  0.49526  1.0000
  H   H939      1.0  0.54738  0.11670  0.38705  1.0000
  H   H940      1.0  0.59666  0.29117  0.47644  1.0000
  H   H941      1.0  0.52825  0.18292  0.50055  1.0000
  H   H942      1.0  0.53311  0.15843  0.46401  1.0000
  C   C561      1.0  0.54444  0.32260  0.28734  1.0000
  C   C562      1.0  0.54060  0.00507  0.44745  1.0000
  H   H943      1.0  0.51979  0.35356  0.12940  1.0000
  H   H944      1.0  0.60623  0.26976  0.49240  1.0000
  H   H945      1.0  0.62554  0.25384  0.45526  1.0000
  Fe  Fe81      1.0  0.64230  0.49933  0.19557  1.0000
  Fe  Fe82      1.0  0.50342  0.33734  0.19414  1.0000
  H   H946      1.0  0.56036  0.08393  0.38489  1.0000
  C   C563      1.0  0.63129  0.29054  0.47753  1.0000
  H   H947      1.0  0.73268  0.47277  0.19407  1.0000
  H   H948      1.0  0.68195  0.26909  0.47333  1.0000
  H   H949      1.0  0.51179  0.09826  0.39378  1.0000
  H   H950      1.0  0.56720  0.04518  0.40116  1.0000
  H   H951      1.0  0.51317  0.15341  0.31838  1.0000
  S   S166      1.0  0.64789  0.19491  0.49617  1.0000
  C   C564      1.0  0.50104  0.17221  0.47204  1.0000
  H   H952      1.0  0.57366  0.09642  0.41311  1.0000
  H   H953      1.0  0.56501  0.48831  0.08572  1.0000
  H   H954      1.0  0.73708  0.15021  0.49495  1.0000
  C   C565      1.0  0.54856  0.07520  0.42811  1.0000
  C   C566      1.0  0.70123  0.17389  0.48217  1.0000
  C   C567      1.0  0.56736  0.32239  0.03989  1.0000
  C   C568      1.0  0.54936  0.32554  0.07464  1.0000
  H   H955      1.0  0.51200  0.14777  0.44962  1.0000
  C   C569      1.0  0.58065  0.29970  0.06958  1.0000
  H   H956      1.0  0.63433  0.30771  0.47996  1.0000
  C   C570      1.0  0.56190  0.34528  0.08033  1.0000
  C   C571      1.0  0.53656  0.27873  0.07192  1.0000
  C   C572      1.0  0.57953  0.29414  0.09388  1.0000
  H   H957      1.0  0.70764  0.47186  0.20923  1.0000
  C   C573      1.0  0.58248  0.41290  0.01338  1.0000
  H   H958      1.0  0.54401  0.31787  0.08994  1.0000
  H   H959      1.0  0.53438  0.33164  0.06726  1.0000
  H   H960      1.0  0.50934  0.34337  0.27495  1.0000
  C   C574      1.0  0.71347  0.48680  0.27057  1.0000
  H   H961      1.0  0.55322  0.28204  0.04213  1.0000
  H   H962      1.0  0.59426  0.31061  0.06721  1.0000
  C   C575      1.0  0.53296  0.21674  0.49675  1.0000
  H   H963      1.0  0.58548  0.28480  0.06107  1.0000
  C   C576      1.0  0.70747  0.49462  0.18126  1.0000
  H   H964      1.0  0.56246  0.35712  0.06675  1.0000
  H   H965      1.0  0.55352  0.35344  0.09392  1.0000
  H   H966      1.0  0.54363  0.37641  0.33686  1.0000
  C   C577      1.0  0.53751  0.11794  0.40199  1.0000
  H   H967      1.0  0.54902  0.26749  0.07823  1.0000
  C   C578      1.0  0.54558  0.29326  0.05377  1.0000
  H   H968      1.0  0.58963  0.27951  0.09699  1.0000
  H   H969      1.0  0.56352  0.29077  0.10072  1.0000
  H   H970      1.0  0.58664  0.30691  0.10307  1.0000
  H   H971      1.0  0.58138  0.41902  0.11423  1.0000
  H   H972      1.0  0.60059  0.44044  0.05889  1.0000
  H   H973      1.0  0.56991  0.45214  0.07539  1.0000
  H   H974      1.0  0.70422  0.46148  0.31795  1.0000
  H   H975      1.0  0.69211  0.30526  0.46128  1.0000
  N   N39       1.0  0.64975  0.27662  0.48519  1.0000
  H   H976      1.0  0.56985  0.04959  0.37279  1.0000
  H   H977      1.0  0.66739  0.31693  0.47093  1.0000
  H   H978      1.0  0.61699  0.46624  0.10695  1.0000
  H   H979      1.0  0.70228  0.45192  0.34489  1.0000
  S   S167      1.0  0.61042  0.48444  0.19902  1.0000
  C   C579      1.0  0.70857  0.44770  0.32871  1.0000
  H   H980      1.0  0.71566  0.16825  0.47304  1.0000
  H   H981      1.0  0.65361  0.24757  0.44929  1.0000
  H   H982      1.0  0.52857  0.28778  0.08502  1.0000
  H   H983      1.0  0.50829  0.35105  0.09206  1.0000
  C   C580      1.0  0.61067  0.45018  0.11115  1.0000
  H   H984      1.0  0.58785  0.40720  0.06663  1.0000
  C   C581      1.0  0.58011  0.48008  0.09063  1.0000
  Fe  Fe83      1.0  0.64536  0.48875  0.04381  1.0000
  H   H985      1.0  0.64377  0.05396  0.49768  1.0000
  C   C582      1.0  0.73429  0.42279  0.36117  1.0000
  Fe  Fe84      1.0  0.50974  0.37090  0.22724  1.0000
  H   H986      1.0  0.56476  0.30040  0.01320  1.0000
  N   N40       1.0  0.59749  0.44208  0.09356  1.0000
  H   H987      1.0  0.61674  0.45943  0.07001  1.0000
  S   S168      1.0  0.62063  0.47755  0.25032  1.0000
  H   H988      1.0  0.59713  0.44328  0.00829  1.0000
  S   S169      1.0  0.51959  0.32266  0.16476  1.0000
  H   H989      1.0  0.55079  0.05809  0.43343  1.0000
  H   H990      1.0  0.56317  0.41627  0.07969  1.0000
  C   C583      1.0  0.61055  0.44311  0.07289  1.0000
  H   H991      1.0  0.53720  0.07445  0.37412  1.0000
  C   C584      1.0  0.57895  0.40824  0.08220  1.0000
  C   C585      1.0  0.50727  0.32322  0.13973  1.0000
  H   H992      1.0  0.60582  0.40927  0.10305  1.0000
  H   H993      1.0  0.57595  0.39158  0.08783  1.0000
  C   C586      1.0  0.67896  0.30340  0.47346  1.0000
  H   H994      1.0  0.50419  0.24111  0.47490  1.0000
  H   H995      1.0  0.57832  0.34094  0.08521  1.0000
  H   H996      1.0  0.58367  0.48572  0.10675  1.0000
  H   H997      1.0  0.50541  0.37407  0.31268  1.0000
  H   H998      1.0  0.64420  0.08999  0.47976  1.0000
  H   H999      1.0  0.62973  0.28978  0.45988  1.0000
  N   N41       1.0  0.56090  0.30994  0.05999  1.0000
  C   C587      1.0  0.53710  0.30528  0.30386  1.0000
  H   H1000     1.0  0.54269  0.28929  0.29817  1.0000
  H   H1001     1.0  0.54023  0.08334  0.44177  1.0000
  C   C588      1.0  0.71508  0.47385  0.19305  1.0000
  H   H1002     1.0  0.73121  0.38835  0.36853  1.0000
  H   H1003     1.0  0.73353  0.40972  0.30840  1.0000
  H   H1004     1.0  0.50907  0.15680  0.29049  1.0000
  H   H1005     1.0  0.51795  0.21021  0.44999  1.0000
  H   H1006     1.0  0.60930  0.49863  0.29634  1.0000
  Fe  Fe85      1.0  0.65211  0.49309  0.24340  1.0000
  C   C589      1.0  0.73877  0.49236  0.29892  1.0000
  C   C590      1.0  0.52638  0.19542  0.48762  1.0000
  C   C591      1.0  0.50074  0.15419  0.30617  1.0000
  H   H1007     1.0  0.59482  0.40413  0.00446  1.0000
  H   H1008     1.0  0.52457  0.24505  0.27979  1.0000
  Fe  Fe86      1.0  0.50322  0.21015  0.35300  1.0000
  C   C592      1.0  0.51790  0.16273  0.45615  1.0000
  H   H1009     1.0  0.71039  0.45991  0.18382  1.0000
  H   H1010     1.0  0.74641  0.47549  0.26992  1.0000
  H   H1011     1.0  0.51423  0.43346  0.01016  1.0000
  H   H1012     1.0  0.50037  0.16115  0.48633  1.0000
  N   N42       1.0  0.50439  0.19491  0.47862  1.0000
  C   C593      1.0  0.73405  0.48411  0.27894  1.0000
  C   C594      1.0  0.57651  0.00471  0.43180  1.0000
  S   S170      1.0  0.51290  0.00665  0.44479  1.0000
  C   C595      1.0  0.73393  0.40536  0.32580  1.0000
  H   H1013     1.0  0.51128  0.27754  0.25975  1.0000
  H   H1014     1.0  0.73539  0.37056  0.33056  1.0000
  C   C596      1.0  0.69741  0.49817  0.28193  1.0000
  C   C597      1.0  0.50274  0.24904  0.30684  1.0000
  C   C598      1.0  0.50648  0.08968  0.34717  1.0000
  H   H1015     1.0  0.74044  0.43648  0.36993  1.0000
  H   H1016     1.0  0.69004  0.49357  0.17887  1.0000
  S   S171      1.0  0.74599  0.29186  0.49411  1.0000
  H   H1017     1.0  0.58395  0.32046  0.00896  1.0000
  N   N43       1.0  0.74190  0.42381  0.33803  1.0000
  S   S172      1.0  0.50680  0.04563  0.34863  1.0000
  C   C599      1.0  0.74000  0.40214  0.37405  1.0000
  H   H1018     1.0  0.50909  0.05934  0.39590  1.0000
  C   C600      1.0  0.50160  0.06317  0.42946  1.0000
  C   C601      1.0  0.74666  0.38370  0.32748  1.0000
  S   S173      1.0  0.50346  0.38796  0.00244  1.0000
  H   H1019     1.0  0.74783  0.50168  0.16775  1.0000
  H   H1020     1.0  0.58715  0.00619  0.41793  1.0000
  H   H1021     1.0  0.52547  0.47319  0.00362  1.0000
  C   C602      1.0  0.64903  0.10688  0.50869  1.0000
  S   S174      1.0  0.66014  0.47183  0.96518  1.0000
  H   H1022     1.0  0.50722  0.08041  0.62031  1.0000
  S   S175      1.0  0.60665  0.01508  0.51110  1.0000
  C   C603      1.0  0.51602  0.09791  0.68795  1.0000
  H   H1023     1.0  0.51419  0.06344  0.68712  1.0000
  C   C604      1.0  0.66603  0.47599  0.92156  1.0000
  C   C605      1.0  0.53979  0.00359  0.60543  1.0000
  S   S176      1.0  0.60915  0.48109  0.82880  1.0000
  H   H1024     1.0  0.54447  0.27233  0.66967  1.0000
  H   H1025     1.0  0.51693  0.40985  0.84850  1.0000
  S   S177      1.0  0.63393  0.47722  0.78146  1.0000
  H   H1026     1.0  0.50800  0.40324  0.87484  1.0000
  Fe  Fe87      1.0  0.63105  0.45756  0.81200  1.0000
  S   S178      1.0  0.62298  0.42257  0.81255  1.0000
  S   S179      1.0  0.66102  0.46965  0.82588  1.0000
  H   H1027     1.0  0.70801  0.45561  0.51192  1.0000
  S   S180      1.0  0.52851  0.34044  0.81501  1.0000
  S   S181      1.0  0.52512  0.40498  0.80188  1.0000
  C   C606      1.0  0.65169  0.10469  0.53075  1.0000
  S   S182      1.0  0.52201  0.22495  0.62022  1.0000
  S   S183      1.0  0.51094  0.20365  0.67944  1.0000
  H   H1028     1.0  0.68176  0.46898  0.92413  1.0000
  Fe  Fe88      1.0  0.61371  0.20327  0.50504  1.0000
  Fe  Fe89      1.0  0.66245  0.49117  0.79613  1.0000
  C   C607      1.0  0.69925  0.24443  0.52676  1.0000
  Fe  Fe90      1.0  0.65501  0.20540  0.52919  1.0000
  S   S184      1.0  0.62106  0.21592  0.53721  1.0000
  Fe  Fe91      1.0  0.64093  0.16273  0.51172  1.0000
  Fe  Fe92      1.0  0.61638  0.18222  0.54926  1.0000
  S   S185      1.0  0.59968  0.17086  0.57985  1.0000
  S   S186      1.0  0.65090  0.17238  0.54405  1.0000
  C   C608      1.0  0.50520  0.19021  0.78903  1.0000
  S   S187      1.0  0.65094  0.04024  0.54201  1.0000
  H   H1029     1.0  0.56585  0.25193  0.69033  1.0000
  H   H1030     1.0  0.69112  0.18744  0.51221  1.0000
  H   H1031     1.0  0.68492  0.14980  0.51922  1.0000
  Fe  Fe93      1.0  0.63782  0.01078  0.52705  1.0000
  C   C609      1.0  0.54232  0.20906  0.60782  1.0000
  C   C610      1.0  0.54786  0.18868  0.61613  1.0000
  C   C611      1.0  0.56529  0.17699  0.60716  1.0000
  C   C612      1.0  0.57710  0.18544  0.58967  1.0000
  C   C613      1.0  0.57127  0.20561  0.58102  1.0000
  C   C614      1.0  0.55401  0.21745  0.59020  1.0000
  H   H1032     1.0  0.53908  0.18213  0.62981  1.0000
  H   H1033     1.0  0.56977  0.16143  0.61395  1.0000
  H   H1034     1.0  0.58030  0.21224  0.56755  1.0000
  H   H1035     1.0  0.54981  0.23322  0.58374  1.0000
  C   C615      1.0  0.59601  0.41753  0.80839  1.0000
  C   C616      1.0  0.58138  0.43436  0.80414  1.0000
  C   C617      1.0  0.55976  0.43020  0.80182  1.0000
  C   C618      1.0  0.55257  0.40922  0.80385  1.0000
  C   C619      1.0  0.56722  0.39230  0.80776  1.0000
  C   C620      1.0  0.58892  0.39647  0.80990  1.0000
  H   H1036     1.0  0.58672  0.45060  0.80257  1.0000
  H   H1037     1.0  0.54860  0.44331  0.79848  1.0000
  H   H1038     1.0  0.56188  0.37604  0.80908  1.0000
  H   H1039     1.0  0.60023  0.38338  0.81298  1.0000
  C   C621      1.0  0.72896  0.47868  0.71635  1.0000
  C   C622      1.0  0.52262  0.40620  0.86487  1.0000
  C   C623      1.0  0.52062  0.49169  0.78189  1.0000
  C   C624      1.0  0.52133  0.19641  0.73558  1.0000
  H   H1040     1.0  0.68596  0.46625  0.74922  1.0000
  H   H1041     1.0  0.52857  0.39499  0.92706  1.0000
  C   C625      1.0  0.64956  0.06575  0.52887  1.0000
  H   H1042     1.0  0.53326  0.24680  0.66380  1.0000
  H   H1043     1.0  0.59056  0.10931  0.58094  1.0000
  C   C626      1.0  0.70867  0.26004  0.53883  1.0000
  C   C627      1.0  0.65257  0.08418  0.54066  1.0000
  C   C628      1.0  0.64081  0.49384  0.89769  1.0000
  H   H1044     1.0  0.70546  0.45434  0.71615  1.0000
  H   H1045     1.0  0.51504  0.45943  0.81213  1.0000
  H   H1046     1.0  0.61975  0.48861  0.94865  1.0000
  C   C629      1.0  0.63119  0.48721  0.93545  1.0000
  C   C630      1.0  0.60097  0.10094  0.56889  1.0000
  C   C631      1.0  0.54261  0.26032  0.65719  1.0000
  C   C632      1.0  0.72047  0.44452  0.51859  1.0000
  H   H1047     1.0  0.51943  0.38106  0.90467  1.0000
  S   S188      1.0  0.74234  0.46930  0.69257  1.0000
  H   H1048     1.0  0.51560  0.15211  0.73719  1.0000
  H   H1049     1.0  0.72984  0.28675  0.53868  1.0000
  C   C633      1.0  0.51644  0.44204  0.99461  1.0000
  C   C634      1.0  0.64214  0.27083  0.52616  1.0000
  C   C635      1.0  0.64598  0.06802  0.50697  1.0000
  H   H1050     1.0  0.64642  0.25351  0.52733  1.0000
  H   H1051     1.0  0.61944  0.07125  0.56630  1.0000
  C   C636      1.0  0.65156  0.47834  0.93902  1.0000
  H   H1052     1.0  0.53296  0.26831  0.64450  1.0000
  C   C637      1.0  0.70336  0.12871  0.53898  1.0000
  S   S189      1.0  0.60615  0.17041  0.51779  1.0000
  N   N44       1.0  0.55623  0.38491  0.87856  1.0000
  C   C638      1.0  0.56278  0.36173  0.88286  1.0000
  C   C639      1.0  0.55146  0.39480  0.90000  1.0000
  C   C640      1.0  0.57509  0.39562  0.86785  1.0000
  C   C641      1.0  0.53729  0.38577  0.86424  1.0000
  C   C642      1.0  0.57001  0.34868  0.86315  1.0000
  C   C643      1.0  0.53370  0.38425  0.91387  1.0000
  C   C644      1.0  0.57237  0.41967  0.86220  1.0000
  H   H1053     1.0  0.69999  0.17842  0.54681  1.0000
  H   H1054     1.0  0.57594  0.36041  0.89442  1.0000
  H   H1055     1.0  0.54939  0.35285  0.89054  1.0000
  H   H1056     1.0  0.54702  0.41204  0.89850  1.0000
  H   H1057     1.0  0.56608  0.39429  0.90969  1.0000
  H   H1058     1.0  0.58937  0.39354  0.87793  1.0000
  H   H1059     1.0  0.57956  0.38803  0.85246  1.0000
  H   H1060     1.0  0.54257  0.38345  0.84726  1.0000
  H   H1061     1.0  0.52674  0.37220  0.86842  1.0000
  H   H1062     1.0  0.55842  0.35015  0.85019  1.0000
  H   H1063     1.0  0.58605  0.35312  0.85693  1.0000
  H   H1064     1.0  0.57118  0.33143  0.86794  1.0000
  H   H1065     1.0  0.58349  0.05632  0.51867  1.0000
  H   H1066     1.0  0.61081  0.23067  0.69134  1.0000
  C   C645      1.0  0.51146  0.46633  0.99610  1.0000
  H   H1067     1.0  0.52240  0.21152  0.72586  1.0000
  H   H1068     1.0  0.56840  0.42951  0.87631  1.0000
  C   C646      1.0  0.56436  0.25280  0.64725  1.0000
  C   C647      1.0  0.50587  0.49306  0.81900  1.0000
  H   H1069     1.0  0.50646  0.43467  0.98268  1.0000
  C   C648      1.0  0.62596  0.49516  0.91492  1.0000
  H   H1070     1.0  0.61220  0.02091  0.60473  1.0000
  N   N45       1.0  0.57760  0.23744  0.66086  1.0000
  H   H1071     1.0  0.72329  0.46318  0.54631  1.0000
  C   C649      1.0  0.59881  0.23375  0.64924  1.0000
  C   C650      1.0  0.58122  0.24831  0.68161  1.0000
  C   C651      1.0  0.56554  0.21710  0.66485  1.0000
  H   H1072     1.0  0.67238  0.48283  0.88790  1.0000
  C   C652      1.0  0.59763  0.22634  0.62600  1.0000
  C   C653      1.0  0.59492  0.23575  0.69795  1.0000
  C   C654      1.0  0.57873  0.19599  0.66810  1.0000
  H   H1073     1.0  0.56807  0.07491  0.53418  1.0000
  H   H1074     1.0  0.65565  0.08258  0.55754  1.0000
  H   H1075     1.0  0.60904  0.22174  0.65779  1.0000
  H   H1076     1.0  0.60803  0.24870  0.64863  1.0000
  C   C655      1.0  0.72802  0.27393  0.50729  1.0000
  H   H1077     1.0  0.58869  0.26407  0.67839  1.0000
  H   H1078     1.0  0.55455  0.21870  0.67907  1.0000
  H   H1079     1.0  0.55492  0.21418  0.65144  1.0000
  H   H1080     1.0  0.52835  0.18331  0.72572  1.0000
  H   H1081     1.0  0.53244  0.49023  0.74893  1.0000
  H   H1082     1.0  0.56064  0.24546  0.63186  1.0000
  H   H1083     1.0  0.61335  0.21941  0.62055  1.0000
  H   H1084     1.0  0.58569  0.21394  0.62446  1.0000
  H   H1085     1.0  0.59369  0.23999  0.61492  1.0000
  S   S190      1.0  0.51538  0.30343  0.76693  1.0000
  H   H1086     1.0  0.58635  0.22186  0.70495  1.0000
  H   H1087     1.0  0.58679  0.19076  0.65301  1.0000
  H   H1088     1.0  0.56771  0.18308  0.67309  1.0000
  H   H1089     1.0  0.59067  0.19679  0.68059  1.0000
  H   H1090     1.0  0.59384  0.10310  0.55304  1.0000
  H   H1091     1.0  0.71980  0.12362  0.54286  1.0000
  H   H1092     1.0  0.74047  0.47999  0.57111  1.0000
  S   S191      1.0  0.51639  0.32667  0.87447  1.0000
  H   H1093     1.0  0.53113  0.19838  0.74975  1.0000
  C   C656      1.0  0.70436  0.24359  0.50485  1.0000
  H   H1094     1.0  0.69505  0.13552  0.55333  1.0000
  H   H1095     1.0  0.51627  0.09350  0.64286  1.0000
  H   H1096     1.0  0.73217  0.40482  0.53682  1.0000
  Fe  Fe94      1.0  0.51799  0.00368  0.65301  1.0000
  H   H1097     1.0  0.74719  0.17274  0.50644  1.0000
  Fe  Fe95      1.0  0.63898  0.49485  0.84058  1.0000
  H   H1098     1.0  0.60643  0.29661  0.50243  1.0000
  H   H1099     1.0  0.62473  0.27307  0.52481  1.0000
  C   C657      1.0  0.50463  0.33535  0.89907  1.0000
  S   S192      1.0  0.74828  0.34958  0.52061  1.0000
  H   H1100     1.0  0.59679  0.07754  0.53026  1.0000
  H   H1101     1.0  0.73574  0.39503  0.56361  1.0000
  C   C658      1.0  0.74599  0.42788  0.55885  1.0000
  C   C659      1.0  0.50657  0.17086  0.77414  1.0000
  H   H1102     1.0  0.73958  0.47151  0.52420  1.0000
  H   H1103     1.0  0.52366  0.16776  0.76954  1.0000
  H   H1104     1.0  0.57338  0.26740  0.64277  1.0000
  H   H1105     1.0  0.65394  0.11873  0.54004  1.0000
  C   C660      1.0  0.73578  0.49626  0.72737  1.0000
  H   H1106     1.0  0.58778  0.42542  0.85534  1.0000
  C   C661      1.0  0.70675  0.49211  0.75442  1.0000
  S   S193      1.0  0.68209  0.22583  0.54004  1.0000
  Fe  Fe96      1.0  0.64310  0.48527  0.99471  1.0000
  Fe  Fe97      1.0  0.50146  0.20809  0.64525  1.0000
  H   H1107     1.0  0.59777  0.24634  0.71148  1.0000
  C   C662      1.0  0.71094  0.46796  0.72449  1.0000
  N   N46       1.0  0.58713  0.06201  0.57418  1.0000
  C   C663      1.0  0.58992  0.04464  0.59121  1.0000
  C   C664      1.0  0.56604  0.07355  0.57876  1.0000
  C   C665      1.0  0.60525  0.07722  0.57569  1.0000
  C   C666      1.0  0.58782  0.05148  0.55274  1.0000
  C   C667      1.0  0.61153  0.03200  0.59057  1.0000
  C   C668      1.0  0.54613  0.05969  0.57943  1.0000
  C   C669      1.0  0.58372  0.06624  0.53311  1.0000
  C   C670      1.0  0.73807  0.15812  0.51058  1.0000
  H   H1108     1.0  0.57760  0.03244  0.59014  1.0000
  H   H1109     1.0  0.56296  0.08669  0.56686  1.0000
  H   H1110     1.0  0.56637  0.08150  0.59448  1.0000
  H   H1111     1.0  0.61062  0.07789  0.59246  1.0000
  H   H1112     1.0  0.60370  0.04362  0.54951  1.0000
  H   H1113     1.0  0.57631  0.03833  0.55264  1.0000
  H   H1114     1.0  0.62543  0.04241  0.59111  1.0000
  H   H1115     1.0  0.51355  0.47600  0.77937  1.0000
  H   H1116     1.0  0.53301  0.09783  0.68447  1.0000
  H   H1117     1.0  0.52492  0.28226  0.72745  1.0000
  H   H1118     1.0  0.53164  0.07032  0.58076  1.0000
  H   H1119     1.0  0.54476  0.05039  0.56473  1.0000
  C   C671      1.0  0.66070  0.48372  0.90097  1.0000
  Fe  Fe98      1.0  0.50387  0.33688  0.84186  1.0000
  H   H1120     1.0  0.64646  0.27764  0.54159  1.0000
  H   H1121     1.0  0.53668  0.48753  0.78829  1.0000
  H   H1122     1.0  0.52105  0.49392  0.82768  1.0000
  C   C672      1.0  0.50120  0.46896  0.81868  1.0000
  H   H1123     1.0  0.61631  0.10933  0.56806  1.0000
  S   S194      1.0  0.51833  0.14165  0.68854  1.0000
  H   H1124     1.0  0.51646  0.18723  0.80220  1.0000
  H   H1125     1.0  0.72121  0.16088  0.55385  1.0000
  H   H1126     1.0  0.51433  0.33295  0.95272  1.0000
  H   H1127     1.0  0.58773  0.05139  0.60748  1.0000
  C   C673      1.0  0.69983  0.47466  0.74330  1.0000
  C   C674      1.0  0.72279  0.27483  0.52916  1.0000
  H   H1128     1.0  0.56059  0.42259  0.84955  1.0000
  H   H1129     1.0  0.69498  0.11397  0.53524  1.0000
  H   H1130     1.0  0.70502  0.26073  0.55583  1.0000
  C   C675      1.0  0.71639  0.17299  0.54152  1.0000
  H   H1131     1.0  0.52158  0.22307  0.50909  1.0000
  H   H1132     1.0  0.53024  0.32167  0.91768  1.0000
  C   C676      1.0  0.51031  0.27573  0.73407  1.0000
  H   H1133     1.0  0.67199  0.27722  0.51094  1.0000
  N   N47       1.0  0.71606  0.16375  0.51949  1.0000
  H   H1134     1.0  0.54569  0.04877  0.59371  1.0000
  C   C677      1.0  0.70202  0.14454  0.51967  1.0000
  H   H1135     1.0  0.54846  0.21401  0.50466  1.0000
  H   H1136     1.0  0.72987  0.19738  0.56060  1.0000
  C   C678      1.0  0.50469  0.11745  0.69055  1.0000
  Fe  Fe99      1.0  0.51188  0.37211  0.80829  1.0000
  H   H1137     1.0  0.61325  0.02190  0.57630  1.0000
  Fe  Fe100     1.0  0.50446  0.32595  0.79395  1.0000
  C   C679      1.0  0.65505  0.28180  0.50783  1.0000
  H   H1138     1.0  0.53012  0.42082  0.87001  1.0000
  H   H1139     1.0  0.71198  0.43164  0.52743  1.0000
  H   H1140     1.0  0.53965  0.36906  0.92153  1.0000
  C   C680      1.0  0.74278  0.40517  0.55051  1.0000
  C   C681      1.0  0.51516  0.33057  0.91821  1.0000
  H   H1141     1.0  0.72969  0.43792  0.50471  1.0000
  H   H1142     1.0  0.52873  0.00566  0.57322  1.0000
  H   H1143     1.0  0.50648  0.25470  0.70758  1.0000
  C   C682      1.0  0.50501  0.09523  0.62956  1.0000
  C   C683      1.0  0.73119  0.19195  0.54383  1.0000
  H   H1144     1.0  0.50980  0.20537  0.78080  1.0000
  H   H1145     1.0  0.51163  0.47287  0.97933  1.0000
  C   C684      1.0  0.73429  0.45704  0.53342  1.0000
  Fe  Fe101     1.0  0.61423  0.50195  0.79959  1.0000
  C   C685      1.0  0.50540  0.07844  0.68943  1.0000
  H   H1146     1.0  0.50203  0.15678  0.78433  1.0000
  H   H1147     1.0  0.52507  0.01026  0.61216  1.0000
  H   H1148     1.0  0.53335  0.43933  0.98924  1.0000
  H   H1149     1.0  0.73094  0.43306  0.56743  1.0000
  C   C686      1.0  0.50620  0.33698  0.93810  1.0000
  H   H1150     1.0  0.74814  0.18730  0.54051  1.0000
  C   C687      1.0  0.50185  0.28325  0.75371  1.0000
  H   H1151     1.0  0.50996  0.10946  0.61996  1.0000
  H   H1152     1.0  0.65358  0.29938  0.51030  1.0000
  H   H1153     1.0  0.70505  0.13505  0.50499  1.0000
  H   H1154     1.0  0.72658  0.20600  0.53363  1.0000
  C   C688      1.0  0.70629  0.18084  0.50492  1.0000
  C   C689      1.0  0.49992  0.26007  0.72279  1.0000
  S   S195      1.0  0.69310  0.50176  0.77795  1.0000
  C   C690      1.0  0.52418  0.50211  0.75948  1.0000
  H   H1155     1.0  0.71684  0.19472  0.50271  1.0000
  H   H1156     1.0  0.63181  0.52443  0.28119  1.0000
  H   H1157     1.0  0.68988  0.51522  0.31086  1.0000
  H   H1158     1.0  0.67250  0.86488  0.46526  1.0000
  H   H1159     1.0  0.58249  0.73284  0.38254  1.0000
  H   H1160     1.0  0.53745  0.65406  0.10495  1.0000
  H   H1161     1.0  0.60502  0.52035  0.31427  1.0000
  S   S196      1.0  0.51399  0.65984  0.19960  1.0000
  H   H1162     1.0  0.67914  0.83772  0.44347  1.0000
  C   C691      1.0  0.52064  0.65081  0.10608  1.0000
  H   H1163     1.0  0.66836  0.80358  0.42930  1.0000
  H   H1164     1.0  0.73891  0.50470  0.21118  1.0000
  H   H1165     1.0  0.56363  0.58402  0.28593  1.0000
  H   H1166     1.0  0.57413  0.89206  0.43995  1.0000
  S   S197      1.0  0.58783  0.75221  0.47907  1.0000
  S   S198      1.0  0.64294  0.78160  0.47867  1.0000
  H   H1167     1.0  0.70695  0.84558  0.49435  1.0000
  S   S199      1.0  0.55576  0.80085  0.39522  1.0000
  S   S200      1.0  0.52775  0.63589  0.00293  1.0000
  Fe  Fe102     1.0  0.52251  0.62893  0.21721  1.0000
  S   S201      1.0  0.55685  0.61719  0.21714  1.0000
  H   H1168     1.0  0.50164  0.72888  0.46654  1.0000
  H   H1169     1.0  0.69844  0.52144  0.14660  1.0000
  C   C692      1.0  0.52834  0.57195  0.05730  1.0000
  C   C693      1.0  0.69839  0.51629  0.21212  1.0000
  H   H1170     1.0  0.52258  0.80976  0.47636  1.0000
  Fe  Fe103     1.0  0.61912  0.98977  0.48899  1.0000
  C   C694      1.0  0.50547  0.70801  0.30179  1.0000
  H   H1171     1.0  0.53592  0.69637  0.16049  1.0000
  Fe  Fe104     1.0  0.62715  0.52552  0.01650  1.0000
  S   S202      1.0  0.57426  0.51864  0.23828  1.0000
  S   S203      1.0  0.63683  0.52016  0.22414  1.0000
  H   H1172     1.0  0.54896  0.73660  0.33297  1.0000
  C   C695      1.0  0.58479  0.99952  0.45184  1.0000
  H   H1173     1.0  0.68654  0.87687  0.48570  1.0000
  C   C696      1.0  0.65053  0.50790  0.10102  1.0000
  H   H1174     1.0  0.58389  0.58955  0.26631  1.0000
  H   H1175     1.0  0.59304  0.70532  0.35757  1.0000
  C   C697      1.0  0.56091  0.58940  0.22142  1.0000
  C   C698      1.0  0.58064  0.57965  0.21566  1.0000
  C   C699      1.0  0.58449  0.55764  0.21968  1.0000
  C   C700      1.0  0.56883  0.54541  0.23004  1.0000
  C   C701      1.0  0.54902  0.55512  0.23564  1.0000
  C   C702      1.0  0.54499  0.57703  0.23117  1.0000
  H   H1176     1.0  0.59294  0.58915  0.20799  1.0000
  H   H1177     1.0  0.59969  0.55025  0.21507  1.0000
  H   H1178     1.0  0.53689  0.54575  0.24376  1.0000
  H   H1179     1.0  0.52976  0.58445  0.23574  1.0000
  C   C703      1.0  0.73765  0.70043  0.49629  1.0000
  H   H1180     1.0  0.53707  0.95333  0.45475  1.0000
  H   H1181     1.0  0.61388  0.70869  0.33787  1.0000
  H   H1182     1.0  0.50834  0.68331  0.27811  1.0000
  C   C704      1.0  0.57906  0.76580  0.45577  1.0000
  C   C705      1.0  0.56260  0.75739  0.44429  1.0000
  C   C706      1.0  0.55479  0.76839  0.42611  1.0000
  C   C707      1.0  0.56394  0.78748  0.41889  1.0000
  C   C708      1.0  0.58063  0.79568  0.43018  1.0000
  C   C709      1.0  0.58798  0.78504  0.44873  1.0000
  H   H1183     1.0  0.55584  0.74238  0.44954  1.0000
  H   H1184     1.0  0.54199  0.76188  0.41747  1.0000
  H   H1185     1.0  0.58782  0.81040  0.42463  1.0000
  H   H1186     1.0  0.60061  0.79170  0.45751  1.0000
  C   C710      1.0  0.55081  0.71504  0.35964  1.0000
  C   C711      1.0  0.58807  0.55857  0.28364  1.0000
  H   H1187     1.0  0.58483  0.72986  0.32406  1.0000
  Fe  Fe105     1.0  0.52327  0.79462  0.38278  1.0000
  H   H1188     1.0  0.59861  0.96602  0.41002  1.0000
  H   H1189     1.0  0.59516  0.94420  0.43818  1.0000
  C   C712      1.0  0.65262  0.50440  0.13994  1.0000
  C   C713      1.0  0.60368  0.71722  0.34997  1.0000
  H   H1190     1.0  0.58564  0.55030  0.08658  1.0000
  C   C714      1.0  0.63084  0.88651  0.49257  1.0000
  C   C715      1.0  0.69953  0.53687  0.22508  1.0000
  H   H1191     1.0  0.58622  0.97273  0.38546  1.0000
  H   H1192     1.0  0.59146  0.91518  0.46169  1.0000
  C   C716      1.0  0.52069  0.79344  0.47007  1.0000
  H   H1193     1.0  0.64496  0.53389  0.12274  1.0000
  C   C717      1.0  0.58010  0.54755  0.01151  1.0000
  H   H1194     1.0  0.69527  0.55154  0.21558  1.0000
  H   H1195     1.0  0.62176  0.88701  0.47815  1.0000
  H   H1196     1.0  0.50997  0.74580  0.49695  1.0000
  H   H1197     1.0  0.72694  0.80086  0.43841  1.0000
  N   N48       1.0  0.70015  0.82506  0.46807  1.0000
  H   H1198     1.0  0.53848  0.55885  0.05042  1.0000
  H   H1199     1.0  0.59712  0.94625  0.38938  1.0000
  H   H1200     1.0  0.68779  0.53596  0.23873  1.0000
  H   H1201     1.0  0.54798  0.53683  0.01081  1.0000
  S   S204      1.0  0.52260  0.99619  0.38250  1.0000
  H   H1202     1.0  0.57926  0.93673  0.47678  1.0000
  H   H1203     1.0  0.68699  0.78867  0.44495  1.0000
  S   S205      1.0  0.52203  0.65449  0.06205  1.0000
  H   H1204     1.0  0.51449  0.69878  0.31348  1.0000
  C   C718      1.0  0.57097  0.99777  0.46977  1.0000
  C   C719      1.0  0.57412  0.55408  0.07380  1.0000
  H   H1205     1.0  0.57239  0.95817  0.44744  1.0000
  H   H1206     1.0  0.61449  0.72278  0.36216  1.0000
  C   C720      1.0  0.72520  0.71835  0.48916  1.0000
  H   H1207     1.0  0.58274  0.58256  0.10824  1.0000
  H   H1208     1.0  0.51466  0.57414  0.04657  1.0000
  H   H1209     1.0  0.59209  0.58257  0.07073  1.0000
  H   H1210     1.0  0.56151  0.58668  0.12765  1.0000
  S   S206      1.0  0.50615  0.76399  0.38627  1.0000
  H   H1211     1.0  0.54154  0.91615  0.43922  1.0000
  C   C721      1.0  0.52166  0.70648  0.16503  1.0000
  N   N49       1.0  0.57451  0.74791  0.35186  1.0000
  C   C722      1.0  0.57216  0.77066  0.34317  1.0000
  C   C723      1.0  0.57964  0.74897  0.37517  1.0000
  C   C724      1.0  0.59161  0.73614  0.33878  1.0000
  C   C725      1.0  0.56428  0.77331  0.32009  1.0000
  C   C726      1.0  0.59905  0.76231  0.38011  1.0000
  H   H1212     1.0  0.56099  0.78029  0.35360  1.0000
  H   H1213     1.0  0.58761  0.77886  0.34321  1.0000
  H   H1214     1.0  0.56569  0.75585  0.38438  1.0000
  H   H1215     1.0  0.54040  0.74812  0.35756  1.0000
  C   C727      1.0  0.55320  0.73780  0.35001  1.0000
  H   H1216     1.0  0.60415  0.74723  0.33284  1.0000
  C   C728      1.0  0.50312  0.51167  0.00951  1.0000
  H   H1217     1.0  0.54707  0.76997  0.31929  1.0000
  H   H1218     1.0  0.56596  0.79025  0.31459  1.0000
  H   H1219     1.0  0.60363  0.75890  0.39692  1.0000
  H   H1220     1.0  0.61305  0.75869  0.36944  1.0000
  H   H1221     1.0  0.59504  0.77973  0.37889  1.0000
  N   N50       1.0  0.61179  0.55354  0.28397  1.0000
  S   S207      1.0  0.67132  0.50296  0.27199  1.0000
  H   H1222     1.0  0.58093  0.55101  0.26985  1.0000
  C   C729      1.0  0.62212  0.56523  0.26513  1.0000
  C   C730      1.0  0.62011  0.56087  0.30484  1.0000
  C   C731      1.0  0.68815  0.86479  0.47298  1.0000
  H   H1223     1.0  0.53168  0.75295  0.48048  1.0000
  C   C732      1.0  0.64646  0.56234  0.26218  1.0000
  C   C733      1.0  0.64098  0.54976  0.31271  1.0000
  H   H1224     1.0  0.55576  0.88914  0.41854  1.0000
  H   H1225     1.0  0.68135  0.51455  0.20836  1.0000
  H   H1226     1.0  0.56279  0.91851  0.46515  1.0000
  H   H1227     1.0  0.57870  0.54306  0.06065  1.0000
  H   H1228     1.0  0.61496  0.56046  0.25001  1.0000
  H   H1229     1.0  0.61919  0.58282  0.26609  1.0000
  H   H1230     1.0  0.62250  0.57846  0.30404  1.0000
  H   H1231     1.0  0.60802  0.55820  0.31800  1.0000
  S   S208      1.0  0.62098  0.56095  0.01228  1.0000
  H   H1232     1.0  0.72594  0.50987  0.32578  1.0000
  H   H1233     1.0  0.71536  0.53834  0.23216  1.0000
  H   H1234     1.0  0.55957  0.70302  0.34973  1.0000
  C   C734      1.0  0.70579  0.53446  0.17777  1.0000
  H   H1235     1.0  0.64779  0.51776  0.08683  1.0000
  H   H1236     1.0  0.65150  0.57032  0.24684  1.0000
  H   H1237     1.0  0.65184  0.54536  0.26110  1.0000
  H   H1238     1.0  0.65484  0.57024  0.27498  1.0000
  H   H1239     1.0  0.65016  0.56157  0.32125  1.0000
  H   H1240     1.0  0.65190  0.54321  0.30012  1.0000
  H   H1241     1.0  0.63740  0.53689  0.32478  1.0000
  N   N51       1.0  0.56629  0.93505  0.42323  1.0000
  C   C735      1.0  0.56643  0.95324  0.40680  1.0000
  C   C736      1.0  0.54324  0.93049  0.42859  1.0000
  C   C737      1.0  0.57742  0.91586  0.41306  1.0000
  C   C738      1.0  0.58111  0.58250  0.28263  1.0000
  H   H1242     1.0  0.73818  0.53206  0.20474  1.0000
  H   H1243     1.0  0.58619  0.53234  0.01761  1.0000
  H   H1244     1.0  0.69585  0.80807  0.42439  1.0000
  H   H1245     1.0  0.55666  0.94948  0.39294  1.0000
  H   H1246     1.0  0.55899  0.96802  0.41346  1.0000
  H   H1247     1.0  0.50505  0.51103  0.02706  1.0000
  H   H1248     1.0  0.53491  0.92652  0.41381  1.0000
  H   H1249     1.0  0.57358  0.91525  0.39578  1.0000
  H   H1250     1.0  0.57238  0.60932  0.11389  1.0000
  C   C739      1.0  0.70295  0.80455  0.48112  1.0000
  C   C740      1.0  0.70968  0.53260  0.15339  1.0000
  H   H1251     1.0  0.55803  0.54966  0.07954  1.0000
  S   S209      1.0  0.50224  0.73861  0.33274  1.0000
  H   H1252     1.0  0.72815  0.72508  0.47327  1.0000
  Fe  Fe106     1.0  0.60618  0.50321  0.22891  1.0000
  N   N52       1.0  0.71211  0.51532  0.19184  1.0000
  Fe  Fe107     1.0  0.50919  0.60607  0.00270  1.0000
  H   H1253     1.0  0.57975  0.55156  0.29804  1.0000
  N   N53       1.0  0.55900  0.59360  0.07195  1.0000
  C   C741      1.0  0.56792  0.61575  0.06988  1.0000
  C   C742      1.0  0.55113  0.59062  0.09486  1.0000
  C   C743      1.0  0.54031  0.59305  0.05744  1.0000
  C   C744      1.0  0.57632  0.57749  0.06540  1.0000
  C   C745      1.0  0.57448  0.62358  0.04706  1.0000
  C   C746      1.0  0.56814  0.59241  0.11190  1.0000
  H   H1254     1.0  0.60963  0.52532  0.26503  1.0000
  Fe  Fe108     1.0  0.61479  0.76722  0.49576  1.0000
  H   H1255     1.0  0.55634  0.62793  0.07651  1.0000
  H   H1256     1.0  0.58244  0.61680  0.07947  1.0000
  H   H1257     1.0  0.54361  0.57504  0.09785  1.0000
  H   H1258     1.0  0.53813  0.60271  0.09864  1.0000
  H   H1259     1.0  0.52841  0.60609  0.06149  1.0000
  H   H1260     1.0  0.54537  0.59608  0.04047  1.0000
  H   H1261     1.0  0.57794  0.57710  0.04767  1.0000
  C   C747      1.0  0.68186  0.82285  0.45332  1.0000
  H   H1262     1.0  0.58334  0.63858  0.04808  1.0000
  H   H1263     1.0  0.58507  0.61182  0.03860  1.0000
  H   H1264     1.0  0.56032  0.62776  0.03745  1.0000
  H   H1265     1.0  0.52133  0.80595  0.43731  1.0000
  C   C748      1.0  0.64893  0.51699  0.12138  1.0000
  C   C749      1.0  0.61488  0.52973  0.28110  1.0000
  S   S210      1.0  0.65260  0.51686  0.16497  1.0000
  H   H1266     1.0  0.58314  0.88135  0.41502  1.0000
  C   C750      1.0  0.55833  0.55016  0.00785  1.0000
  H   H1267     1.0  0.73034  0.84119  0.46545  1.0000
  C   C751      1.0  0.72022  0.83118  0.45569  1.0000
  C   C752      1.0  0.51057  0.64777  0.12639  1.0000
  H   H1268     1.0  0.52616  0.89181  0.38586  1.0000
  H   H1269     1.0  0.52576  0.72331  0.16121  1.0000
  H   H1270     1.0  0.70885  0.79105  0.47116  1.0000
  C   C753      1.0  0.59369  0.56461  0.00777  1.0000
  H   H1271     1.0  0.71620  0.84154  0.44150  1.0000
  H   H1272     1.0  0.71392  0.54904  0.18260  1.0000
  H   H1273     1.0  0.68841  0.53849  0.17982  1.0000
  H   H1274     1.0  0.52155  0.56724  0.07322  1.0000
  C   C754      1.0  0.57801  0.94197  0.44238  1.0000
  H   H1275     1.0  0.72625  0.52766  0.14891  1.0000
  H   H1276     1.0  0.74781  0.81952  0.43691  1.0000
  C   C755      1.0  0.57781  0.92696  0.46236  1.0000
  H   H1277     1.0  0.51967  0.64850  0.14072  1.0000
  H   H1278     1.0  0.66678  0.82053  0.46283  1.0000
  Fe  Fe109     1.0  0.50670  0.64474  0.03146  1.0000
  S   S211      1.0  0.61494  0.50831  0.04598  1.0000
  H   H1279     1.0  0.58905  0.59193  0.29460  1.0000
  S   S212      1.0  0.61211  0.99358  0.45411  1.0000
  H   H1280     1.0  0.70637  0.54848  0.14555  1.0000
  S   S213      1.0  0.50282  0.63704  0.24673  1.0000
  H   H1281     1.0  0.59505  0.91718  0.41343  1.0000
  H   H1282     1.0  0.53372  0.71100  0.35924  1.0000
  H   H1283     1.0  0.55518  0.71350  0.37662  1.0000
  S   S214      1.0  0.52174  0.93528  0.36986  1.0000
  S   S215      1.0  0.51617  0.79904  0.34793  1.0000
  S   S216      1.0  0.65909  0.50812  0.01591  1.0000
  H   H1284     1.0  0.57365  0.76312  0.30872  1.0000
  C   C756      1.0  0.58853  0.95961  0.39761  1.0000
  C   C757      1.0  0.57214  0.89351  0.42249  1.0000
  C   C758      1.0  0.53010  0.94862  0.43960  1.0000
  S   S217      1.0  0.63429  0.84328  0.48663  1.0000
  H   H1285     1.0  0.70061  0.87024  0.46131  1.0000
  C   C759      1.0  0.73508  0.51629  0.19787  1.0000
  C   C760      1.0  0.68384  0.80461  0.43727  1.0000
  H   H1286     1.0  0.49969  0.73730  0.18538  1.0000
  H   H1287     1.0  0.68003  0.83792  0.49381  1.0000
  C   C761      1.0  0.73515  0.81273  0.44764  1.0000
  C   C762      1.0  0.70214  0.50641  0.30189  1.0000
  H   H1288     1.0  0.53716  0.78705  0.46667  1.0000
  H   H1289     1.0  0.73283  0.81388  0.49571  1.0000
  C   C763      1.0  0.69386  0.84269  0.48333  1.0000
  H   H1290     1.0  0.58572  0.51515  0.29424  1.0000
  C   C764      1.0  0.51419  0.75597  0.48262  1.0000
  C   C765      1.0  0.72260  0.50339  0.31044  1.0000
  C   C766      1.0  0.60296  0.51539  0.29764  1.0000
  H   H1291     1.0  0.51903  0.70405  0.18249  1.0000
  H   H1292     1.0  0.51386  0.94297  0.44370  1.0000
  S   S218      1.0  0.69454  0.75093  0.49290  1.0000
  C   C767      1.0  0.50196  0.69915  0.28172  1.0000
  H   H1293     1.0  0.68729  0.79933  0.48780  1.0000
  H   H1294     1.0  0.52795  0.96289  0.42890  1.0000
  H   H1295     1.0  0.70243  0.50289  0.22344  1.0000
  C   C768      1.0  0.51444  0.89216  0.37357  1.0000
  C   C769      1.0  0.50477  0.87306  0.36831  1.0000
  H   H1296     1.0  0.57712  0.99357  0.48528  1.0000
  N   N54       1.0  0.50934  0.77938  0.48655  1.0000
  C   C770      1.0  0.50906  0.64980  0.08728  1.0000
  H   H1297     1.0  0.74334  0.80427  0.46103  1.0000
  H   H1298     1.0  0.50903  0.85820  0.37660  1.0000
  H   H1299     1.0  0.50190  0.68200  0.15365  1.0000
  C   C771      1.0  0.50277  0.69973  0.15198  1.0000
  Fe  Fe110     1.0  0.50401  0.96717  0.37538  1.0000
  H   H1300     1.0  0.51496  0.74746  0.44868  1.0000
  C   C772      1.0  0.50898  0.91166  0.36306  1.0000
  C   C773      1.0  0.51020  0.79714  0.44827  1.0000
  C   C774      1.0  0.50424  0.74614  0.46308  1.0000
  H   H1301     1.0  0.62865  0.92082  0.49626  1.0000
  H   H1302     1.0  0.53833  0.99892  0.48149  1.0000
  Fe  Fe111     1.0  0.50217  0.99864  0.41225  1.0000
  H   H1303     1.0  0.50677  0.78214  0.44035  1.0000
  H   H1304     1.0  0.50777  0.70318  0.13507  1.0000
  C   C775      1.0  0.54893  0.00070  0.46760  1.0000
  H   H1305     1.0  0.55089  0.79327  0.49948  1.0000
  C   C776      1.0  0.71799  0.80547  0.50007  1.0000
  C   C777      1.0  0.63876  0.86677  0.50074  1.0000
  Fe  Fe112     1.0  0.63719  0.80937  0.50050  1.0000
  H   H1306     1.0  0.51294  0.53161  0.83513  1.0000
  H   H1307     1.0  0.59731  0.85794  0.59327  1.0000
  H   H1308     1.0  0.55717  0.70149  0.61501  1.0000
  H   H1309     1.0  0.57444  0.95481  0.69654  1.0000
  H   H1310     1.0  0.64165  0.58266  0.77010  1.0000
  C   C778      1.0  0.66394  0.56630  0.92984  1.0000
  C   C779      1.0  0.71335  0.62111  0.52761  1.0000
  H   H1311     1.0  0.54744  0.55190  0.95411  1.0000
  H   H1312     1.0  0.66452  0.51360  0.74299  1.0000
  H   H1313     1.0  0.73030  0.59091  0.53313  1.0000
  H   H1314     1.0  0.55608  0.58177  0.89821  1.0000
  H   H1315     1.0  0.54393  0.73435  0.68512  1.0000
  N   N55       1.0  0.72382  0.60435  0.56445  1.0000
  H   H1316     1.0  0.55699  0.75494  0.64162  1.0000
  S   S219      1.0  0.65243  0.92915  0.53426  1.0000
  H   H1317     1.0  0.62423  0.55798  0.96758  1.0000
  H   H1318     1.0  0.53784  0.95309  0.63977  1.0000
  S   S220      1.0  0.58586  0.51908  0.78444  1.0000
  C   C780      1.0  0.68378  0.52570  0.95027  1.0000
  C   C781      1.0  0.64680  0.90534  0.52119  1.0000
  S   S221      1.0  0.52482  0.76840  0.60149  1.0000
  S   S222      1.0  0.63447  0.74966  0.52062  1.0000
  Fe  Fe113     1.0  0.52463  0.62302  0.80740  1.0000
  S   S223      1.0  0.55880  0.61290  0.81361  1.0000
  H   H1319     1.0  0.67217  0.56032  0.75864  1.0000
  Fe  Fe114     1.0  0.62956  0.78002  0.53901  1.0000
  S   S224      1.0  0.62126  0.78358  0.57411  1.0000
  S   S225      1.0  0.65911  0.79543  0.52525  1.0000
  H   H1320     1.0  0.53972  0.90815  0.66388  1.0000
  C   C782      1.0  0.63097  0.83931  0.56838  1.0000
  C   C783      1.0  0.55101  0.61834  0.92060  1.0000
  H   H1321     1.0  0.65344  0.56916  0.79234  1.0000
  C   C784      1.0  0.55124  0.77418  0.59359  1.0000
  C   C785      1.0  0.56441  0.78514  0.60683  1.0000
  C   C786      1.0  0.58592  0.78795  0.60076  1.0000
  C   C787      1.0  0.59416  0.78038  0.58116  1.0000
  C   C788      1.0  0.58078  0.77012  0.56758  1.0000
  C   C789      1.0  0.55946  0.76679  0.57391  1.0000
  H   H1322     1.0  0.55818  0.79103  0.62195  1.0000
  H   H1323     1.0  0.59620  0.79594  0.61130  1.0000
  H   H1324     1.0  0.58703  0.76415  0.55247  1.0000
  H   H1325     1.0  0.54935  0.75826  0.56363  1.0000
  C   C790      1.0  0.54288  0.89783  0.69609  1.0000
  H   H1326     1.0  0.55378  0.55290  0.92605  1.0000
  H   H1327     1.0  0.50998  0.95479  0.70521  1.0000
  C   C791      1.0  0.51148  0.53959  0.81918  1.0000
  C   C792      1.0  0.57872  0.54515  0.79278  1.0000
  C   C793      1.0  0.56166  0.55629  0.78312  1.0000
  C   C794      1.0  0.55517  0.57686  0.78976  1.0000
  C   C795      1.0  0.56622  0.58677  0.80560  1.0000
  C   C796      1.0  0.58361  0.57583  0.81494  1.0000
  C   C797      1.0  0.58967  0.55495  0.80876  1.0000
  H   H1328     1.0  0.55339  0.54900  0.77047  1.0000
  H   H1329     1.0  0.54186  0.58521  0.78234  1.0000
  H   H1330     1.0  0.59222  0.58340  0.82720  1.0000
  H   H1331     1.0  0.60277  0.54646  0.81641  1.0000
  H   H1332     1.0  0.62496  0.50576  0.72799  1.0000
  H   H1333     1.0  0.56906  0.61991  0.95027  1.0000
  C   C798      1.0  0.65480  0.88557  0.52934  1.0000
  H   H1334     1.0  0.51273  0.80090  0.51281  1.0000
  S   S226      1.0  0.51218  0.76091  0.70772  1.0000
  C   C799      1.0  0.65977  0.53189  0.95084  1.0000
  C   C800      1.0  0.70798  0.56817  0.57667  1.0000
  H   H1335     1.0  0.65547  0.52255  0.71760  1.0000
  C   C801      1.0  0.56802  0.69621  0.68137  1.0000
  H   H1336     1.0  0.66425  0.88519  0.54350  1.0000
  H   H1337     1.0  0.58046  0.93146  0.65310  1.0000
  Fe  Fe115     1.0  0.63702  0.96128  0.52422  1.0000
  C   C802      1.0  0.51769  0.78430  0.50822  1.0000
  C   C803      1.0  0.50314  0.90146  0.64631  1.0000
  H   H1338     1.0  0.56579  0.85213  0.51137  1.0000
  C   C804      1.0  0.70634  0.61753  0.57545  1.0000
  N   N56       1.0  0.65427  0.55555  0.94958  1.0000
  H   H1339     1.0  0.60594  0.82254  0.55413  1.0000
  C   C805      1.0  0.57128  0.93738  0.69590  1.0000
  H   H1340     1.0  0.58291  0.90082  0.57508  1.0000
  H   H1341     1.0  0.71955  0.60966  0.60801  1.0000
  Fe  Fe116     1.0  0.50202  0.82528  0.65561  1.0000
  Fe  Fe117     1.0  0.50912  0.78429  0.63028  1.0000
  H   H1342     1.0  0.52614  0.67080  0.90712  1.0000
  H   H1343     1.0  0.53516  0.59119  0.86703  1.0000
  H   H1344     1.0  0.61026  0.87925  0.54051  1.0000
  H   H1345     1.0  0.69417  0.53853  0.74030  1.0000
  H   H1346     1.0  0.54223  0.61542  0.87867  1.0000
  H   H1347     1.0  0.57098  0.83331  0.54644  1.0000
  H   H1348     1.0  0.56089  0.85984  0.54837  1.0000
  H   H1349     1.0  0.61804  0.84215  0.53723  1.0000
  H   H1350     1.0  0.52166  0.73193  0.63297  1.0000
  H   H1351     1.0  0.56066  0.76444  0.66771  1.0000
  H   H1352     1.0  0.59066  0.90982  0.54842  1.0000
  H   H1353     1.0  0.56153  0.85513  0.60674  1.0000
  N   N57       1.0  0.64687  0.54412  0.74343  1.0000
  Fe  Fe118     1.0  0.59609  0.98761  0.53198  1.0000
  H   H1354     1.0  0.57128  0.71107  0.68979  1.0000
  H   H1355     1.0  0.57257  0.70814  0.64927  1.0000
  C   C806      1.0  0.65907  0.55704  0.90797  1.0000
  C   C807      1.0  0.51011  0.70817  0.74802  1.0000
  S   S227      1.0  0.63580  0.50885  0.87386  1.0000
  H   H1356     1.0  0.66472  0.59414  0.98744  1.0000
  H   H1357     1.0  0.58776  0.83279  0.58611  1.0000
  H   H1358     1.0  0.70745  0.63473  0.57040  1.0000
  H   H1359     1.0  0.64293  0.82702  0.56280  1.0000
  H   H1360     1.0  0.59285  0.84348  0.51373  1.0000
  C   C808      1.0  0.52208  0.70315  0.67089  1.0000
  S   S228      1.0  0.51465  0.85910  0.65243  1.0000
  H   H1361     1.0  0.51013  0.66056  0.87313  1.0000
  H   H1362     1.0  0.61508  0.57622  0.74854  1.0000
  C   C809      1.0  0.54215  0.78215  0.51044  1.0000
  H   H1363     1.0  0.61486  0.54278  0.75787  1.0000
  C   C810      1.0  0.70537  0.71867  0.52288  1.0000
  N   N58       1.0  0.53759  0.59870  0.92253  1.0000
  C   C811      1.0  0.65073  0.86633  0.51923  1.0000
  H   H1364     1.0  0.65252  0.52449  0.96568  1.0000
  N   N59       1.0  0.59342  0.85476  0.55915  1.0000
  C   C812      1.0  0.61163  0.83923  0.55375  1.0000
  C   C813      1.0  0.57564  0.85035  0.54439  1.0000
  C   C814      1.0  0.51675  0.72647  0.73611  1.0000
  C   C815      1.0  0.60142  0.87717  0.55610  1.0000
  H   H1365     1.0  0.52560  0.70266  0.68824  1.0000
  C   C816      1.0  0.58043  0.85470  0.52032  1.0000
  H   H1366     1.0  0.53590  0.95796  0.71526  1.0000
  S   S229      1.0  0.60756  0.79594  0.51559  1.0000
  H   H1367     1.0  0.59264  0.98048  0.58044  1.0000
  H   H1368     1.0  0.69304  0.72561  0.53329  1.0000
  H   H1369     1.0  0.54833  0.76552  0.50805  1.0000
  C   C817      1.0  0.53197  0.71717  0.63503  1.0000
  C   C818      1.0  0.52638  0.94754  0.70544  1.0000
  H   H1370     1.0  0.71541  0.69460  0.54621  1.0000
  C   C819      1.0  0.55996  0.74968  0.65830  1.0000
  H   H1371     1.0  0.68112  0.56463  0.96804  1.0000
  H   H1372     1.0  0.71167  0.55430  0.58760  1.0000
  H   H1373     1.0  0.63901  0.85483  0.56757  1.0000
  S   S230      1.0  0.52511  0.79697  0.65849  1.0000
  H   H1374     1.0  0.63101  0.51991  0.76276  1.0000
  H   H1375     1.0  0.51878  0.50881  0.00118  1.0000
  H   H1376     1.0  0.51982  0.53553  0.78621  1.0000
  H   H1377     1.0  0.69358  0.57663  0.58329  1.0000
  C   C820      1.0  0.66211  0.52824  0.73261  1.0000
  H   H1378     1.0  0.57577  0.74140  0.65943  1.0000
  H   H1379     1.0  0.50903  0.61713  0.91477  1.0000
  H   H1380     1.0  0.65712  0.85125  0.52556  1.0000
  S   S231      1.0  0.52243  0.57283  0.99730  1.0000
  H   H1381     1.0  0.54190  0.72207  0.60162  1.0000
  H   H1382     1.0  0.63947  0.59130  0.97606  1.0000
  H   H1383     1.0  0.50895  0.50697  0.75199  1.0000
  C   C821      1.0  0.70894  0.72758  0.50236  1.0000
  C   C822      1.0  0.65750  0.55156  0.76306  1.0000
  H   H1384     1.0  0.52135  0.55403  0.81918  1.0000
  H   H1385     1.0  0.62899  0.55986  0.78350  1.0000
  H   H1386     1.0  0.70450  0.56141  0.56100  1.0000
  H   H1387     1.0  0.60267  0.93072  0.67995  1.0000
  H   H1388     1.0  0.65555  0.57404  0.72769  1.0000
  H   H1389     1.0  0.61613  0.52836  0.94680  1.0000
  H   H1390     1.0  0.70264  0.63294  0.60631  1.0000
  H   H1391     1.0  0.70978  0.81338  0.51389  1.0000
  C   C823      1.0  0.71772  0.60080  0.54167  1.0000
  C   C824      1.0  0.59300  0.92518  0.69406  1.0000
  H   H1392     1.0  0.69048  0.61263  0.57016  1.0000
  H   H1393     1.0  0.54968  0.90255  0.71124  1.0000
  H   H1394     1.0  0.52143  0.68615  0.66607  1.0000
  N   N60       1.0  0.50768  0.50500  0.79771  1.0000
  H   H1395     1.0  0.56124  0.94801  0.62373  1.0000
  C   C825      1.0  0.65687  0.58901  0.97286  1.0000
  S   S232      1.0  0.51057  0.65576  0.81531  1.0000
  H   H1396     1.0  0.72243  0.78888  0.50553  1.0000
  C   C826      1.0  0.66339  0.56534  0.96896  1.0000
  S   S233      1.0  0.62642  0.98456  0.54963  1.0000
  C   C827      1.0  0.53255  0.60105  0.88147  1.0000
  H   H1397     1.0  0.52698  0.74634  0.66585  1.0000
  C   C828      1.0  0.64230  0.56262  0.72802  1.0000
  C   C829      1.0  0.72487  0.50276  0.74636  1.0000
  H   H1398     1.0  0.51535  0.60576  0.88215  1.0000
  C   C830      1.0  0.55188  0.94197  0.63788  1.0000
  H   H1399     1.0  0.52093  0.69981  0.75874  1.0000
  C   C831      1.0  0.61614  0.52085  0.73221  1.0000
  C   C832      1.0  0.62116  0.57570  0.73179  1.0000
  H   H1400     1.0  0.62356  0.59259  0.72650  1.0000
  H   H1401     1.0  0.54737  0.88056  0.69466  1.0000
  H   H1402     1.0  0.56181  0.72935  0.61937  1.0000
  C   C833      1.0  0.61669  0.54421  0.93843  1.0000
  H   H1403     1.0  0.56446  0.93315  0.71196  1.0000
  H   H1404     1.0  0.55175  0.84661  0.58214  1.0000
  H   H1405     1.0  0.68351  0.55155  0.71641  1.0000
  S   S234      1.0  0.64267  0.51753  0.81215  1.0000
  H   H1406     1.0  0.53773  0.96368  0.67710  1.0000
  H   H1407     1.0  0.72797  0.63007  0.52392  1.0000
  H   H1408     1.0  0.64164  0.55661  0.71146  1.0000
  H   H1409     1.0  0.73390  0.58326  0.59104  1.0000
  H   H1410     1.0  0.60002  0.55071  0.93826  1.0000
  H   H1411     1.0  0.69117  0.60742  0.60613  1.0000
  H   H1412     1.0  0.54666  0.92586  0.63389  1.0000
  C   C834      1.0  0.56614  0.94150  0.65759  1.0000
  H   H1413     1.0  0.67227  0.56074  0.89633  1.0000
  C   C835      1.0  0.63470  0.90570  0.50281  1.0000
  H   H1414     1.0  0.52650  0.55578  0.93569  1.0000
  H   H1415     1.0  0.55691  0.68516  0.65150  1.0000
  C   C836      1.0  0.54943  0.71758  0.61702  1.0000
  H   H1416     1.0  0.59121  0.90760  0.69375  1.0000
  H   H1417     1.0  0.74937  0.50491  0.72120  1.0000
  H   H1418     1.0  0.56661  0.61456  0.91228  1.0000
  C   C837      1.0  0.55163  0.91016  0.67622  1.0000
  S   S235      1.0  0.56302  0.99053  0.54638  1.0000
  C   C838      1.0  0.68436  0.53647  0.72612  1.0000
  H   H1419     1.0  0.56386  0.58549  0.94110  1.0000
  H   H1420     1.0  0.51082  0.77354  0.52095  1.0000
  H   H1421     1.0  0.61368  0.88024  0.56797  1.0000
  H   H1422     1.0  0.60229  0.92841  0.70836  1.0000
  C   C839      1.0  0.53556  0.94664  0.68228  1.0000
  H   H1423     1.0  0.52274  0.94094  0.67235  1.0000
  H   H1424     1.0  0.53692  0.52104  0.80403  1.0000
  H   H1425     1.0  0.62600  0.57604  0.94524  1.0000
  C   C840      1.0  0.72752  0.58249  0.57483  1.0000
  C   C841      1.0  0.53931  0.58758  0.90139  1.0000
  H   H1426     1.0  0.74421  0.63336  0.59355  1.0000
  H   H1427     1.0  0.56923  0.89261  0.55178  1.0000
  H   H1428     1.0  0.55723  0.68611  0.69141  1.0000
  S   S236      1.0  0.60553  0.96248  0.50835  1.0000
  C   C842      1.0  0.54170  0.73616  0.66758  1.0000
  N   N61       1.0  0.53914  0.71463  0.65789  1.0000
  H   H1429     1.0  0.55942  0.87407  0.58498  1.0000
  H   H1430     1.0  0.58342  0.68702  0.67976  1.0000
  H   H1431     1.0  0.69301  0.52424  0.71624  1.0000
  Fe  Fe119     1.0  0.66257  0.76604  0.50487  1.0000
  H   H1432     1.0  0.52181  0.70371  0.63089  1.0000
  H   H1433     1.0  0.51405  0.61589  0.94228  1.0000
  C   C843      1.0  0.55935  0.70090  0.65885  1.0000
  C   C844      1.0  0.58492  0.89589  0.55819  1.0000
  N   N62       1.0  0.55596  0.93358  0.67845  1.0000
  S   S237      1.0  0.65167  0.98721  0.50310  1.0000
  S   S238      1.0  0.50777  0.62101  0.77640  1.0000
  H   H1434     1.0  0.56583  0.90104  0.66971  1.0000
  H   H1435     1.0  0.59999  0.51620  0.73804  1.0000
  C   C845      1.0  0.54307  0.55990  0.93870  1.0000
  H   H1436     1.0  0.69217  0.53226  0.93580  1.0000
  H   H1437     1.0  0.66281  0.53750  0.77311  1.0000
  H   H1438     1.0  0.60855  0.56994  0.72154  1.0000
  H   H1439     1.0  0.70088  0.63197  0.53472  1.0000
  H   H1440     1.0  0.65881  0.55605  0.98380  1.0000
  H   H1441     1.0  0.65842  0.53939  0.90794  1.0000
  H   H1442     1.0  0.53269  0.73207  0.73789  1.0000
  H   H1443     1.0  0.62216  0.54213  0.92164  1.0000
  H   H1444     1.0  0.68156  0.56724  0.93079  1.0000
  S   S239      1.0  0.61224  0.50416  0.99339  1.0000
  C   C846      1.0  0.51497  0.60620  0.92767  1.0000
  H   H1445     1.0  0.54311  0.63108  0.91056  1.0000
  C   C847      1.0  0.64427  0.56664  0.77779  1.0000
  C   C848      1.0  0.54626  0.58422  0.94024  1.0000
  H   H1446     1.0  0.68576  0.50800  0.94967  1.0000
  C   C849      1.0  0.71812  0.70104  0.53017  1.0000
  H   H1447     1.0  0.70290  0.59162  0.54129  1.0000
  H   H1448     1.0  0.53960  0.58936  0.95607  1.0000
  H   H1449     1.0  0.66213  0.59980  0.95951  1.0000
  H   H1450     1.0  0.65849  0.58340  0.92878  1.0000
  C   C850      1.0  0.51983  0.52509  0.80092  1.0000
  H   H1451     1.0  0.51450  0.90105  0.63294  1.0000
  C   C851      1.0  0.54191  0.00112  0.58331  1.0000
  C   C852      1.0  0.58649  0.85032  0.58220  1.0000
  H   H1452     1.0  0.57189  0.95806  0.65917  1.0000
  H   H1453     1.0  0.58503  0.87144  0.51684  1.0000
  C   C853      1.0  0.70522  0.61647  0.60025  1.0000
  H   H1454     1.0  0.65287  0.52333  0.93769  1.0000
  H   H1455     1.0  0.52961  0.57306  0.90163  1.0000
  C   C854      1.0  0.73433  0.69178  0.51696  1.0000
  C   C855      1.0  0.62716  0.53224  0.75018  1.0000
  H   H1456     1.0  0.74014  0.57335  0.56572  1.0000
  C   C856      1.0  0.63036  0.55941  0.95073  1.0000
  C   C857      1.0  0.57799  0.98712  0.58733  1.0000
  H   H1457     1.0  0.73032  0.51637  0.75471  1.0000
  H   H1458     1.0  0.69164  0.53040  0.96495  1.0000
  C   C858      1.0  0.55616  0.62891  0.94184  1.0000
  H   H1459     1.0  0.52518  0.89933  0.69720  1.0000
  H   H1460     1.0  0.61422  0.53123  0.71773  1.0000
  C   C859      1.0  0.56348  0.85715  0.58907  1.0000
  H   H1461     1.0  0.64403  0.56419  0.90166  1.0000
  H   H1462     1.0  0.54614  0.78624  0.52698  1.0000
  H   H1463     1.0  0.52496  0.93168  0.71342  1.0000
  H   H1464     1.0  0.56189  0.64530  0.93830  1.0000
  H   H1465     1.0  0.62666  0.83483  0.58520  1.0000
  H   H1466     1.0  0.54219  0.63061  0.95296  1.0000
  H   H1467     1.0  0.70754  0.61624  0.51194  1.0000
  C   C860      1.0  0.74448  0.61599  0.56340  1.0000
  H   H1468     1.0  0.58888  0.98482  0.61974  1.0000
  C   C861      1.0  0.56099  0.99295  0.57420  1.0000
  C   C862      1.0  0.57583  0.98952  0.60958  1.0000
  C   C863      1.0  0.49984  0.66020  0.92728  1.0000
  H   H1469     1.0  0.55701  0.60251  0.99166  1.0000
  C   C864      1.0  0.50165  0.65785  0.88825  1.0000
  H   H1470     1.0  0.50584  0.71709  0.79475  1.0000
  S   S240      1.0  0.51189  0.66699  0.95125  1.0000
  Fe  Fe120     1.0  0.50178  0.65018  0.98247  1.0000
  H   H1471     1.0  0.59577  0.59776  0.99776  1.0000
  C   C865      1.0  0.51066  0.66369  0.90751  1.0000
  H   H1472     1.0  0.50154  0.57922  0.94619  1.0000
  S   S241      1.0  0.50217  0.99808  0.68527  1.0000
  H   H1473     1.0  0.53472  0.51596  0.75989  1.0000
  H   H1474     1.0  0.50946  0.70471  0.82045  1.0000
  C   C866      1.0  0.50295  0.73767  0.72205  1.0000
  H   H1475     1.0  0.74261  0.63168  0.55478  1.0000
  H   H1476     1.0  0.61053  0.50291  0.91250  1.0000
  S   S242      1.0  0.55316  0.99953  0.64643  1.0000
  C   C867      1.0  0.55662  0.99761  0.61863  1.0000
  S   S243      1.0  0.50035  0.60495  0.82686  1.0000
  C   C868      1.0  0.56338  0.58723  0.99733  1.0000
  C   C869      1.0  0.58532  0.58449  0.00064  1.0000
  C   C870      1.0  0.54989  0.57002  0.00099  1.0000
  C   C871      1.0  0.90373  0.34556  0.49819  1.0000
  C   C872      1.0  0.91861  0.47671  0.37151  1.0000
  S   S244      1.0  0.94403  0.46325  0.37063  1.0000
  C   C873      1.0  0.82418  0.41651  0.45100  1.0000
  Fe  Fe121     1.0  0.78977  0.46116  0.37921  1.0000
  S   S245      1.0  0.80742  0.47071  0.34886  1.0000
  S   S246      1.0  0.78942  0.42600  0.38828  1.0000
  C   C874      1.0  0.87978  0.47512  0.36892  1.0000
  S   S247      1.0  0.77989  0.34029  0.47856  1.0000
  H   H1477     1.0  0.82661  0.40909  0.40926  1.0000
  C   C875      1.0  0.82342  0.41038  0.47512  1.0000
  C   C876      1.0  0.77810  0.41901  0.41350  1.0000
  C   C877      1.0  0.77044  0.43467  0.42760  1.0000
  Fe  Fe122     1.0  0.97546  0.47912  0.37696  1.0000
  S   S248      1.0  0.76506  0.48844  0.30861  1.0000
  C   C878      1.0  0.88355  0.35202  0.49085  1.0000
  C   C879      1.0  0.77752  0.39733  0.41984  1.0000
  H   H1478     1.0  0.86581  0.46593  0.36654  1.0000
  H   H1479     1.0  0.81575  0.37404  0.44959  1.0000
  S   S249      1.0  0.99138  0.32592  0.49940  1.0000
  H   H1480     1.0  0.78326  0.38514  0.40893  1.0000
  H   H1481     1.0  0.91734  0.35516  0.49429  1.0000
  H   H1482     1.0  0.93315  0.37410  0.38551  1.0000
  H   H1483     1.0  0.88186  0.36657  0.48122  1.0000
  H   H1484     1.0  0.88408  0.42262  0.41896  1.0000
  S   S250      1.0  0.84073  0.34888  0.48619  1.0000
  H   H1485     1.0  0.82589  0.44795  0.41770  1.0000
  H   H1486     1.0  0.76965  0.37458  0.44525  1.0000
  C   C880      1.0  0.97888  0.39672  0.37720  1.0000
  H   H1487     1.0  0.85446  0.40872  0.40502  1.0000
  H   H1488     1.0  0.96475  0.37250  0.39726  1.0000
  C   C881      1.0  0.90019  0.46490  0.36903  1.0000
  H   H1489     1.0  0.92251  0.41771  0.40530  1.0000
  H   H1490     1.0  0.90176  0.44783  0.36673  1.0000
  H   H1491     1.0  0.77132  0.41376  0.30399  1.0000
  H   H1492     1.0  0.96056  0.45523  0.42850  1.0000
  H   H1493     1.0  0.93332  0.36353  0.42236  1.0000
  C   C882      1.0  0.92265  0.38813  0.38924  1.0000
  H   H1494     1.0  0.91488  0.39244  0.37393  1.0000
  C   C883      1.0  0.84005  0.44006  0.40992  1.0000
  H   H1495     1.0  0.95977  0.39714  0.44375  1.0000
  C   C884      1.0  0.99712  0.40719  0.46550  1.0000
  H   H1496     1.0  0.83297  0.35477  0.43688  1.0000
  C   C885      1.0  0.95109  0.44059  0.42750  1.0000
  H   H1497     1.0  0.82186  0.43422  0.45011  1.0000
  H   H1498     1.0  0.83812  0.44241  0.39239  1.0000
  H   H1499     1.0  0.91015  0.38343  0.40126  1.0000
  H   H1500     1.0  0.89673  0.42481  0.44388  1.0000
  S   S251      1.0  0.96028  0.36961  0.49581  1.0000
  H   H1501     1.0  0.93814  0.36537  0.45014  1.0000
  C   C886      1.0  0.82800  0.37202  0.43654  1.0000
  Fe  Fe123     1.0  0.99243  0.35842  0.48307  1.0000
  H   H1502     1.0  0.77072  0.45144  0.42278  1.0000
  H   H1503     1.0  0.86496  0.41444  0.46452  1.0000
  S   S252      1.0  0.80378  0.48648  0.39844  1.0000
  C   C887      1.0  0.86269  0.42009  0.44767  1.0000
  H   H1504     1.0  0.79397  0.42463  0.31586  1.0000
  C   C888      1.0  0.94456  0.36947  0.43382  1.0000
  H   H1505     1.0  0.82083  0.37562  0.42086  1.0000
  C   C889      1.0  0.94745  0.39389  0.43192  1.0000
  H   H1506     1.0  0.98444  0.38642  0.40975  1.0000
  C   C890      1.0  0.84137  0.41580  0.41527  1.0000
  H   H1507     1.0  0.83278  0.39563  0.47917  1.0000
  H   H1508     1.0  0.96595  0.39943  0.36570  1.0000
  H   H1509     1.0  0.77336  0.44235  0.30664  1.0000
  C   C891      1.0  0.93461  0.40759  0.39661  1.0000
  H   H1510     1.0  0.97964  0.42189  0.42073  1.0000
  C   C892      1.0  0.97043  0.38886  0.39938  1.0000
  H   H1511     1.0  0.88917  0.39901  0.43586  1.0000
  H   H1512     1.0  0.86003  0.38013  0.42794  1.0000
  C   C893      1.0  0.84767  0.38549  0.43997  1.0000
  H   H1513     1.0  0.85440  0.38032  0.45555  1.0000
  H   H1514     1.0  0.85469  0.44831  0.41388  1.0000
  H   H1515     1.0  0.80670  0.40709  0.48026  1.0000
  H   H1516     1.0  0.93242  0.40175  0.43813  1.0000
  H   H1517     1.0  0.75730  0.39823  0.37394  1.0000
  H   H1518     1.0  0.78587  0.44122  0.49626  1.0000
  H   H1519     1.0  0.85967  0.43771  0.44864  1.0000
  C   C894      1.0  0.76990  0.39132  0.44044  1.0000
  C   C895      1.0  0.86559  0.33991  0.49604  1.0000
  H   H1520     1.0  0.99001  0.38425  0.37049  1.0000
  C   C896      1.0  0.77641  0.42646  0.31448  1.0000
  N   N63       1.0  0.84399  0.40948  0.43851  1.0000
  H   H1521     1.0  0.82917  0.42359  0.48469  1.0000
  H   H1522     1.0  0.94851  0.43448  0.44416  1.0000
  N   N64       1.0  0.95376  0.40322  0.41016  1.0000
  H   H1523     1.0  0.99042  0.43869  0.47724  1.0000
  C   C897      1.0  0.76242  0.42863  0.44806  1.0000
  H   H1524     1.0  0.93575  0.44575  0.42040  1.0000
  H   H1525     1.0  0.93860  0.41772  0.38219  1.0000
  C   C898      1.0  0.88426  0.41623  0.43567  1.0000
  H   H1526     1.0  0.75500  0.38012  0.31199  1.0000
  S   S253      1.0  0.76002  0.48029  0.37176  1.0000
  H   H1527     1.0  0.80964  0.41078  0.44378  1.0000
  H   H1528     1.0  0.96694  0.43290  0.39790  1.0000
  H   H1529     1.0  0.96009  0.36054  0.43210  1.0000
  C   C899      1.0  0.96386  0.42441  0.41345  1.0000
  H   H1530     1.0  0.98764  0.39976  0.47806  1.0000
  Fe  Fe124     1.0  0.77812  0.49167  0.34224  1.0000
  Fe  Fe125     1.0  0.76583  0.36888  0.49524  1.0000
  Fe  Fe126     1.0  0.80760  0.34265  0.50017  1.0000
  C   C900      1.0  0.76237  0.40696  0.45462  1.0000
  H   H1531     1.0  0.77387  0.41162  0.34576  1.0000
  C   C901      1.0  0.76587  0.42513  0.33710  1.0000
  H   H1532     1.0  0.98818  0.41141  0.37821  1.0000
  H   H1533     1.0  0.77078  0.43946  0.34567  1.0000
  H   H1534     1.0  0.75836  0.38233  0.34025  1.0000
  S   S254      1.0  0.75280  0.39991  0.48056  1.0000
  H   H1535     1.0  0.76389  0.45961  0.49971  1.0000
  H   H1536     1.0  0.75642  0.44079  0.45889  1.0000
  S   S255      1.0  0.99671  0.50039  0.35630  1.0000
  C   C902      1.0  0.87762  0.49731  0.37116  1.0000
  Fe  Fe127     1.0  0.81936  0.49777  0.36760  1.0000
  S   S256      1.0  0.97719  0.49896  0.40593  1.0000
  C   C903      1.0  0.91637  0.49882  0.37431  1.0000
  C   C904      1.0  0.99883  0.42939  0.46512  1.0000
  H   H1537     1.0  0.91541  0.34439  0.56260  1.0000
  S   S257      1.0  0.76943  0.49005  0.63805  1.0000
  H   H1538     1.0  0.86537  0.31873  0.57935  1.0000
  H   H1539     1.0  0.88746  0.45991  0.59096  1.0000
  H   H1540     1.0  0.86790  0.46800  0.62328  1.0000
  C   C905      1.0  0.90818  0.48673  0.61555  1.0000
  H   H1541     1.0  0.82276  0.36034  0.59153  1.0000
  H   H1542     1.0  0.83679  0.39370  0.53680  1.0000
  H   H1543     1.0  0.85085  0.39573  0.56111  1.0000
  H   H1544     1.0  0.88270  0.34937  0.54067  1.0000
  S   S258      1.0  0.96734  0.48533  0.62457  1.0000
  H   H1545     1.0  0.85754  0.32054  0.55230  1.0000
  Fe  Fe128     1.0  0.79787  0.46798  0.63161  1.0000
  S   S259      1.0  0.79871  0.45527  0.66545  1.0000
  S   S260      1.0  0.80578  0.45096  0.60066  1.0000
  Fe  Fe129     1.0  0.77204  0.47959  0.67284  1.0000
  Fe  Fe130     1.0  0.82095  0.48198  0.67082  1.0000
  S   S261      1.0  0.85099  0.47357  0.68901  1.0000
  H   H1546     1.0  0.84261  0.44227  0.63741  1.0000
  Fe  Fe131     1.0  0.77833  0.35114  0.53911  1.0000
  S   S262      1.0  0.79346  0.32079  0.52580  1.0000
  S   S263      1.0  0.77751  0.35907  0.57435  1.0000
  C   C906      1.0  0.88202  0.35317  0.55790  1.0000
  H   H1547     1.0  0.86564  0.34912  0.60100  1.0000
  C   C907      1.0  0.89953  0.33922  0.56876  1.0000
  H   H1548     1.0  0.89859  0.32213  0.56454  1.0000
  H   H1549     1.0  0.78145  0.42653  0.53318  1.0000
  C   C908      1.0  0.79813  0.42507  0.59455  1.0000
  C   C909      1.0  0.80394  0.41742  0.57428  1.0000
  C   C910      1.0  0.79731  0.39746  0.56798  1.0000
  C   C911      1.0  0.78530  0.38458  0.58201  1.0000
  C   C912      1.0  0.77993  0.39194  0.60258  1.0000
  C   C913      1.0  0.78616  0.41227  0.60880  1.0000
  H   H1550     1.0  0.91842  0.49866  0.62255  1.0000
  H   H1551     1.0  0.93074  0.44789  0.59367  1.0000
  C   C914      1.0  0.98517  0.48195  0.52005  1.0000
  H   H1552     1.0  0.78163  0.41804  0.62452  1.0000
  H   H1553     1.0  0.80161  0.39202  0.55227  1.0000
  H   H1554     1.0  0.89156  0.49319  0.61697  1.0000
  H   H1555     1.0  0.83015  0.30444  0.57407  1.0000
  H   H1556     1.0  0.80537  0.43571  0.75849  1.0000
  C   C915      1.0  0.81180  0.48869  0.74535  1.0000
  H   H1557     1.0  0.89016  0.29971  0.52492  1.0000
  H   H1558     1.0  0.89046  0.42818  0.66450  1.0000
  C   C916      1.0  0.76596  0.46088  0.55434  1.0000
  H   H1559     1.0  0.77222  0.43912  0.77107  1.0000
  H   H1560     1.0  0.92838  0.46004  0.62612  1.0000
  H   H1561     1.0  0.86861  0.37507  0.58918  1.0000
  C   C917      1.0  0.90623  0.32673  0.51056  1.0000
  H   H1562     1.0  0.91751  0.43749  0.66238  1.0000
  Fe  Fe132     1.0  0.96053  0.33860  0.51468  1.0000
  C   C918      1.0  0.78765  0.43972  0.72020  1.0000
  H   H1563     1.0  0.90932  0.46897  0.64514  1.0000
  H   H1564     1.0  0.89908  0.34075  0.58637  1.0000
  C   C919      1.0  0.87525  0.48602  0.68170  1.0000
  C   C920      1.0  0.83193  0.32192  0.57590  1.0000
  H   H1565     1.0  0.87520  0.45762  0.64854  1.0000
  C   C921      1.0  0.90528  0.42688  0.63185  1.0000
  H   H1566     1.0  0.82918  0.32495  0.59316  1.0000
  N   N65       1.0  0.89669  0.44775  0.62243  1.0000
  H   H1567     1.0  0.78508  0.47709  0.77737  1.0000
  C   C922      1.0  0.96334  0.40358  0.59576  1.0000
  H   H1568     1.0  0.97240  0.48556  0.53227  1.0000
  C   C923      1.0  0.83645  0.36822  0.59808  1.0000
  H   H1569     1.0  0.78274  0.42997  0.73436  1.0000
  C   C924      1.0  0.91690  0.44078  0.58642  1.0000
  C   C925      1.0  0.90633  0.42578  0.65648  1.0000
  N   N66       1.0  0.85957  0.35122  0.56711  1.0000
  H   H1570     1.0  0.84513  0.35429  0.53617  1.0000
  H   H1571     1.0  0.91260  0.40965  0.66153  1.0000
  H   H1572     1.0  0.91636  0.44787  0.56996  1.0000
  H   H1573     1.0  0.95773  0.39063  0.60606  1.0000
  H   H1574     1.0  0.95837  0.38717  0.56656  1.0000
  S   S264      1.0  0.93112  0.31886  0.52120  1.0000
  H   H1575     1.0  0.88508  0.43229  0.59485  1.0000
  H   H1576     1.0  0.86460  0.38771  0.53641  1.0000
  H   H1577     1.0  0.92185  0.42340  0.62563  1.0000
  C   C926      1.0  0.77998  0.47244  0.76130  1.0000
  C   C927      1.0  0.84978  0.38633  0.54645  1.0000
  H   H1578     1.0  0.80131  0.43159  0.71168  1.0000
  C   C928      1.0  0.79262  0.46335  0.72437  1.0000
  C   C929      1.0  0.91131  0.46526  0.62796  1.0000
  H   H1579     1.0  0.84237  0.43158  0.75061  1.0000
  C   C930      1.0  0.96383  0.40156  0.57346  1.0000
  C   C931      1.0  0.84483  0.36271  0.55166  1.0000
  H   H1580     1.0  0.78148  0.45346  0.55919  1.0000
  H   H1581     1.0  0.82795  0.36243  0.55724  1.0000
  C   C932      1.0  0.85462  0.32774  0.56826  1.0000
  H   H1582     1.0  0.83561  0.36497  0.61563  1.0000
  C   C933      1.0  0.85862  0.36068  0.58910  1.0000
  H   H1583     1.0  0.81930  0.32994  0.56634  1.0000
  S   S265      1.0  0.79431  0.37262  0.51498  1.0000
  H   H1584     1.0  0.77849  0.47347  0.71983  1.0000
  H   H1585     1.0  0.88733  0.36995  0.55848  1.0000
  H   H1586     1.0  0.84608  0.45951  0.74593  1.0000
  C   C934      1.0  0.85785  0.43609  0.62996  1.0000
  H   H1587     1.0  0.99285  0.35458  0.59082  1.0000
  H   H1588     1.0  0.83422  0.38587  0.59607  1.0000
  H   H1589     1.0  0.92890  0.47957  0.68941  1.0000
  S   S266      1.0  0.97127  0.42438  0.63242  1.0000
  C   C935      1.0  0.89550  0.44562  0.59859  1.0000
  C   C936      1.0  0.89459  0.47704  0.68906  1.0000
  C   C937      1.0  0.97774  0.43711  0.56913  1.0000
  H   H1590     1.0  0.80549  0.46756  0.71246  1.0000
  H   H1591     1.0  0.85436  0.43259  0.61319  1.0000
  H   H1592     1.0  0.89448  0.46269  0.69913  1.0000
  C   C938      1.0  0.91413  0.48655  0.68352  1.0000
  Fe  Fe133     1.0  0.98377  0.45665  0.63934  1.0000
  C   C939      1.0  0.83472  0.44652  0.74403  1.0000
  C   C940      1.0  0.87467  0.45337  0.63144  1.0000
  S   S267      1.0  0.98412  0.46999  0.67217  1.0000
  H   H1593     1.0  0.77007  0.47478  0.54368  1.0000
  H   H1594     1.0  0.92011  0.42323  0.58545  1.0000
  C   C941      1.0  0.97120  0.41831  0.56019  1.0000
  H   H1595     1.0  0.86227  0.42115  0.63894  1.0000
  S   S268      1.0  0.97321  0.41588  0.53248  1.0000
  H   H1596     1.0  0.89598  0.41319  0.62676  1.0000
  Fe  Fe134     1.0  0.97880  0.38192  0.52252  1.0000
  S   S269      1.0  0.97678  0.35188  0.54271  1.0000
  H   H1597     1.0  0.98874  0.35174  0.61901  1.0000
  H   H1598     1.0  0.77072  0.38202  0.61363  1.0000
  C   C942      1.0  0.88832  0.31438  0.51546  1.0000
  H   H1599     1.0  0.77428  0.43941  0.70905  1.0000
  C   C943      1.0  0.97778  0.43889  0.59132  1.0000
  C   C944      1.0  0.97059  0.42218  0.60467  1.0000
  H   H1600     1.0  0.81333  0.42718  0.56324  1.0000
  N   N67       1.0  0.79920  0.46845  0.74662  1.0000
  S   S270      1.0  0.82187  0.49303  0.63660  1.0000
  C   C945      1.0  0.76448  0.45401  0.76462  1.0000
  C   C946      1.0  0.86801  0.32102  0.50835  1.0000
  H   H1601     1.0  0.98136  0.49165  0.50549  1.0000
  H   H1602     1.0  0.75610  0.45098  0.74971  1.0000
  H   H1603     1.0  0.81743  0.45533  0.77297  1.0000
  H   H1604     1.0  0.81944  0.49140  0.76084  1.0000
  C   C947      1.0  0.81342  0.45113  0.75640  1.0000
  H   H1605     1.0  0.83256  0.44428  0.72674  1.0000
  H   H1606     1.0  0.82516  0.48731  0.73322  1.0000
  H   H1607     1.0  0.85433  0.31136  0.51206  1.0000
  H   H1608     1.0  0.98328  0.45015  0.55895  1.0000
  C   C948      1.0  0.75522  0.47051  0.57466  1.0000
  H   H1609     1.0  0.91322  0.48540  0.59847  1.0000
  H   H1610     1.0  0.75786  0.42531  0.57159  1.0000
  H   H1611     1.0  0.76987  0.48605  0.75520  1.0000
  H   H1612     1.0  0.75823  0.39724  0.54579  1.0000
  C   C949      1.0  0.75227  0.14292  0.52426  1.0000
  H   H1613     1.0  0.75181  0.45890  0.77652  1.0000
  H   H1614     1.0  0.98380  0.45311  0.59799  1.0000
  H   H1615     1.0  0.75011  0.14515  0.54166  1.0000
  H   H1616     1.0  0.98432  0.46468  0.51669  1.0000
  C   C950      1.0  0.76764  0.43517  0.52574  1.0000
  C   C951      1.0  0.77666  0.45071  0.50839  1.0000
  Fe  Fe135     1.0  0.76421  0.32064  0.50538  1.0000
  H   H1617     1.0  0.78782  0.46200  0.51499  1.0000
  H   H1618     1.0  0.76639  0.48166  0.58160  1.0000
  H   H1619     1.0  0.76928  0.14637  0.52064  1.0000
  N   N68       1.0  0.75317  0.44499  0.54280  1.0000
  Fe  Fe136     1.0  0.96926  0.49963  0.65670  1.0000
  H   H1620     1.0  0.75948  0.42280  0.51707  1.0000
  H   H1621     1.0  0.75187  0.45817  0.58731  1.0000
  H   H1622     1.0  0.74972  0.12593  0.52057  1.0000
  H   H1623     1.0  0.82771  0.55754  0.38510  1.0000
  S   S271      1.0  0.94441  0.64642  0.48440  1.0000
  S   S272      1.0  0.79174  0.52000  0.35835  1.0000
  C   C952      1.0  0.97137  0.62404  0.41797  1.0000
  H   H1624     1.0  0.77595  0.57904  0.46587  1.0000
  C   C953      1.0  0.88017  0.64318  0.49433  1.0000
  H   H1625     1.0  0.86613  0.64575  0.48492  1.0000
  N   N69       1.0  0.94673  0.59239  0.42886  1.0000
  H   H1626     1.0  0.92278  0.63445  0.41591  1.0000
  Fe  Fe137     1.0  0.79504  0.61920  0.47643  1.0000
  H   H1627     1.0  0.76053  0.54509  0.45515  1.0000
  S   S273      1.0  0.79746  0.61234  0.44115  1.0000
  S   S274      1.0  0.75844  0.52498  0.41475  1.0000
  H   H1628     1.0  0.97992  0.63070  0.40358  1.0000
  C   C954      1.0  0.94760  0.56851  0.42545  1.0000
  H   H1629     1.0  0.85713  0.58261  0.41299  1.0000
  H   H1630     1.0  0.82420  0.52587  0.45918  1.0000
  H   H1631     1.0  0.82832  0.56360  0.45698  1.0000
  H   H1632     1.0  0.82642  0.53221  0.40998  1.0000
  C   C955      1.0  0.82423  0.52070  0.44238  1.0000
  H   H1633     1.0  0.75002  0.69355  0.48590  1.0000
  H   H1634     1.0  0.85627  0.58587  0.47154  1.0000
  H   H1635     1.0  0.87107  0.58495  0.44673  1.0000
  H   H1636     1.0  0.95940  0.63633  0.42325  1.0000
  C   C956      1.0  0.78529  0.58875  0.43372  1.0000
  C   C957      1.0  0.77621  0.57495  0.44918  1.0000
  H   H1637     1.0  0.90214  0.65018  0.46803  1.0000
  C   C958      1.0  0.76838  0.54982  0.42159  1.0000
  C   C959      1.0  0.77735  0.56366  0.40607  1.0000
  C   C960      1.0  0.78556  0.58320  0.41211  1.0000
  H   H1638     1.0  0.77786  0.55935  0.38943  1.0000
  H   H1639     1.0  0.79242  0.59388  0.40004  1.0000
  H   H1640     1.0  0.97526  0.59184  0.40823  1.0000
  C   C961      1.0  0.95423  0.59577  0.45118  1.0000
  H   H1641     1.0  0.97045  0.58836  0.45311  1.0000
  H   H1642     1.0  0.85284  0.54962  0.46190  1.0000
  C   C962      1.0  0.93983  0.58712  0.46967  1.0000
  S   S275      1.0  0.80320  0.65109  0.48980  1.0000
  H   H1643     1.0  0.84443  0.59665  0.44790  1.0000
  H   H1644     1.0  0.85668  0.55615  0.38294  1.0000
  C   C963      1.0  0.96145  0.60275  0.41226  1.0000
  H   H1645     1.0  0.86407  0.53103  0.40841  1.0000
  H   H1646     1.0  0.82921  0.58175  0.41615  1.0000
  C   C964      1.0  0.82654  0.53950  0.42601  1.0000
  C   C965      1.0  0.92409  0.60047  0.42608  1.0000
  C   C966      1.0  0.91927  0.62432  0.43038  1.0000
  H   H1647     1.0  0.92373  0.59502  0.46983  1.0000
  H   H1648     1.0  0.75534  0.52898  0.17147  1.0000
  C   C967      1.0  0.90062  0.64559  0.48477  1.0000
  H   H1649     1.0  0.92794  0.63027  0.44396  1.0000
  C   C968      1.0  0.94333  0.56133  0.40256  1.0000
  H   H1650     1.0  0.76705  0.50676  0.18656  1.0000
  H   H1651     1.0  0.90215  0.62663  0.43512  1.0000
  C   C969      1.0  0.76754  0.55569  0.44309  1.0000
  H   H1652     1.0  0.95328  0.60558  0.39685  1.0000
  H   H1653     1.0  0.91258  0.59081  0.43580  1.0000
  H   H1654     1.0  0.89043  0.55654  0.43888  1.0000
  C   C970      1.0  0.75203  0.51340  0.17970  1.0000
  H   H1655     1.0  0.94694  0.59100  0.48504  1.0000
  H   H1656     1.0  0.96351  0.56146  0.42966  1.0000
  C   C971      1.0  0.86530  0.53925  0.42382  1.0000
  H   H1657     1.0  0.95504  0.56761  0.39050  1.0000
  C   C972      1.0  0.85499  0.58341  0.45411  1.0000
  H   H1658     1.0  0.92697  0.56570  0.39759  1.0000
  H   H1659     1.0  0.95613  0.61291  0.45445  1.0000
  H   H1660     1.0  0.94509  0.54358  0.40216  1.0000
  H   H1661     1.0  0.91921  0.59824  0.40939  1.0000
  S   S276      1.0  0.76499  0.61598  0.49660  1.0000
  H   H1662     1.0  0.93587  0.56022  0.43617  1.0000
  H   H1663     1.0  0.93873  0.56948  0.46965  1.0000
  H   H1664     1.0  0.83666  0.50795  0.43966  1.0000
  C   C973      1.0  0.88673  0.55041  0.42305  1.0000
  H   H1665     1.0  0.89956  0.53842  0.41881  1.0000
  N   N70       1.0  0.84565  0.55319  0.42815  1.0000
  C   C974      1.0  0.84254  0.56582  0.38847  1.0000
  H   H1666     1.0  0.89453  0.52622  0.37564  1.0000
  C   C975      1.0  0.84512  0.56146  0.45072  1.0000
  H   H1667     1.0  0.86675  0.52618  0.43616  1.0000
  C   C976      1.0  0.84368  0.57167  0.41218  1.0000
  H   H1668     1.0  0.81173  0.54952  0.42751  1.0000
  H   H1669     1.0  0.85125  0.69948  0.49179  1.0000
  H   H1670     1.0  0.84219  0.58081  0.37850  1.0000
  H   H1671     1.0  0.88738  0.56331  0.41056  1.0000
  H   H1672     1.0  0.98344  0.62141  0.43046  1.0000
  C   C977      1.0  0.91903  0.64264  0.49687  1.0000
  H   H1673     1.0  0.80859  0.51337  0.44018  1.0000
  H   H1674     1.0  0.93039  0.50810  0.37612  1.0000
  Fe  Fe138     1.0  0.77566  0.50689  0.38830  1.0000
  S   S277      1.0  0.81570  0.59943  0.49850  1.0000
  C   C978      1.0  0.89600  0.50904  0.37405  1.0000
  S   S278      1.0  0.85250  0.51128  0.37024  1.0000
  H   H1675     1.0  0.82316  0.69617  0.49115  1.0000
  H   H1676     1.0  0.80257  0.72854  0.49856  1.0000
  Fe  Fe139     1.0  0.97462  0.63598  0.50151  1.0000
  C   C979      1.0  0.83709  0.69449  0.50156  1.0000
  C   C980      1.0  0.79518  0.70518  0.52486  1.0000
  C   C981      1.0  0.94668  0.55960  0.59546  1.0000
  H   H1677     1.0  0.94725  0.59294  0.56769  1.0000
  H   H1678     1.0  0.96175  0.56609  0.58860  1.0000
  H   H1679     1.0  0.94947  0.61443  0.58628  1.0000
  C   C982      1.0  0.83463  0.70861  0.52137  1.0000
  C   C983      1.0  0.95245  0.53747  0.60555  1.0000
  S   S279      1.0  0.85266  0.63758  0.52952  1.0000
  C   C984      1.0  0.96156  0.57466  0.64117  1.0000
  H   H1680     1.0  0.89515  0.52897  0.65392  1.0000
  C   C985      1.0  0.87798  0.63839  0.51625  1.0000
  S   S280      1.0  0.79255  0.54865  0.63378  1.0000
  Fe  Fe140     1.0  0.78637  0.59854  0.51984  1.0000
  S   S281      1.0  0.79376  0.62835  0.53652  1.0000
  H   H1681     1.0  0.80035  0.71902  0.56396  1.0000
  C   C986      1.0  0.78918  0.55318  0.60615  1.0000
  C   C987      1.0  0.78148  0.53730  0.59340  1.0000
  C   C988      1.0  0.77788  0.54171  0.57163  1.0000
  C   C989      1.0  0.78240  0.56183  0.56239  1.0000
  C   C990      1.0  0.79059  0.57751  0.57502  1.0000
  C   C991      1.0  0.79372  0.57328  0.59689  1.0000
  H   H1682     1.0  0.79429  0.59299  0.56806  1.0000
  H   H1683     1.0  0.79978  0.58557  0.60666  1.0000
  C   C992      1.0  0.92401  0.59210  0.59535  1.0000
  C   C993      1.0  0.91682  0.63727  0.51865  1.0000
  C   C994      1.0  0.89638  0.63545  0.52834  1.0000
  H   H1684     1.0  0.93695  0.55627  0.58142  1.0000
  H   H1685     1.0  0.93086  0.63513  0.52816  1.0000
  H   H1686     1.0  0.89480  0.63192  0.54533  1.0000
  Fe  Fe141     1.0  0.77440  0.64639  0.51180  1.0000
  H   H1687     1.0  0.78720  0.67726  0.56112  1.0000
  H   H1688     1.0  0.94356  0.60235  0.62926  1.0000
  H   H1689     1.0  0.93805  0.52804  0.60887  1.0000
  C   C995      1.0  0.91828  0.56501  0.62341  1.0000
  H   H1690     1.0  0.90664  0.55743  0.61314  1.0000
  S   S282      1.0  0.99531  0.61075  0.57659  1.0000
  H   H1691     1.0  0.78148  0.70351  0.53646  1.0000
  H   H1692     1.0  0.80761  0.65869  0.56982  1.0000
  H   H1693     1.0  0.84662  0.73186  0.56085  1.0000
  C   C996      1.0  0.91446  0.50539  0.67089  1.0000
  H   H1694     1.0  0.95129  0.56296  0.64960  1.0000
  C   C997      1.0  0.81502  0.72031  0.55355  1.0000
  C   C998      1.0  0.95085  0.58733  0.62265  1.0000
  H   H1695     1.0  0.83411  0.72566  0.51573  1.0000
  N   N71       1.0  0.93524  0.57576  0.60969  1.0000
  H   H1696     1.0  0.78996  0.51578  0.75353  1.0000
  H   H1697     1.0  0.92804  0.61456  0.56838  1.0000
  C   C999      1.0  0.80430  0.67570  0.56500  1.0000
  Fe  Fe142     1.0  0.79363  0.51414  0.64545  1.0000
  C   C1000     1.0  0.93827  0.60394  0.57859  1.0000
  C   C1001     1.0  0.83467  0.72069  0.56777  1.0000
  H   H1698     1.0  0.89506  0.59146  0.63070  1.0000
  H   H1699     1.0  0.91127  0.58450  0.58647  1.0000
  H   H1700     1.0  0.91607  0.58776  0.64992  1.0000
  H   H1701     1.0  0.75678  0.60659  0.55410  1.0000
  S   S283      1.0  0.93854  0.51858  0.66462  1.0000
  S   S284      1.0  0.77592  0.56743  0.53554  1.0000
  Fe  Fe143     1.0  0.82179  0.63075  0.51346  1.0000
  H   H1702     1.0  0.96260  0.52825  0.59394  1.0000
  H   H1703     1.0  0.82957  0.72599  0.58402  1.0000
  H   H1704     1.0  0.91584  0.60490  0.60487  1.0000
  H   H1705     1.0  0.89492  0.56952  0.64944  1.0000
  H   H1706     1.0  0.96415  0.59327  0.61215  1.0000
  H   H1707     1.0  0.96155  0.53838  0.62027  1.0000
  H   H1708     1.0  0.78906  0.74022  0.52181  1.0000
  C   C1002     1.0  0.90554  0.57958  0.63911  1.0000
  H   H1709     1.0  0.84267  0.70481  0.57022  1.0000
  H   H1710     1.0  0.92491  0.55155  0.63326  1.0000
  H   H1711     1.0  0.96561  0.58597  0.65368  1.0000
  S   S285      1.0  0.75061  0.67031  0.52757  1.0000
  S   S286      1.0  0.99392  0.65264  0.52563  1.0000
  H   H1712     1.0  0.97652  0.56633  0.63560  1.0000
  H   H1713     1.0  0.76982  0.62874  0.58139  1.0000
  C   C1003     1.0  0.87564  0.50457  0.66867  1.0000
  C   C1004     1.0  0.89511  0.51437  0.66358  1.0000
  H   H1714     1.0  0.81341  0.73674  0.54637  1.0000
  S   S287      1.0  0.79451  0.50534  0.68062  1.0000
  C   C1005     1.0  0.79924  0.50958  0.73946  1.0000
  H   H1715     1.0  0.75758  0.60698  0.59510  1.0000
  H   H1716     1.0  0.78837  0.50753  0.72619  1.0000
  H   H1717     1.0  0.81061  0.52211  0.73429  1.0000
  H   H1718     1.0  0.77796  0.52177  0.60041  1.0000
  C   C1006     1.0  0.81896  0.68149  0.54558  1.0000
  H   H1719     1.0  0.77150  0.52952  0.56196  1.0000
  N   N72       1.0  0.81598  0.70390  0.53633  1.0000
  H   H1720     1.0  0.86088  0.51169  0.66294  1.0000
  H   H1721     1.0  0.84989  0.70651  0.52991  1.0000
  S   S288      1.0  0.97506  0.60441  0.51923  1.0000
  H   H1722     1.0  0.81621  0.66949  0.53326  1.0000
  H   H1723     1.0  0.83572  0.67799  0.55017  1.0000
  H   H1724     1.0  0.80744  0.68533  0.57910  1.0000
  H   H1725     1.0  0.84000  0.67740  0.50611  1.0000
  C   C1007     1.0  0.75421  0.62131  0.58481  1.0000
  H   H1726     1.0  0.79395  0.69156  0.51393  1.0000
  C   C1008     1.0  0.79056  0.72596  0.51167  1.0000
  H   H1727     1.0  0.77497  0.72464  0.50401  1.0000
  Fe  Fe144     1.0  0.99650  0.61994  0.54168  1.0000
  H   H1728     1.0  0.99939  0.57779  0.54513  1.0000
