data_image0
_chemical_formula_structural       FeS2FeS2FeSFeS3FeS2FeS2FeSFeS3C2HC3H4CHCH2C2H3C6H4C3H2NC4H11CH3C2HCH7CNC4H2CH7CH12C4H4C2H2CHNC3HCH9C2HCH5CFeS2FeS2FeSFeS3FeS2FeS2FeSFeS3H2C2H2C4H2CH3C6H5C2H2C3H2C3H2NCH2C2H2NHC2H5CH4C2HCHC2H8NH3C2H3C3H2CH3C2H9CH2NC7H8CH3C3H12NCHCH6CH6CH2C2H2C2H2CH2C3HCH2CH4FeS2FeS2FeSFeS3FeS2FeS2FeSFeS3CHCH4CH2CH2C2H3C6H4C2H3C3H4CH3CH7CHC2H3C2HC2HCH4NC7H5CH10C2NHC3HCH4NH2CHC2H5CH4CH4CHCH2C3NCH4CHC2HCH5C2HCH5CNHCH2CHFeS2FeS2FeSFeS3FeS2FeS2FeSFeS3HCH3C6H4C2H2C4HC3H2C3HCHC2H4C2H2CH3CH2C2H5CHNCHCH3CH2C2H6NC8H22NHC2HCH4CHCH5CH3CNH2C2H4CH3C2H4CH2CFeS2FeS2FeSFeS3FeS2FeS2FeSFeS3CH4C6H4C2H3CH2CH4C3HC3HCHC2H2CHC2HNC8H9CH7CHCH2CHC2H3CHCH3CHCHCH6CHCHNH10CHC2H2NH8CHC2H2CHCNH4CHCH5C4HCFeS2FeS2FeSFeS3FeS2FeS2FeSFeS3HC2H2CH2C7H4C3H3C2HCH3C2H3CH3C2H2CHC2HC2NHC2H2NH5CHNH2CH5C3HCH2CHCH3C2HC2H4CH2NC6HCH16CHCH2CH4NH6CH3CH5CH2CH4FeS2FeS2FeSFeS3FeS2FeS2FeSFeS3CH3C4H2C2H4CH3C3H2CHC2HC6H4NH3C2NH5C2NC8H17CHCH2CHCH2CHCH2CH2CHC2HC2H8C2H4CH2CHC2H4CHC2H3CH4NC2H6CH4CH6CH4FeS2FeS2FeSFeS3FeS2FeS2FeSFeS3H3CHCH2CH2C3H2C2H2C7H4C2H2CNC4HC2H5CH4CH6NC5H7CH9C2HCHC3H7C3H5CH2C
_chemical_formula_sum              "Fe64 S128 C448 H768 N32"
_cell_length_a       44.625
_cell_length_b       44.0646
_cell_length_c       39.6803
_cell_angle_alpha    88.7058
_cell_angle_beta     89.1017
_cell_angle_gamma    121.28

_space_group_name_H-M_alt    "P 1"
_space_group_IT_number       1

loop_
  _space_group_symop_operation_xyz
  'x, y, z'

loop_
  _atom_site_type_symbol
  _atom_site_label
  _atom_site_symmetry_multiplicity
  _atom_site_fract_x
  _atom_site_fract_y
  _atom_site_fract_z
  _atom_site_occupancy
  Fe  Fe1       1.0  0.18863  0.32898  0.35348  1.0000
  S   S1        1.0  0.20837  0.38773  0.35372  1.0000
  S   S2        1.0  0.23216  0.31661  0.36084  1.0000
  Fe  Fe2       1.0  0.11094  0.30917  0.35201  1.0000
  S   S3        1.0  0.12571  0.36625  0.35168  1.0000
  S   S4        1.0  0.05471  0.26233  0.36129  1.0000
  Fe  Fe3       1.0  0.16888  0.37667  0.31426  1.0000
  S   S5        1.0  0.17985  0.41103  0.26619  1.0000
  Fe  Fe4       1.0  0.16409  0.37266  0.39094  1.0000
  S   S6        1.0  0.16800  0.40249  0.43777  1.0000
  S   S7        1.0  0.15137  0.31840  0.31137  1.0000
  S   S8        1.0  0.14710  0.31516  0.39386  1.0000
  Fe  Fe5       1.0  0.31384  0.12426  0.32769  1.0000
  S   S9        1.0  0.35632  0.14898  0.36561  1.0000
  S   S10       1.0  0.29964  0.07124  0.30492  1.0000
  Fe  Fe6       1.0  0.30672  0.19055  0.32347  1.0000
  S   S11       1.0  0.34907  0.21978  0.36071  1.0000
  S   S12       1.0  0.27208  0.20884  0.29928  1.0000
  Fe  Fe7       1.0  0.37917  0.19910  0.33269  1.0000
  S   S13       1.0  0.43925  0.23096  0.32548  1.0000
  Fe  Fe8       1.0  0.32330  0.16756  0.39022  1.0000
  S   S14       1.0  0.30497  0.16241  0.44495  1.0000
  S   S15       1.0  0.33859  0.17341  0.29319  1.0000
  S   S16       1.0  0.27905  0.13934  0.35450  1.0000
  C   C1        1.0  0.45456  0.24213  0.25623  1.0000
  C   C2        1.0  0.46704  0.24369  0.28866  1.0000
  H   H1        1.0  0.42736  0.23393  0.25314  1.0000
  C   C3        1.0  0.33020  0.16773  0.48056  1.0000
  C   C4        1.0  0.36223  0.16911  0.47851  1.0000
  C   C5        1.0  0.21482  0.47449  0.22951  1.0000
  H   H2        1.0  0.37265  0.16754  0.45424  1.0000
  H   H3        1.0  0.06067  0.24345  0.49047  1.0000
  H   H4        1.0  0.47071  0.13921  0.21233  1.0000
  H   H5        1.0  0.19410  0.46129  0.21174  1.0000
  C   C6        1.0  0.18260  0.38963  0.47307  1.0000
  H   H6        1.0  0.12428  0.28471  0.47152  1.0000
  C   C7        1.0  0.19671  0.36798  0.46957  1.0000
  H   H7        1.0  0.30920  0.34513  0.24474  1.0000
  H   H8        1.0  0.20010  0.36022  0.44481  1.0000
  C   C8        1.0  0.01573  0.26096  0.34943  1.0000
  C   C9        1.0  0.45725  0.15758  0.25851  1.0000
  H   H9        1.0  0.14221  0.47946  0.27796  1.0000
  H   H10       1.0  0.03939  0.29882  0.30774  1.0000
  H   H11       1.0  0.33877  0.27769  0.45652  1.0000
  C   C10       1.0  0.24292  0.28726  0.34165  1.0000
  C   C11       1.0  0.27608  0.29191  0.34727  1.0000
  C   C12       1.0  0.28541  0.26835  0.33423  1.0000
  C   C13       1.0  0.26160  0.23963  0.31551  1.0000
  C   C14       1.0  0.22890  0.23574  0.30877  1.0000
  C   C15       1.0  0.21950  0.25932  0.32188  1.0000
  H   H12       1.0  0.29462  0.31376  0.36209  1.0000
  H   H13       1.0  0.31113  0.27245  0.33849  1.0000
  H   H14       1.0  0.21047  0.21390  0.29387  1.0000
  H   H15       1.0  0.19391  0.25539  0.31727  1.0000
  C   C16       1.0  0.24115  0.47335  0.28190  1.0000
  C   C17       1.0  0.26715  0.02773  0.32000  1.0000
  C   C18       1.0  0.24432  0.02199  0.34724  1.0000
  H   H16       1.0  0.21955  0.20889  0.38677  1.0000
  H   H17       1.0  0.24644  0.04446  0.35994  1.0000
  N   N1        1.0  0.25683  0.37407  0.24918  1.0000
  C   C19       1.0  0.26731  0.41269  0.24806  1.0000
  C   C20       1.0  0.21896  0.35257  0.23943  1.0000
  C   C21       1.0  0.26250  0.42741  0.21422  1.0000
  C   C22       1.0  0.20138  0.31185  0.24133  1.0000
  H   H18       1.0  0.25234  0.41746  0.26784  1.0000
  H   H19       1.0  0.20264  0.35937  0.25540  1.0000
  H   H20       1.0  0.21581  0.35916  0.21302  1.0000
  H   H21       1.0  0.27120  0.36783  0.19852  1.0000
  H   H22       1.0  0.46726  0.24945  0.20275  1.0000
  H   H23       1.0  0.40342  0.12140  0.34647  1.0000
  H   H24       1.0  0.41382  0.14429  0.20651  1.0000
  H   H25       1.0  0.21251  0.30254  0.22182  1.0000
  H   H26       1.0  0.17316  0.29984  0.23580  1.0000
  H   H27       1.0  0.20214  0.30136  0.26673  1.0000
  H   H28       1.0  0.30692  0.22288  0.42110  1.0000
  C   C23       1.0  0.47707  0.16425  0.22433  1.0000
  H   H29       1.0  0.37503  0.11529  0.29581  1.0000
  H   H30       1.0  0.20655  0.16311  0.38888  1.0000
  H   H31       1.0  0.27492  0.42209  0.19261  1.0000
  C   C24       1.0  0.23905  0.19258  0.43051  1.0000
  C   C25       1.0  0.28452  0.33698  0.23147  1.0000
  H   H32       1.0  0.24922  0.17442  0.43411  1.0000
  C   C26       1.0  0.28028  0.36934  0.22475  1.0000
  H   H33       1.0  0.21741  0.33954  0.49530  1.0000
  H   H34       1.0  0.28483  0.06764  0.49244  1.0000
  H   H35       1.0  0.29749  0.37415  0.32403  1.0000
  H   H36       1.0  0.47010  0.14853  0.27657  1.0000
  H   H37       1.0  0.23526  0.17316  0.49732  1.0000
  H   H38       1.0  0.29395  0.24596  0.39404  1.0000
  H   H39       1.0  0.30736  0.39311  0.22466  1.0000
  C   C27       1.0  0.27440  0.22718  0.47846  1.0000
  N   N2        1.0  0.26544  0.22917  0.44219  1.0000
  C   C28       1.0  0.22860  0.19043  0.39337  1.0000
  C   C29       1.0  0.25326  0.25512  0.43759  1.0000
  C   C30       1.0  0.21757  0.24503  0.45395  1.0000
  C   C31       1.0  0.08710  0.31741  0.48344  1.0000
  H   H40       1.0  0.25031  0.19504  0.37585  1.0000
  H   H41       1.0  0.25283  0.33662  0.28847  1.0000
  C   C32       1.0  0.21406  0.45605  0.25927  1.0000
  H   H42       1.0  0.24072  0.36643  0.30188  1.0000
  H   H43       1.0  0.37823  0.05302  0.28983  1.0000
  H   H44       1.0  0.28753  0.32705  0.20691  1.0000
  H   H45       1.0  0.34868  0.12117  0.25228  1.0000
  H   H46       1.0  0.23438  0.41700  0.20957  1.0000
  H   H47       1.0  0.32601  0.30074  0.42680  1.0000
  H   H48       1.0  0.35575  0.13709  0.20975  1.0000
  C   C33       1.0  0.36302  0.12314  0.22856  1.0000
  H   H49       1.0  0.43149  0.09143  0.26376  1.0000
  H   H50       1.0  0.41088  0.17256  0.23597  1.0000
  H   H51       1.0  0.25300  0.26196  0.41050  1.0000
  H   H52       1.0  0.21433  0.17991  0.44587  1.0000
  H   H53       1.0  0.08169  0.32079  0.42935  1.0000
  H   H54       1.0  0.41364  0.09246  0.22427  1.0000
  H   H55       1.0  0.27514  0.45674  0.21546  1.0000
  H   H56       1.0  0.35378  0.09640  0.21882  1.0000
  H   H57       1.0  0.30107  0.41377  0.30725  1.0000
  H   H58       1.0  0.20659  0.25877  0.43947  1.0000
  H   H59       1.0  0.27245  0.28116  0.44809  1.0000
  H   H60       1.0  0.29546  0.43025  0.25388  1.0000
  C   C34       1.0  0.20660  0.35640  0.49816  1.0000
  C   C35       1.0  0.25993  0.36455  0.28516  1.0000
  C   C36       1.0  0.41116  0.09524  0.25185  1.0000
  C   C37       1.0  0.47731  0.25104  0.22771  1.0000
  H   H61       1.0  0.11599  0.33104  0.47936  1.0000
  H   H62       1.0  0.40725  0.16052  0.29600  1.0000
  H   H63       1.0  0.26244  0.31398  0.24528  1.0000
  H   H64       1.0  0.24096  0.45959  0.30490  1.0000
  C   C38       1.0  0.29852  0.24261  0.42080  1.0000
  C   C39       1.0  0.29641  0.38742  0.30031  1.0000
  H   H65       1.0  0.31789  0.39093  0.28317  1.0000
  H   H66       1.0  0.42249  0.10277  0.32046  1.0000
  C   C40       1.0  0.33057  0.27846  0.43043  1.0000
  H   H67       1.0  0.36748  0.04085  0.24762  1.0000
  N   N3        1.0  0.41802  0.13185  0.25887  1.0000
  C   C41       1.0  0.42019  0.12639  0.32355  1.0000
  C   C42       1.0  0.40369  0.13376  0.29295  1.0000
  C   C43       1.0  0.40310  0.14449  0.23192  1.0000
  H   H68       1.0  0.44634  0.14993  0.32843  1.0000
  C   C44       1.0  0.37557  0.06315  0.26486  1.0000
  H   H69       1.0  0.46337  0.18388  0.26729  1.0000
  H   H70       1.0  0.29417  0.21894  0.47992  1.0000
  H   H71       1.0  0.35361  0.06786  0.26622  1.0000
  H   H72       1.0  0.00473  0.18874  0.32400  1.0000
  H   H73       1.0  0.07497  0.27894  0.44294  1.0000
  H   H74       1.0  0.04141  0.28964  0.45068  1.0000
  H   H75       1.0  0.47211  0.18106  0.20678  1.0000
  H   H76       1.0  0.11688  0.24603  0.49436  1.0000
  H   H77       1.0  0.15557  0.47347  0.31813  1.0000
  C   C45       1.0  0.07001  0.30014  0.45008  1.0000
  C   C46       1.0  0.11673  0.27102  0.49673  1.0000
  H   H78       1.0  0.08180  0.33920  0.48680  1.0000
  C   C47       1.0  0.01522  0.28077  0.32164  1.0000
  H   H79       1.0  0.28700  0.25385  0.48970  1.0000
  H   H80       1.0  0.35313  0.28438  0.41341  1.0000
  H   H81       1.0  0.28136  0.00222  0.28263  1.0000
  H   H82       1.0  0.19738  0.21655  0.45292  1.0000
  H   H83       1.0  0.22060  0.25356  0.48045  1.0000
  C   C48       1.0  0.15438  0.49338  0.30138  1.0000
  Fe  Fe9       1.0  0.19212  0.35053  0.61726  1.0000
  S   S17       1.0  0.15186  0.29872  0.64226  1.0000
  S   S18       1.0  0.21345  0.34968  0.56554  1.0000
  Fe  Fe10      1.0  0.19682  0.39455  0.67858  1.0000
  S   S19       1.0  0.15637  0.34554  0.70854  1.0000
  S   S20       1.0  0.22819  0.45447  0.68737  1.0000
  Fe  Fe11      1.0  0.18525  0.31967  0.68770  1.0000
  S   S21       1.0  0.20319  0.28781  0.71791  1.0000
  Fe  Fe12      1.0  0.12609  0.32803  0.66033  1.0000
  S   S22       1.0  0.07097  0.31270  0.64506  1.0000
  S   S23       1.0  0.22725  0.36964  0.66142  1.0000
  S   S24       1.0  0.16474  0.37877  0.63196  1.0000
  Fe  Fe13      1.0  0.36376  0.17771  0.62590  1.0000
  S   S25       1.0  0.30613  0.15425  0.63269  1.0000
  S   S26       1.0  0.38941  0.17604  0.57684  1.0000
  Fe  Fe14      1.0  0.37757  0.20170  0.69818  1.0000
  S   S27       1.0  0.31977  0.17932  0.71051  1.0000
  S   S28       1.0  0.42068  0.23840  0.73365  1.0000
  Fe  Fe15      1.0  0.31086  0.13163  0.68188  1.0000
  S   S29       1.0  0.26271  0.07619  0.68956  1.0000
  Fe  Fe16      1.0  0.31863  0.20314  0.66027  1.0000
  S   S30       1.0  0.28717  0.22730  0.64166  1.0000
  S   S31       1.0  0.36848  0.15196  0.67357  1.0000
  S   S32       1.0  0.37656  0.22859  0.64953  1.0000
  H   H84       1.0  0.47310  0.22935  0.85511  1.0000
  H   H85       1.0  0.32624  0.09337  0.51112  1.0000
  C   C49       1.0  0.46104  0.24173  0.74326  1.0000
  C   C50       1.0  0.46710  0.21412  0.73762  1.0000
  H   H86       1.0  0.10992  0.35629  0.57703  1.0000
  H   H87       1.0  0.44671  0.18970  0.72723  1.0000
  C   C51       1.0  0.16968  0.06299  0.69582  1.0000
  C   C52       1.0  0.26184  0.03557  0.68751  1.0000
  C   C53       1.0  0.29203  0.03387  0.69137  1.0000
  C   C54       1.0  0.49949  0.21791  0.74594  1.0000
  H   H88       1.0  0.31690  0.05789  0.69534  1.0000
  H   H89       1.0  0.49340  0.21238  0.91702  1.0000
  C   C55       1.0  0.31684  0.44394  0.60203  1.0000
  H   H90       1.0  0.47646  0.20559  0.66326  1.0000
  H   H91       1.0  0.13715  0.28740  0.51483  1.0000
  H   H92       1.0  0.19629  0.43989  0.75607  1.0000
  C   C56       1.0  0.22881  0.27348  0.69677  1.0000
  C   C57       1.0  0.23055  0.27349  0.66155  1.0000
  C   C58       1.0  0.24928  0.26004  0.64527  1.0000
  C   C59       1.0  0.26685  0.24679  0.66387  1.0000
  C   C60       1.0  0.26591  0.24755  0.69911  1.0000
  C   C61       1.0  0.24676  0.26064  0.71547  1.0000
  H   H93       1.0  0.21694  0.28332  0.64683  1.0000
  H   H94       1.0  0.24985  0.25963  0.61802  1.0000
  H   H95       1.0  0.27949  0.23767  0.71379  1.0000
  H   H96       1.0  0.24567  0.26068  0.74272  1.0000
  H   H97       1.0  0.47292  0.26040  0.88395  1.0000
  C   C62       1.0  0.02921  0.28071  0.66299  1.0000
  C   C63       1.0  0.09277  0.34392  0.55533  1.0000
  H   H98       1.0  0.38890  0.09549  0.60093  1.0000
  H   H99       1.0  0.04805  0.26784  0.70743  1.0000
  C   C64       1.0  0.13781  0.42558  0.69529  1.0000
  C   C65       1.0  0.36704  0.17389  0.53973  1.0000
  C   C66       1.0  0.33541  0.17322  0.54147  1.0000
  H   H100      1.0  0.06566  0.33467  0.56443  1.0000
  H   H101      1.0  0.32514  0.17553  0.56537  1.0000
  C   C67       1.0  0.18823  0.38794  0.53395  1.0000
  C   C68       1.0  0.20190  0.36588  0.53039  1.0000
  C   C69       1.0  0.22021  0.49110  0.77933  1.0000
  H   H102      1.0  0.18458  0.39539  0.55872  1.0000
  H   H103      1.0  0.29772  0.07652  0.62031  1.0000
  N   N4        1.0  0.07464  0.38204  0.71928  1.0000
  C   C70       1.0  0.03757  0.36055  0.70703  1.0000
  H   H104      1.0  0.24586  0.41726  0.59793  1.0000
  H   H105      1.0  0.01857  0.34578  0.72836  1.0000
  C   C71       1.0  0.07604  0.40712  0.74541  1.0000
  C   C72       1.0  0.24413  0.20115  0.50289  1.0000
  H   H106      1.0  0.23461  0.45995  0.56736  1.0000
  H   H107      1.0  0.30224  0.39980  0.56721  1.0000
  N   N5        1.0  0.29848  0.46136  0.58669  1.0000
  H   H108      1.0  0.49544  0.31416  0.68777  1.0000
  C   C73       1.0  0.02517  0.26329  0.69415  1.0000
  C   C74       1.0  0.26285  0.44574  0.60376  1.0000
  H   H109      1.0  0.03412  0.27233  0.57735  1.0000
  H   H110      1.0  0.22159  0.20501  0.50273  1.0000
  H   H111      1.0  0.24735  0.08399  0.59588  1.0000
  H   H112      1.0  0.07740  0.43073  0.73293  1.0000
  H   H113      1.0  0.05128  0.39390  0.76114  1.0000
  C   C75       1.0  0.32718  0.46643  0.52812  1.0000
  H   H114      1.0  0.24626  0.48137  0.89610  1.0000
  H   H115      1.0  0.27430  0.38767  0.60457  1.0000
  H   H116      1.0  0.14317  0.08671  0.67202  1.0000
  H   H117      1.0  0.31716  0.39485  0.60721  1.0000
  C   C76       1.0  0.21501  0.46807  0.75284  1.0000
  C   C77       1.0  0.23412  0.48166  0.72228  1.0000
  H   H118      1.0  0.11528  0.44909  0.77596  1.0000
  C   C78       1.0  0.02341  0.38152  0.68852  1.0000
  H   H119      1.0  0.03165  0.30124  0.52143  1.0000
  C   C79       1.0  0.24197  0.46357  0.59416  1.0000
  C   C80       1.0  0.47350  0.23560  0.88195  1.0000
  H   H120      1.0  0.08387  0.33895  0.71254  1.0000
  H   H121      1.0  0.20372  0.10719  0.59562  1.0000
  H   H122      1.0  0.23753  0.04356  0.61779  1.0000
  H   H123      1.0  0.20517  0.48036  0.80275  1.0000
  H   H124      1.0  0.46376  0.18282  0.62433  1.0000
  H   H125      1.0  0.02178  0.23224  0.55511  1.0000
  H   H126      1.0  0.20612  0.00504  0.67989  1.0000
  H   H127      1.0  0.05522  0.34477  0.78212  1.0000
  N   N6        1.0  0.07517  0.29288  0.51433  1.0000
  H   H128      1.0  0.35420  0.05520  0.62033  1.0000
  H   H129      1.0  0.09649  0.40626  0.79535  1.0000
  H   H130      1.0  0.09114  0.42069  0.67755  1.0000
  C   C81       1.0  0.28838  0.04391  0.53982  1.0000
  C   C82       1.0  0.29003  0.07385  0.59350  1.0000
  H   H131      1.0  0.19357  0.14238  0.74950  1.0000
  H   H132      1.0  0.25951  0.02625  0.53931  1.0000
  H   H133      1.0  0.45488  0.25152  0.66691  1.0000
  C   C83       1.0  0.25054  0.06066  0.59483  1.0000
  C   C84       1.0  0.09707  0.31323  0.54354  1.0000
  C   C85       1.0  0.18885  0.11034  0.61656  1.0000
  H   H134      1.0  0.23665  0.15167  0.75787  1.0000
  H   H135      1.0  0.10127  0.36516  0.53549  1.0000
  C   C86       1.0  0.29354  0.45498  0.54947  1.0000
  H   H136      1.0  0.44816  0.21423  0.89355  1.0000
  H   H137      1.0  0.15227  0.04543  0.71699  1.0000
  H   H138      1.0  0.11106  0.36918  0.74219  1.0000
  C   C87       1.0  0.05983  0.33058  0.76193  1.0000
  C   C88       1.0  0.34102  0.07249  0.57270  1.0000
  H   H139      1.0  0.47811  0.17987  0.85705  1.0000
  H   H140      1.0  0.25387  0.20539  0.52901  1.0000
  H   H141      1.0  0.21714  0.45084  0.60948  1.0000
  H   H142      1.0  0.16491  0.08396  0.62171  1.0000
  H   H143      1.0  0.15204  0.43663  0.67063  1.0000
  H   H144      1.0  0.45172  0.30191  0.67852  1.0000
  H   H145      1.0  0.25071  0.49744  0.85364  1.0000
  H   H146      1.0  0.35075  0.05869  0.55671  1.0000
  H   H147      1.0  0.12537  0.32530  0.53711  1.0000
  C   C89       1.0  0.36015  0.07992  0.60639  1.0000
  H   H148      1.0  0.16179  0.04637  0.67326  1.0000
  H   H149      1.0  0.19683  0.07114  0.70226  1.0000
  N   N7        1.0  0.19649  0.12898  0.67900  1.0000
  C   C90       1.0  0.18666  0.15619  0.67036  1.0000
  C   C91       1.0  0.21247  0.12387  0.64736  1.0000
  C   C92       1.0  0.22500  0.14319  0.70472  1.0000
  C   C93       1.0  0.16416  0.09459  0.69061  1.0000
  C   C94       1.0  0.17571  0.17059  0.70004  1.0000
  C   C95       1.0  0.38049  0.17194  0.50812  1.0000
  C   C96       1.0  0.21334  0.13558  0.74238  1.0000
  H   H150      1.0  0.27435  0.42645  0.54494  1.0000
  H   H151      1.0  0.20875  0.17964  0.65652  1.0000
  H   H152      1.0  0.16431  0.14519  0.65304  1.0000
  H   H153      1.0  0.22186  0.10522  0.65222  1.0000
  H   H154      1.0  0.23651  0.14945  0.63913  1.0000
  H   H155      1.0  0.24240  0.13221  0.70138  1.0000
  H   H156      1.0  0.24306  0.17239  0.70060  1.0000
  H   H157      1.0  0.15275  0.09772  0.71440  1.0000
  C   C97       1.0  0.30147  0.40445  0.59445  1.0000
  H   H158      1.0  0.15305  0.14921  0.71495  1.0000
  H   H159      1.0  0.19799  0.18665  0.71648  1.0000
  H   H160      1.0  0.16765  0.18896  0.68995  1.0000
  C   C98       1.0  0.08402  0.35591  0.73300  1.0000
  C   C99       1.0  0.29769  0.07668  0.51700  1.0000
  C   C100      1.0  0.48992  0.24035  0.61722  1.0000
  H   H161      1.0  0.43917  0.20067  0.64102  1.0000
  H   H162      1.0  0.34513  0.45849  0.59419  1.0000
  H   H163      1.0  0.20301  0.10732  0.74971  1.0000
  H   H164      1.0  0.31646  0.44506  0.63003  1.0000
  H   H165      1.0  0.14896  0.41060  0.70672  1.0000
  H   H166      1.0  0.03430  0.30952  0.75240  1.0000
  H   H167      1.0  0.14381  0.44880  0.71048  1.0000
  H   H168      1.0  0.35434  0.09635  0.62279  1.0000
  H   H169      1.0  0.12973  0.42075  0.76214  1.0000
  H   H170      1.0  0.18182  0.12967  0.60716  1.0000
  H   H171      1.0  0.03498  0.33991  0.68964  1.0000
  H   H172      1.0  0.09516  0.38347  0.66908  1.0000
  N   N8        1.0  0.30139  0.05160  0.57532  1.0000
  C   C101      1.0  0.46613  0.20562  0.63807  1.0000
  H   H173      1.0  0.29872  0.02882  0.52692  1.0000
  C   C102      1.0  0.10619  0.42098  0.77067  1.0000
  H   H174      1.0  0.34107  0.45300  0.53664  1.0000
  H   H175      1.0  0.07376  0.24547  0.53267  1.0000
  H   H176      1.0  0.29214  0.16856  0.51400  1.0000
  H   H177      1.0  0.30448  0.10185  0.58338  1.0000
  H   H178      1.0  0.48334  0.29463  0.76168  1.0000
  H   H179      1.0  0.45268  0.27003  0.62744  1.0000
  C   C103      1.0  0.48780  0.27314  0.75716  1.0000
  H   H180      1.0  0.07227  0.31672  0.77341  1.0000
  H   H181      1.0  0.35107  0.09899  0.56010  1.0000
  H   H182      1.0  0.47479  0.23989  0.59488  1.0000
  H   H183      1.0  0.23637  0.04650  0.57237  1.0000
  H   H184      1.0  0.28173  0.46952  0.53809  1.0000
  H   H185      1.0  0.26485  0.44593  0.63166  1.0000
  C   C104      1.0  0.09832  0.40220  0.68909  1.0000
  H   H186      1.0  0.25586  0.49212  0.59984  1.0000
  H   H187      1.0  0.31981  0.45887  0.50165  1.0000
  C   C105      1.0  0.47048  0.27408  0.64855  1.0000
  C   C106      1.0  0.31691  0.16972  0.51214  1.0000
  H   H188      1.0  0.28805  0.09308  0.52798  1.0000
  H   H189      1.0  0.09213  0.29524  0.56586  1.0000
  C   C107      1.0  0.03683  0.27909  0.52149  1.0000
  C   C108      1.0  0.02113  0.25704  0.55480  1.0000
  H   H190      1.0  0.30716  0.00673  0.58816  1.0000
  H   H191      1.0  0.40501  0.17255  0.50649  1.0000
  C   C109      1.0  0.47700  0.30742  0.66692  1.0000
  H   H192      1.0  0.16775  0.41663  0.50802  1.0000
  H   H193      1.0  0.48608  0.33063  0.64927  1.0000
  C   C110      1.0  0.22966  0.00402  0.68270  1.0000
  C   C111      1.0  0.17873  0.39993  0.50527  1.0000
  C   C112      1.0  0.07973  0.26173  0.50888  1.0000
  H   H194      1.0  0.29322  0.02204  0.62245  1.0000
  C   C113      1.0  0.29003  0.01731  0.59500  1.0000
  H   H195      1.0  0.03538  0.39046  0.66275  1.0000
  H   H196      1.0  0.02698  0.40440  0.70287  1.0000
  C   C114      1.0  0.32059  0.50081  0.59168  1.0000
  H   H197      1.0  0.27005  0.49880  0.94535  1.0000
  H   H198      1.0  0.34537  0.49563  0.52765  1.0000
  H   H199      1.0  0.33577  0.50052  0.64460  1.0000
  H   H200      1.0  0.02057  0.26164  0.50111  1.0000
  Fe  Fe17      1.0  0.10478  0.78999  0.31324  1.0000
  S   S33       1.0  0.12759  0.75649  0.32806  1.0000
  S   S34       1.0  0.05426  0.77267  0.28509  1.0000
  Fe  Fe18      1.0  0.16644  0.85839  0.34084  1.0000
  S   S35       1.0  0.19366  0.83026  0.35833  1.0000
  S   S36       1.0  0.18049  0.91425  0.35513  1.0000
  Fe  Fe19      1.0  0.17954  0.80247  0.30878  1.0000
  S   S37       1.0  0.22369  0.79981  0.28100  1.0000
  Fe  Fe20      1.0  0.14044  0.78603  0.37640  1.0000
  S   S38       1.0  0.13123  0.75578  0.42608  1.0000
  S   S39       1.0  0.15608  0.83432  0.28976  1.0000
  S   S40       1.0  0.11381  0.81575  0.36309  1.0000
  Fe  Fe21      1.0  0.28735  0.67071  0.20333  1.0000
  S   S41       1.0  0.27179  0.62136  0.17409  1.0000
  S   S42       1.0  0.24220  0.67281  0.23011  1.0000
  Fe  Fe22      1.0  0.36621  0.69623  0.19399  1.0000
  S   S43       1.0  0.35535  0.64837  0.16479  1.0000
  S   S44       1.0  0.42025  0.74464  0.20468  1.0000
  Fe  Fe23      1.0  0.31622  0.65672  0.13665  1.0000
  S   S45       1.0  0.30567  0.65331  0.07906  1.0000
  Fe  Fe24      1.0  0.31176  0.61685  0.20393  1.0000
  S   S46       1.0  0.30625  0.57039  0.23629  1.0000
  S   S47       1.0  0.32896  0.70624  0.16430  1.0000
  S   S48       1.0  0.32543  0.66446  0.23469  1.0000
  C   C115      1.0  0.32008  0.65899  0.03538  1.0000
  H   H201      1.0  0.37384  0.76897  0.06319  1.0000
  C   C116      1.0  0.47874  0.81833  0.12129  1.0000
  H   H202      1.0  0.37298  0.67261  0.04428  1.0000
  H   H203      1.0  0.25662  0.82605  0.44141  1.0000
  H   H204      1.0  0.28540  0.81924  0.39765  1.0000
  H   H205      1.0  0.43931  0.65065  0.30616  1.0000
  C   C117      1.0  0.26983  0.52678  0.24467  1.0000
  H   H206      1.0  0.16388  0.58249  0.22542  1.0000
  H   H207      1.0  0.26964  0.64570  0.01693  1.0000
  C   C118      1.0  0.21765  0.77624  0.41846  1.0000
  H   H208      1.0  0.08125  0.88204  0.21523  1.0000
  H   H209      1.0  0.35172  0.73160  0.09290  1.0000
  C   C119      1.0  0.09261  0.86688  0.22589  1.0000
  C   C120      1.0  0.45644  0.74598  0.22481  1.0000
  H   H210      1.0  0.05955  0.84168  0.26957  1.0000
  H   H211      1.0  0.15135  0.95587  0.31941  1.0000
  H   H212      1.0  0.43868  0.69070  0.21963  1.0000
  C   C121      1.0  0.22795  0.76393  0.26687  1.0000
  C   C122      1.0  0.20094  0.72832  0.27105  1.0000
  C   C123      1.0  0.20587  0.70094  0.25976  1.0000
  C   C124      1.0  0.23777  0.70865  0.24407  1.0000
  C   C125      1.0  0.26485  0.74424  0.24014  1.0000
  C   C126      1.0  0.25993  0.77160  0.25147  1.0000
  H   H213      1.0  0.17612  0.72189  0.28261  1.0000
  H   H214      1.0  0.18464  0.67359  0.26285  1.0000
  H   H215      1.0  0.28952  0.75073  0.22817  1.0000
  H   H216      1.0  0.28105  0.79899  0.24808  1.0000
  C   C127      1.0  0.14682  0.78242  0.46154  1.0000
  C   C128      1.0  0.16261  0.81925  0.45798  1.0000
  H   H217      1.0  0.39785  0.76869  0.13632  1.0000
  H   H218      1.0  0.16536  0.83162  0.43333  1.0000
  H   H219      1.0  0.07593  0.80774  0.47771  1.0000
  C   C129      1.0  0.21514  0.95743  0.34168  1.0000
  C   C130      1.0  0.23811  0.96312  0.31456  1.0000
  C   C131      1.0  0.48387  0.77861  0.23616  1.0000
  H   H220      1.0  0.23580  0.94065  0.30170  1.0000
  H   H221      1.0  0.18965  0.56478  0.34494  1.0000
  H   H222      1.0  0.05138  0.82848  0.32556  1.0000
  H   H223      1.0  0.38251  0.70649  0.09376  1.0000
  C   C132      1.0  0.21246  0.75178  0.36215  1.0000
  H   H224      1.0  0.02593  0.73913  0.35176  1.0000
  H   H225      1.0  0.19288  0.53225  0.22826  1.0000
  H   H226      1.0  0.20067  0.70601  0.42942  1.0000
  C   C133      1.0  0.28891  0.80411  0.34786  1.0000
  H   H227      1.0  0.25646  0.82221  0.36933  1.0000
  H   H228      1.0  0.27429  0.79632  0.32420  1.0000
  H   H229      1.0  0.27724  0.76460  0.41517  1.0000
  H   H230      1.0  0.23871  0.72535  0.45542  1.0000
  H   H231      1.0  0.23291  0.69421  0.42496  1.0000
  H   H232      1.0  0.22605  0.74691  0.34116  1.0000
  H   H233      1.0  0.19488  0.75154  0.42943  1.0000
  C   C134      1.0  0.25164  0.74715  0.40321  1.0000
  H   H234      1.0  0.25750  0.73521  0.38152  1.0000
  C   C135      1.0  0.17877  0.71567  0.36994  1.0000
  C   C136      1.0  0.26650  0.80482  0.37758  1.0000
  H   H235      1.0  0.16203  0.71673  0.39022  1.0000
  H   H236      1.0  0.20423  0.76977  0.35131  1.0000
  H   H237      1.0  0.16275  0.70762  0.34703  1.0000
  C   C137      1.0  0.25854  0.59092  0.29905  1.0000
  C   C138      1.0  0.48037  0.68873  0.39465  1.0000
  H   H238      1.0  0.20600  0.79127  0.40797  1.0000
  C   C139      1.0  0.45934  0.71595  0.22838  1.0000
  C   C140      1.0  0.22920  0.71684  0.42963  1.0000
  H   H239      1.0  0.15160  0.52387  0.24380  1.0000
  C   C141      1.0  0.17990  0.54470  0.24144  1.0000
  H   H240      1.0  0.31172  0.83141  0.34281  1.0000
  H   H241      1.0  0.45210  0.71323  0.11452  1.0000
  H   H242      1.0  0.18470  0.69461  0.37547  1.0000
  H   H243      1.0  0.45090  0.75528  0.05141  1.0000
  N   N9        1.0  0.09860  0.89489  0.28423  1.0000
  C   C142      1.0  0.08780  0.86191  0.26462  1.0000
  C   C143      1.0  0.09519  0.88410  0.32111  1.0000
  C   C144      1.0  0.13668  0.92142  0.27529  1.0000
  C   C145      1.0  0.07550  0.90920  0.27468  1.0000
  C   C146      1.0  0.43273  0.76422  0.05916  1.0000
  C   C147      1.0  0.05809  0.85508  0.33400  1.0000
  C   C148      1.0  0.46141  0.77839  0.11470  1.0000
  H   H244      1.0  0.10237  0.84901  0.27297  1.0000
  H   H245      1.0  0.05752  0.85357  0.36201  1.0000
  H   H246      1.0  0.10435  0.90687  0.33777  1.0000
  H   H247      1.0  0.11284  0.87391  0.32659  1.0000
  H   H248      1.0  0.14076  0.92774  0.24774  1.0000
  C   C149      1.0  0.00445  0.73573  0.33671  1.0000
  H   H249      1.0  0.08486  0.92448  0.25015  1.0000
  H   H250      1.0  0.04833  0.88678  0.27048  1.0000
  H   H251      1.0  0.26273  0.56826  0.30168  1.0000
  H   H252      1.0  0.22212  0.79511  0.46943  1.0000
  H   H253      1.0  0.47245  0.66025  0.39385  1.0000
  H   H254      1.0  0.20872  0.59696  0.21385  1.0000
  H   H255      1.0  0.45545  0.68879  0.39598  1.0000
  H   H256      1.0  0.48202  0.80206  0.23348  1.0000
  H   H257      1.0  0.46402  0.82276  0.14149  1.0000
  H   H258      1.0  0.15322  0.91003  0.28178  1.0000
  C   C150      1.0  0.29624  0.65338  0.00982  1.0000
  C   C151      1.0  0.23992  0.79731  0.44831  1.0000
  N   N10       1.0  0.19536  0.55695  0.27562  1.0000
  H   H259      1.0  0.41779  0.80394  0.10621  1.0000
  C   C152      1.0  0.48666  0.68416  0.33363  1.0000
  C   C153      1.0  0.23367  0.58545  0.27012  1.0000
  C   C154      1.0  0.17556  0.57173  0.29286  1.0000
  H   H260      1.0  0.44822  0.69458  0.31016  1.0000
  C   C155      1.0  0.18451  0.58274  0.32964  1.0000
  H   H261      1.0  0.49247  0.75813  0.40499  1.0000
  H   H262      1.0  0.24521  0.57994  0.24766  1.0000
  H   H263      1.0  0.18143  0.97368  0.28437  1.0000
  H   H264      1.0  0.20074  0.98300  0.37880  1.0000
  N   N11       1.0  0.23672  0.76916  0.39092  1.0000
  H   H265      1.0  0.43041  0.66307  0.34601  1.0000
  H   H266      1.0  0.18037  0.59623  0.27899  1.0000
  C   C156      1.0  0.26908  0.50829  0.27436  1.0000
  H   H267      1.0  0.47135  0.73319  0.35077  1.0000
  C   C157      1.0  0.44893  0.67274  0.32393  1.0000
  C   C158      1.0  0.48960  0.71878  0.24234  1.0000
  H   H268      1.0  0.24950  0.59534  0.32348  1.0000
  H   H269      1.0  0.12061  0.87950  0.21779  1.0000
  H   H270      1.0  0.28470  0.61475  0.29285  1.0000
  H   H271      1.0  0.48641  0.65908  0.33866  1.0000
  H   H272      1.0  0.29025  0.52116  0.29173  1.0000
  C   C159      1.0  0.18188  0.57360  0.21712  1.0000
  H   H273      1.0  0.24283  0.52349  0.19920  1.0000
  H   H274      1.0  0.23671  0.61174  0.26431  1.0000
  H   H275      1.0  0.40818  0.74588  0.04597  1.0000
  H   H276      1.0  0.29945  0.78670  0.35331  1.0000
  C   C160      1.0  0.36933  0.76079  0.09032  1.0000
  H   H277      1.0  0.04580  0.91793  0.31414  1.0000
  H   H278      1.0  0.48152  0.83447  0.09843  1.0000
  H   H279      1.0  0.35478  0.77243  0.10170  1.0000
  H   H280      1.0  0.16146  0.58130  0.34245  1.0000
  C   C161      1.0  0.35437  0.66895  0.02538  1.0000
  H   H281      1.0  0.07132  0.95502  0.28637  1.0000
  C   C162      1.0  0.19199  0.52517  0.29460  1.0000
  H   H282      1.0  0.18626  0.86873  0.48348  1.0000
  H   H283      1.0  0.48118  0.77487  0.10072  1.0000
  C   C163      1.0  0.01116  0.74972  0.30361  1.0000
  C   C164      1.0  0.15301  0.95787  0.29151  1.0000
  C   C165      1.0  0.07158  0.93302  0.30035  1.0000
  N   N12       1.0  0.42687  0.76061  0.09692  1.0000
  C   C166      1.0  0.40412  0.77462  0.10874  1.0000
  H   H284      1.0  0.45837  0.76559  0.14014  1.0000
  H   H285      1.0  0.07879  0.84023  0.21469  1.0000
  H   H286      1.0  0.03755  0.86046  0.32615  1.0000
  H   H287      1.0  0.43354  0.70201  0.07294  1.0000
  C   C167      1.0  0.40769  0.72155  0.10687  1.0000
  H   H288      1.0  0.09261  0.94561  0.31870  1.0000
  C   C168      1.0  0.17446  0.84024  0.48643  1.0000
  C   C169      1.0  0.44865  0.80180  0.04297  1.0000
  H   H289      1.0  0.40057  0.71771  0.13430  1.0000
  C   C170      1.0  0.21844  0.98706  0.35790  1.0000
  H   H290      1.0  0.43946  0.81797  0.05510  1.0000
  H   H291      1.0  0.41080  0.67391  0.10872  1.0000
  H   H292      1.0  0.14666  0.55347  0.29155  1.0000
  H   H293      1.0  0.20719  0.61043  0.33056  1.0000
  H   H294      1.0  0.20437  0.53208  0.31944  1.0000
  C   C171      1.0  0.14340  0.76670  0.49369  1.0000
  C   C172      1.0  0.42770  0.70218  0.10014  1.0000
  H   H295      1.0  0.17357  0.56240  0.19180  1.0000
  C   C173      1.0  0.49867  0.70175  0.42873  1.0000
  H   H296      1.0  0.44003  0.79951  0.01653  1.0000
  H   H297      1.0  0.14150  0.97328  0.28184  1.0000
  H   H298      1.0  0.25640  0.78719  0.45787  1.0000
  H   H299      1.0  0.20666  0.51509  0.28068  1.0000
  H   H300      1.0  0.13129  0.73819  0.49651  1.0000
  C   C174      1.0  0.24238  0.50977  0.22234  1.0000
  N   N13       1.0  0.50141  0.70851  0.36299  1.0000
  H   H301      1.0  0.47886  0.69834  0.44817  1.0000
  C   C175      1.0  0.49886  0.74079  0.35525  1.0000
  H   H302      1.0  0.49186  0.69551  0.24411  1.0000
  H   H303      1.0  0.47777  0.81628  0.04274  1.0000
  C   C176      1.0  0.26390  0.99810  0.30377  1.0000
  H   H304      1.0  0.13736  0.50113  0.31444  1.0000
  Fe  Fe25      1.0  0.17968  0.83428  0.60809  1.0000
  S   S49       1.0  0.16580  0.86600  0.64132  1.0000
  S   S50       1.0  0.18377  0.85226  0.55348  1.0000
  Fe  Fe26      1.0  0.18987  0.79604  0.66876  1.0000
  S   S51       1.0  0.17678  0.82567  0.70597  1.0000
  S   S52       1.0  0.19944  0.75070  0.68161  1.0000
  Fe  Fe27      1.0  0.13265  0.81463  0.67117  1.0000
  S   S53       1.0  0.07779  0.80012  0.68963  1.0000
  Fe  Fe28      1.0  0.21076  0.87437  0.67229  1.0000
  S   S54       1.0  0.25600  0.92805  0.68809  1.0000
  S   S55       1.0  0.14354  0.78225  0.63586  1.0000
  S   S56       1.0  0.22673  0.84527  0.63734  1.0000
  Fe  Fe29      1.0  0.36464  0.67807  0.79215  1.0000
  S   S57       1.0  0.34502  0.63364  0.83171  1.0000
  S   S58       1.0  0.40579  0.69134  0.74967  1.0000
  Fe  Fe30      1.0  0.30509  0.69155  0.80877  1.0000
  S   S59       1.0  0.28114  0.64813  0.84966  1.0000
  S   S60       1.0  0.28855  0.73204  0.79676  1.0000
  Fe  Fe31      1.0  0.33621  0.66860  0.86668  1.0000
  S   S61       1.0  0.35587  0.67507  0.92167  1.0000
  Fe  Fe32      1.0  0.29109  0.61540  0.81288  1.0000
  S   S62       1.0  0.25027  0.55585  0.80991  1.0000
  S   S63       1.0  0.35999  0.71444  0.82798  1.0000
  S   S64       1.0  0.31075  0.65736  0.77123  1.0000
  H   H305      1.0  0.06476  0.74439  0.54136  1.0000
  C   C177      1.0  0.34089  0.66854  0.96519  1.0000
  H   H306      1.0  0.08412  0.79005  0.60458  1.0000
  H   H307      1.0  0.31308  0.99951  0.69516  1.0000
  H   H308      1.0  0.28773  0.65403  0.95612  1.0000
  C   C178      1.0  0.22519  0.74662  0.71329  1.0000
  C   C179      1.0  0.22722  0.71576  0.71503  1.0000
  C   C180      1.0  0.24622  0.71066  0.74039  1.0000
  C   C181      1.0  0.26355  0.73645  0.76442  1.0000
  C   C182      1.0  0.26158  0.76734  0.76261  1.0000
  C   C183      1.0  0.24262  0.77247  0.73723  1.0000
  H   H309      1.0  0.21375  0.69548  0.69676  1.0000
  H   H310      1.0  0.24726  0.68666  0.74147  1.0000
  H   H311      1.0  0.27485  0.78752  0.78102  1.0000
  H   H312      1.0  0.24132  0.79632  0.73635  1.0000
  C   C184      1.0  0.25754  0.96912  0.68673  1.0000
  C   C185      1.0  0.22754  0.97099  0.68196  1.0000
  H   H313      1.0  0.09759  0.79648  0.50822  1.0000
  H   H314      1.0  0.20257  0.94687  0.67861  1.0000
  C   C186      1.0  0.28738  0.53803  0.88646  1.0000
  C   C187      1.0  0.26405  0.54135  0.74533  1.0000
  C   C188      1.0  0.24482  0.52788  0.77580  1.0000
  C   C189      1.0  0.02596  0.78704  0.58506  1.0000
  H   H315      1.0  0.28303  0.56950  0.74215  1.0000
  C   C190      1.0  0.46707  0.72164  0.71103  1.0000
  C   C191      1.0  0.03204  0.73875  0.65615  1.0000
  C   C192      1.0  0.03596  0.76592  0.67664  1.0000
  H   H316      1.0  0.23220  0.99309  0.59608  1.0000
  H   H317      1.0  0.05490  0.73829  0.64772  1.0000
  C   C193      1.0  0.09635  0.76301  0.76599  1.0000
  C   C194      1.0  0.13769  0.72724  0.75935  1.0000
  C   C195      1.0  0.08371  0.85490  0.60754  1.0000
  H   H318      1.0  0.23932  0.52982  0.93804  1.0000
  C   C196      1.0  0.36462  0.67377  0.99073  1.0000
  H   H319      1.0  0.15239  0.77559  0.54702  1.0000
  C   C197      1.0  0.45202  0.72033  0.74293  1.0000
  C   C198      1.0  0.47403  0.74163  0.76811  1.0000
  H   H320      1.0  0.45040  0.70530  0.69134  1.0000
  H   H321      1.0  0.27840  0.52439  0.99712  1.0000
  H   H322      1.0  0.46297  0.74095  0.79276  1.0000
  H   H323      1.0  0.08844  0.78181  0.75698  1.0000
  C   C199      1.0  0.05241  0.79860  0.52827  1.0000
  C   C200      1.0  0.15534  0.78779  0.52226  1.0000
  H   H324      1.0  0.38388  0.61407  0.91419  1.0000
  H   H325      1.0  0.08017  0.69706  0.79702  1.0000
  C   C201      1.0  0.06595  0.74873  0.56882  1.0000
  H   H326      1.0  0.34169  0.54171  0.62917  1.0000
  H   H327      1.0  0.01032  0.75802  0.58092  1.0000
  H   H328      1.0  0.31797  0.52278  0.99267  1.0000
  C   C202      1.0  0.36135  0.58619  0.91632  1.0000
  H   H329      1.0  0.12327  0.77961  0.77535  1.0000
  H   H330      1.0  0.08368  0.74031  0.57900  1.0000
  C   C203      1.0  0.07548  0.68490  0.77187  1.0000
  C   C204      1.0  0.26432  0.55589  0.93487  1.0000
  H   H331      1.0  0.07257  0.85868  0.55547  1.0000
  H   H332      1.0  0.15737  0.74899  0.74190  1.0000
  H   H333      1.0  0.07777  0.74672  0.78694  1.0000
  H   H334      1.0  0.10958  0.85502  0.56156  1.0000
  H   H335      1.0  0.10367  0.88363  0.60914  1.0000
  C   C205      1.0  0.25218  0.98607  0.59081  1.0000
  H   H336      1.0  0.32760  0.60442  0.90079  1.0000
  N   N14       1.0  0.06026  0.80438  0.56514  1.0000
  C   C206      1.0  0.32406  0.51239  0.62862  1.0000
  H   H337      1.0  0.26996  0.56695  0.96055  1.0000
  C   C207      1.0  0.08190  0.84383  0.57067  1.0000
  H   H338      1.0  0.32990  0.60143  0.94471  1.0000
  H   H339      1.0  0.25012  0.57189  0.88719  1.0000
  H   H340      1.0  0.03980  0.73096  0.58100  1.0000
  C   C208      1.0  0.09514  0.74026  0.73643  1.0000
  H   H341      1.0  0.11471  0.75840  0.71677  1.0000
  H   H342      1.0  0.10832  0.80322  0.56599  1.0000
  C   C209      1.0  0.30318  0.53452  0.98204  1.0000
  C   C210      1.0  0.30644  0.65803  0.97511  1.0000
  H   H343      1.0  0.23482  0.58168  0.92484  1.0000
  H   H344      1.0  0.27350  0.52929  0.69529  1.0000
  H   H345      1.0  0.24864  0.97483  0.56540  1.0000
  H   H346      1.0  0.10401  0.84049  0.50642  1.0000
  H   H347      1.0  0.06963  0.73068  0.72445  1.0000
  H   H348      1.0  0.31983  0.56342  0.98565  1.0000
  N   N15       1.0  0.36570  0.76940  0.71453  1.0000
  C   C211      1.0  0.35358  0.79459  0.72357  1.0000
  C   C212      1.0  0.37829  0.76112  0.74650  1.0000
  C   C213      1.0  0.33430  0.73563  0.70288  1.0000
  C   C214      1.0  0.39398  0.78679  0.68705  1.0000
  C   C215      1.0  0.33482  0.80307  0.69587  1.0000
  C   C216      1.0  0.40856  0.79331  0.76358  1.0000
  C   C217      1.0  0.34090  0.70651  0.69101  1.0000
  C   C218      1.0  0.41999  0.77351  0.68383  1.0000
  H   H349      1.0  0.33550  0.78427  0.74617  1.0000
  H   H350      1.0  0.37610  0.82066  0.73084  1.0000
  H   H351      1.0  0.38674  0.74194  0.74269  1.0000
  H   H352      1.0  0.35623  0.74752  0.76549  1.0000
  H   H353      1.0  0.31362  0.72356  0.72334  1.0000
  H   H354      1.0  0.32221  0.74099  0.68109  1.0000
  H   H355      1.0  0.38200  0.78424  0.66206  1.0000
  H   H356      1.0  0.41057  0.81587  0.69098  1.0000
  H   H357      1.0  0.34931  0.81043  0.67123  1.0000
  H   H358      1.0  0.30750  0.78061  0.69308  1.0000
  H   H359      1.0  0.33258  0.82595  0.70353  1.0000
  H   H360      1.0  0.41972  0.78356  0.78285  1.0000
  H   H361      1.0  0.43013  0.81122  0.74556  1.0000
  H   H362      1.0  0.39889  0.80852  0.77709  1.0000
  H   H363      1.0  0.35315  0.69829  0.71030  1.0000
  H   H364      1.0  0.35676  0.71471  0.66710  1.0000
  H   H365      1.0  0.31528  0.68242  0.68575  1.0000
  H   H366      1.0  0.42704  0.77410  0.65674  1.0000
  H   H367      1.0  0.41020  0.74616  0.69354  1.0000
  H   H368      1.0  0.44511  0.79191  0.69590  1.0000
  H   H369      1.0  0.29088  0.55913  0.86800  1.0000
  H   H370      1.0  0.13512  0.68110  0.78599  1.0000
  N   N16       1.0  0.29359  0.55130  0.92190  1.0000
  H   H371      1.0  0.15350  0.68952  0.74323  1.0000
  C   C219      1.0  0.32738  0.58683  0.92141  1.0000
  C   C220      1.0  0.08105  0.78813  0.57681  1.0000
  H   H372      1.0  0.24692  0.96426  0.60916  1.0000
  C   C221      1.0  0.17068  0.82464  0.51863  1.0000
  H   H373      1.0  0.12654  0.70615  0.69996  1.0000
  H   H374      1.0  0.03378  0.76998  0.52372  1.0000
  H   H375      1.0  0.09161  0.84029  0.62465  1.0000
  H   H376      1.0  0.39124  0.68155  0.98361  1.0000
  C   C222      1.0  0.03613  0.66759  0.76469  1.0000
  H   H377      1.0  0.36610  0.57329  0.93818  1.0000
  C   C223      1.0  0.15129  0.70190  0.76643  1.0000
  H   H378      1.0  0.13916  0.73994  0.78368  1.0000
  H   H379      1.0  0.07950  0.66227  0.77628  1.0000
  H   H380      1.0  0.30734  0.53154  0.87841  1.0000
  H   H381      1.0  0.17817  0.71751  0.77631  1.0000
  H   H382      1.0  0.05834  0.85100  0.61689  1.0000
  C   C224      1.0  0.10077  0.69129  0.71400  1.0000
  H   H383      1.0  0.09697  0.66481  0.72077  1.0000
  H   H384      1.0  0.08133  0.71083  0.67385  1.0000
  H   H385      1.0  0.04659  0.67367  0.69825  1.0000
  C   C225      1.0  0.07351  0.68544  0.68753  1.0000
  N   N17       1.0  0.10137  0.71053  0.74531  1.0000
  H   H386      1.0  0.07294  0.66713  0.66841  1.0000
  H   H387      1.0  0.34783  0.51161  0.58165  1.0000
  C   C226      1.0  0.25857  0.51841  0.71875  1.0000
  C   C227      1.0  0.29543  0.52457  0.94470  1.0000
  H   H388      1.0  0.36147  0.57329  0.89271  1.0000
  H   H389      1.0  0.31051  0.51531  0.57701  1.0000
  H   H390      1.0  0.02925  0.68562  0.75198  1.0000
  H   H391      1.0  0.03003  0.78839  0.61265  1.0000
  C   C228      1.0  0.25724  0.58091  0.91329  1.0000
  H   H392      1.0  0.00847  0.78711  0.70284  1.0000
  H   H393      1.0  0.28004  0.60853  0.91264  1.0000
  H   H394      1.0  0.02094  0.65987  0.78905  1.0000
  C   C229      1.0  0.08458  0.81177  0.50419  1.0000
  C   C230      1.0  0.25127  0.50470  0.88037  1.0000
  H   H395      1.0  0.03871  0.81235  0.51964  1.0000
  H   H396      1.0  0.22954  0.50973  0.88392  1.0000
  H   H397      1.0  0.29860  0.50596  0.64036  1.0000
  H   H398      1.0  0.31450  0.51761  0.93471  1.0000
  C   C231      1.0  0.00581  0.76624  0.68698  1.0000
  H   H399      1.0  0.01542  0.82924  0.56858  1.0000
  H   H400      1.0  0.02674  0.64337  0.74983  1.0000
  C   C232      1.0  0.28977  0.00074  0.69131  1.0000
  Fe  Fe33      1.0  0.79968  0.12530  0.32848  1.0000
  S   S65       1.0  0.75602  0.13366  0.34330  1.0000
  S   S66       1.0  0.79567  0.07322  0.31499  1.0000
  Fe  Fe34      1.0  0.85461  0.20522  0.32801  1.0000
  S   S67       1.0  0.81439  0.21975  0.34238  1.0000
  S   S68       1.0  0.91156  0.24668  0.31267  1.0000
  Fe  Fe35      1.0  0.79408  0.17299  0.37922  1.0000
  S   S69       1.0  0.77173  0.17062  0.43139  1.0000
  Fe  Fe36      1.0  0.77900  0.17963  0.30524  1.0000
  S   S70       1.0  0.74126  0.18004  0.26650  1.0000
  S   S71       1.0  0.83643  0.16122  0.36746  1.0000
  S   S72       1.0  0.82062  0.16853  0.28797  1.0000
  Fe  Fe37      1.0  0.59959  0.30089  0.18481  1.0000
  S   S73       1.0  0.62129  0.34439  0.14405  1.0000
  S   S74       1.0  0.53980  0.27146  0.19409  1.0000
  Fe  Fe38      1.0  0.67216  0.31160  0.19733  1.0000
  S   S75       1.0  0.69823  0.35601  0.15771  1.0000
  S   S76       1.0  0.70959  0.30296  0.22962  1.0000
  Fe  Fe39      1.0  0.66498  0.37565  0.18002  1.0000
  S   S77       1.0  0.68346  0.43443  0.18615  1.0000
  Fe  Fe40      1.0  0.65293  0.32159  0.12439  1.0000
  S   S78       1.0  0.66374  0.30992  0.06993  1.0000
  S   S79       1.0  0.64140  0.33357  0.22155  1.0000
  S   S80       1.0  0.62863  0.27577  0.16323  1.0000
  C   C233      1.0  0.65929  0.31860  0.02621  1.0000
  H   H401      1.0  0.65067  0.01402  0.23333  1.0000
  H   H402      1.0  0.60368  0.46078  0.27429  1.0000
  H   H403      1.0  0.63791  0.35177  0.03473  1.0000
  H   H404      1.0  0.68466  0.11179  0.18811  1.0000
  C   C234      1.0  0.73175  0.21403  0.25776  1.0000
  C   C235      1.0  0.70448  0.20720  0.23588  1.0000
  C   C236      1.0  0.69649  0.23359  0.22778  1.0000
  C   C237      1.0  0.71603  0.26739  0.24114  1.0000
  C   C238      1.0  0.74330  0.27418  0.26289  1.0000
  C   C239      1.0  0.75102  0.24771  0.27132  1.0000
  H   H405      1.0  0.68934  0.18126  0.22527  1.0000
  H   H406      1.0  0.67534  0.22786  0.21118  1.0000
  H   H407      1.0  0.75874  0.30023  0.27327  1.0000
  H   H408      1.0  0.77210  0.25349  0.28809  1.0000
  C   C240      1.0  0.79795  0.17555  0.46596  1.0000
  C   C241      1.0  0.83419  0.19074  0.46175  1.0000
  H   H409      1.0  0.76251  0.30443  0.04508  1.0000
  H   H410      1.0  0.84643  0.19888  0.43682  1.0000
  H   H411      1.0  0.74633  0.25215  0.15996  1.0000
  C   C242      1.0  0.51286  0.26197  0.23115  1.0000
  H   H412      1.0  0.73603  0.34749  0.09914  1.0000
  H   H413      1.0  0.70480  0.28625  0.15931  1.0000
  C   C243      1.0  0.52543  0.26388  0.26358  1.0000
  H   H414      1.0  0.72442  0.29718  0.06750  1.0000
  H   H415      1.0  0.86017  0.06329  0.28797  1.0000
  H   H416      1.0  0.55253  0.27172  0.26669  1.0000
  H   H417      1.0  0.72718  0.26030  0.05399  1.0000
  C   C244      1.0  0.95134  0.25259  0.32839  1.0000
  C   C245      1.0  0.95202  0.23378  0.35696  1.0000
  C   C246      1.0  0.50268  0.25494  0.29212  1.0000
  H   H418      1.0  0.92793  0.21633  0.37119  1.0000
  C   C247      1.0  0.72873  0.02583  0.34173  1.0000
  C   C248      1.0  0.75843  0.03041  0.32441  1.0000
  C   C249      1.0  0.90399  0.13416  0.36957  1.0000
  H   H419      1.0  0.72860  0.04873  0.35079  1.0000
  C   C250      1.0  0.91307  0.09978  0.30729  1.0000
  H   H420      1.0  0.92750  0.09799  0.32894  1.0000
  C   C251      1.0  0.70363  0.46300  0.22044  1.0000
  C   C252      1.0  0.71161  0.45146  0.25024  1.0000
  H   H421      1.0  0.75410  0.28933  0.18328  1.0000
  H   H422      1.0  0.70617  0.42453  0.25268  1.0000
  C   C253      1.0  0.71116  0.28042  0.13392  1.0000
  H   H423      1.0  0.89257  0.18185  0.28059  1.0000
  C   C254      1.0  0.89845  0.13582  0.27212  1.0000
  C   C255      1.0  0.90302  0.17189  0.26118  1.0000
  H   H424      1.0  0.73430  0.11182  0.27090  1.0000
  N   N18       1.0  0.58849  0.39449  0.24896  1.0000
  C   C256      1.0  0.60429  0.43032  0.23076  1.0000
  C   C257      1.0  0.57774  0.36710  0.22230  1.0000
  C   C258      1.0  0.61688  0.39481  0.26941  1.0000
  C   C259      1.0  0.55813  0.38878  0.27132  1.0000
  C   C260      1.0  0.62121  0.46317  0.25298  1.0000
  C   C261      1.0  0.55106  0.36550  0.19705  1.0000
  C   C262      1.0  0.60654  0.36104  0.29084  1.0000
  C   C263      1.0  0.52961  0.34985  0.28108  1.0000
  H   H425      1.0  0.62465  0.43415  0.21173  1.0000
  H   H426      1.0  0.58414  0.43211  0.21617  1.0000
  H   H427      1.0  0.56663  0.33992  0.23326  1.0000
  H   H428      1.0  0.60121  0.37202  0.20715  1.0000
  H   H429      1.0  0.63943  0.40025  0.25251  1.0000
  H   H430      1.0  0.62747  0.41644  0.28773  1.0000
  H   H431      1.0  0.56795  0.40327  0.29512  1.0000
  H   H432      1.0  0.54397  0.40033  0.25869  1.0000
  H   H433      1.0  0.74447  0.08049  0.21265  1.0000
  C   C264      1.0  0.98319  0.27641  0.31110  1.0000
  H   H434      1.0  0.98305  0.29138  0.28917  1.0000
  H   H435      1.0  0.92622  0.09635  0.28484  1.0000
  H   H436      1.0  0.59540  0.33687  0.27586  1.0000
  H   H437      1.0  0.58837  0.35733  0.31210  1.0000
  H   H438      1.0  0.63054  0.36416  0.30224  1.0000
  H   H439      1.0  0.86100  0.06787  0.33325  1.0000
  H   H440      1.0  0.69257  0.10581  0.30915  1.0000
  C   C265      1.0  0.87556  0.06690  0.31079  1.0000
  H   H441      1.0  0.70148  0.29309  0.11654  1.0000
  C   C266      1.0  0.66682  0.05135  0.28977  1.0000
  H   H442      1.0  0.80317  0.27861  0.18184  1.0000
  H   H443      1.0  0.65761  0.07228  0.33560  1.0000
  C   C267      1.0  0.74234  0.28711  0.06466  1.0000
  H   H444      1.0  0.91187  0.11434  0.37238  1.0000
  C   C268      1.0  0.66643  0.08125  0.30896  1.0000
  C   C269      1.0  0.80003  0.29350  0.16056  1.0000
  H   H445      1.0  0.81687  0.32200  0.16615  1.0000
  H   H446      1.0  0.80981  0.28736  0.13743  1.0000
  H   H447      1.0  0.77651  0.38486  0.11032  1.0000
  C   C270      1.0  0.76383  0.35657  0.10349  1.0000
  H   H448      1.0  0.76385  0.06918  0.24658  1.0000
  C   C271      1.0  0.68768  0.23994  0.12985  1.0000
  H   H449      1.0  0.77696  0.35625  0.07969  1.0000
  H   H450      1.0  0.84352  0.28424  0.47648  1.0000
  H   H451      1.0  0.75526  0.25810  0.10000  1.0000
  C   C272      1.0  0.76041  0.28566  0.09726  1.0000
  H   H452      1.0  0.87715  0.04267  0.31408  1.0000
  C   C273      1.0  0.76883  0.33568  0.13227  1.0000
  H   H453      1.0  0.65982  0.23271  0.13022  1.0000
  C   C274      1.0  0.89602  0.14034  0.33316  1.0000
  H   H454      1.0  0.69012  0.22461  0.15101  1.0000
  H   H455      1.0  0.69282  0.03411  0.21461  1.0000
  H   H456      1.0  0.90090  0.16776  0.33188  1.0000
  H   H457      1.0  0.53858  0.33083  0.28114  1.0000
  H   H458      1.0  0.86714  0.12359  0.33048  1.0000
  H   H459      1.0  0.90869  0.12749  0.25069  1.0000
  C   C275      1.0  0.76087  0.28166  0.15912  1.0000
  H   H460      1.0  0.69271  0.23123  0.10559  1.0000
  C   C276      1.0  0.69653  0.09823  0.20131  1.0000
  H   H461      1.0  0.96470  0.16704  0.27638  1.0000
  N   N19       1.0  0.75018  0.29586  0.12958  1.0000
  H   H462      1.0  0.50576  0.17954  0.22848  1.0000
  H   H463      1.0  0.52845  0.36492  0.20962  1.0000
  H   H464      1.0  0.86960  0.11657  0.27372  1.0000
  H   H465      1.0  0.51264  0.25620  0.31707  1.0000
  H   H466      1.0  0.76094  0.34251  0.15645  1.0000
  H   H467      1.0  0.92431  0.15945  0.38032  1.0000
  H   H468      1.0  0.87971  0.12341  0.38564  1.0000
  H   H469      1.0  0.93075  0.19242  0.25480  1.0000
  H   H470      1.0  0.97046  0.16047  0.35331  1.0000
  H   H471      1.0  0.73293  0.46558  0.29983  1.0000
  C   C277      1.0  0.95338  0.16512  0.30216  1.0000
  H   H472      1.0  0.64901  0.06834  0.23191  1.0000
  C   C278      1.0  0.97901  0.16335  0.32659  1.0000
  C   C279      1.0  0.72681  0.08419  0.26533  1.0000
  H   H473      1.0  0.79765  0.34761  0.13303  1.0000
  H   H474      1.0  0.95552  0.19116  0.30576  1.0000
  N   N20       1.0  0.91545  0.13517  0.30461  1.0000
  H   H475      1.0  0.62715  0.48699  0.23732  1.0000
  H   H476      1.0  0.78923  0.30285  0.09227  1.0000
  H   H477      1.0  0.73173  0.07349  0.28888  1.0000
  H   H478      1.0  0.50660  0.34017  0.26477  1.0000
  H   H479      1.0  0.54064  0.34083  0.18264  1.0000
  H   H480      1.0  0.68288  0.10820  0.24916  1.0000
  H   H481      1.0  0.63889  0.03087  0.28538  1.0000
  H   H482      1.0  0.77689  0.11389  0.23750  1.0000
  C   C280      1.0  0.85481  0.19639  0.49003  1.0000
  H   H483      1.0  0.56385  0.38806  0.17829  1.0000
  C   C281      1.0  0.67902  0.02877  0.23939  1.0000
  C   C282      1.0  0.72680  0.47484  0.27698  1.0000
  H   H484      1.0  0.72460  0.11880  0.20407  1.0000
  H   H485      1.0  0.88293  0.20881  0.48671  1.0000
  C   C283      1.0  0.67778  0.08400  0.23599  1.0000
  H   H486      1.0  0.69358  0.07698  0.18481  1.0000
  C   C284      1.0  0.75368  0.08643  0.23864  1.0000
  N   N21       1.0  0.68844  0.06242  0.25711  1.0000
  H   H487      1.0  0.88791  0.16846  0.23813  1.0000
  H   H488      1.0  0.67995  0.28701  0.00829  1.0000
  H   H489      1.0  0.98407  0.22231  0.38878  1.0000
  H   H490      1.0  0.64676  0.46868  0.26253  1.0000
  C   C285      1.0  0.64604  0.33991  0.01588  1.0000
  H   H491      1.0  0.64766  0.08775  0.29782  1.0000
  C   C286      1.0  0.98395  0.23754  0.36708  1.0000
  H   H492      1.0  0.51935  0.34871  0.30708  1.0000
  H   H493      1.0  0.67612  0.03851  0.30784  1.0000
  H   H494      1.0  0.80208  0.24563  0.48721  1.0000
  H   H495      1.0  0.98401  0.14195  0.32021  1.0000
  H   H496      1.0  0.71308  0.01553  0.26812  1.0000
  C   C287      1.0  0.71125  0.49828  0.21780  1.0000
  C   C288      1.0  0.78237  0.16541  0.49846  1.0000
  C   C289      1.0  0.66968  0.30356  0.00091  1.0000
  C   C290      1.0  0.68594  0.00256  0.25917  1.0000
  H   H497      1.0  0.78109  0.00346  0.29983  1.0000
  C   C291      1.0  0.82731  0.26599  0.49785  1.0000
  Fe  Fe41      1.0  0.79633  0.12558  0.66454  1.0000
  S   S81       1.0  0.78760  0.16019  0.62842  1.0000
  S   S82       1.0  0.74736  0.07004  0.67236  1.0000
  Fe  Fe42      1.0  0.86937  0.18798  0.68118  1.0000
  S   S83       1.0  0.86455  0.22643  0.64721  1.0000
  S   S84       1.0  0.91893  0.20538  0.71061  1.0000
  Fe  Fe43      1.0  0.80919  0.20138  0.66815  1.0000
  S   S85       1.0  0.78161  0.23302  0.67240  1.0000
  Fe  Fe44      1.0  0.84318  0.18232  0.61065  1.0000
  S   S86       1.0  0.86642  0.19690  0.55748  1.0000
  S   S87       1.0  0.81530  0.16589  0.70551  1.0000
  S   S88       1.0  0.85073  0.14473  0.64350  1.0000
  Fe  Fe45      1.0  0.61857  0.29310  0.79262  1.0000
  S   S89       1.0  0.66851  0.31279  0.76151  1.0000
  S   S90       1.0  0.56598  0.25179  0.77067  1.0000
  Fe  Fe46      1.0  0.65838  0.32610  0.85805  1.0000
  S   S91       1.0  0.71070  0.34731  0.83103  1.0000
  S   S92       1.0  0.64947  0.33983  0.91216  1.0000
  Fe  Fe47      1.0  0.68906  0.36427  0.78843  1.0000
  S   S93       1.0  0.72950  0.41705  0.76162  1.0000
  Fe  Fe48      1.0  0.68713  0.29489  0.80546  1.0000
  S   S94       1.0  0.71556  0.26403  0.80230  1.0000
  S   S95       1.0  0.63766  0.34596  0.81641  1.0000
  S   S96       1.0  0.63615  0.27220  0.83566  1.0000
  H   H498      1.0  0.57369  0.27990  0.67628  1.0000
  C   C292      1.0  0.65374  0.33097  0.95584  1.0000
  C   C293      1.0  0.66691  0.30960  0.96612  1.0000
  H   H499      1.0  0.63309  0.36259  0.97376  1.0000
  H   H500      1.0  0.67507  0.29773  0.94731  1.0000
  C   C294      1.0  0.52631  0.24938  0.75969  1.0000
  H   H501      1.0  0.51178  0.23825  0.60652  1.0000
  H   H502      1.0  0.54071  0.30148  0.77554  1.0000
  C   C295      1.0  0.64335  0.34601  0.98110  1.0000
  C   C296      1.0  0.76425  0.24212  0.70898  1.0000
  C   C297      1.0  0.74475  0.25878  0.70500  1.0000
  C   C298      1.0  0.72992  0.26593  0.73318  1.0000
  C   C299      1.0  0.73435  0.25643  0.76581  1.0000
  C   C300      1.0  0.75388  0.23977  0.76975  1.0000
  C   C301      1.0  0.76889  0.23282  0.74158  1.0000
  H   H503      1.0  0.74105  0.26624  0.67996  1.0000
  H   H504      1.0  0.71504  0.27877  0.72966  1.0000
  H   H505      1.0  0.75766  0.23247  0.79484  1.0000
  H   H506      1.0  0.78432  0.22061  0.74514  1.0000
  C   C302      1.0  0.96115  0.23382  0.69148  1.0000
  C   C303      1.0  0.96532  0.25097  0.66014  1.0000
  C   C304      1.0  0.55587  0.31066  0.59431  1.0000
  H   H507      1.0  0.94245  0.24638  0.64681  1.0000
  H   H508      1.0  0.59244  0.27134  0.89196  1.0000
  H   H509      1.0  0.69242  0.43580  0.92371  1.0000
  C   C305      1.0  0.70965  0.46761  0.75555  1.0000
  C   C306      1.0  0.73414  0.45797  0.74722  1.0000
  H   H510      1.0  0.77573  0.21636  0.53654  1.0000
  C   C307      1.0  0.76480  0.48256  0.72867  1.0000
  H   H511      1.0  0.68582  0.44892  0.76947  1.0000
  H   H512      1.0  0.57045  0.28653  0.91786  1.0000
  H   H513      1.0  0.84115  0.25294  0.50748  1.0000
  C   C308      1.0  0.83930  0.18660  0.52256  1.0000
  C   C309      1.0  0.80294  0.17063  0.52670  1.0000
  H   H514      1.0  0.53312  0.30837  0.88226  1.0000
  H   H515      1.0  0.79074  0.16272  0.55163  1.0000
  H   H516      1.0  0.63728  0.03561  0.68316  1.0000
  C   C310      1.0  0.74334  0.02848  0.66469  1.0000
  H   H517      1.0  0.69627  0.40427  0.87599  1.0000
  H   H518      1.0  0.54011  0.22579  0.95036  1.0000
  H   H519      1.0  0.79833  0.04706  0.66729  1.0000
  C   C311      1.0  0.75363  0.48520  0.83809  1.0000
  C   C312      1.0  0.54979  0.26310  0.66173  1.0000
  H   H520      1.0  0.76569  0.20722  0.60121  1.0000
  H   H521      1.0  0.55885  0.26301  0.63572  1.0000
  C   C313      1.0  0.83217  0.32624  0.59116  1.0000
  H   H522      1.0  0.73801  0.22582  0.59689  1.0000
  C   C314      1.0  0.76739  0.44235  0.86124  1.0000
  C   C315      1.0  0.72034  0.44489  0.92774  1.0000
  H   H523      1.0  0.52566  0.26401  0.83506  1.0000
  C   C316      1.0  0.77230  0.02423  0.66432  1.0000
  C   C317      1.0  0.83039  0.25685  0.57533  1.0000
  N   N22       1.0  0.80706  0.26785  0.55871  1.0000
  H   H524      1.0  0.82290  0.34060  0.60675  1.0000
  C   C318      1.0  0.80015  0.29054  0.58167  1.0000
  C   C319      1.0  0.70625  0.42660  0.85720  1.0000
  H   H525      1.0  0.57060  0.21744  0.92734  1.0000
  H   H526      1.0  0.84707  0.31239  0.52727  1.0000
  N   N23       1.0  0.53690  0.24660  0.88262  1.0000
  H   H527      1.0  0.77245  0.42530  0.91220  1.0000
  H   H528      1.0  0.77863  0.40243  0.87895  1.0000
  H   H529      1.0  0.78399  0.47550  0.72212  1.0000
  H   H530      1.0  0.50761  0.26285  0.68780  1.0000
  H   H531      1.0  0.87919  0.31101  0.56618  1.0000
  C   C320      1.0  0.87055  0.28286  0.57113  1.0000
  H   H532      1.0  0.75065  0.47434  0.81252  1.0000
  N   N24       1.0  0.74279  0.45608  0.86484  1.0000
  H   H533      1.0  0.78826  0.27631  0.60630  1.0000
  H   H534      1.0  0.57667  0.31766  0.61281  1.0000
  C   C321      1.0  0.82170  0.28724  0.52507  1.0000
  H   H535      1.0  0.50475  0.30424  0.59100  1.0000
  H   H536      1.0  0.82381  0.25130  0.60286  1.0000
  H   H537      1.0  0.72375  0.16394  0.65285  1.0000
  H   H538      1.0  0.50373  0.19621  0.74184  1.0000
  H   H539      1.0  0.55109  0.28744  0.57983  1.0000
  C   C322      1.0  0.76258  0.41364  0.88736  1.0000
  C   C323      1.0  0.77211  0.23494  0.55213  1.0000
  C   C324      1.0  0.54613  0.27356  0.85412  1.0000
  H   H540      1.0  0.68096  0.45581  0.87475  1.0000
  C   C325      1.0  0.74493  0.47105  0.89923  1.0000
  H   H541      1.0  0.65183  0.41315  0.85783  1.0000
  H   H542      1.0  0.80402  0.29561  0.51439  1.0000
  C   C326      1.0  0.69729  0.14240  0.64624  1.0000
  H   H543      1.0  0.65653  0.16888  0.72565  1.0000
  C   C327      1.0  0.67843  0.43735  0.85498  1.0000
  H   H544      1.0  0.55901  0.22031  0.85545  1.0000
  H   H545      1.0  0.62703  0.02006  0.72598  1.0000
  H   H546      1.0  0.69595  0.17409  0.74120  1.0000
  C   C328      1.0  0.99914  0.27450  0.64617  1.0000
  C   C329      1.0  0.56539  0.23813  0.93587  1.0000
  H   H547      1.0  0.84653  0.34388  0.56895  1.0000
  C   C330      1.0  0.53393  0.21360  0.86865  1.0000
  C   C331      1.0  0.75010  0.21277  0.58348  1.0000
  H   H548      1.0  0.85001  0.32213  0.60718  1.0000
  H   H549      1.0  0.53782  0.23612  0.67382  1.0000
  H   H550      1.0  0.88182  0.27382  0.55138  1.0000
  H   H551      1.0  0.88315  0.28199  0.59473  1.0000
  C   C332      1.0  0.52486  0.27751  0.66552  1.0000
  H   H552      1.0  0.56983  0.27809  0.83977  1.0000
  H   H553      1.0  0.79514  0.46405  0.86337  1.0000
  N   N25       1.0  0.68538  0.11039  0.70493  1.0000
  C   C333      1.0  0.67256  0.07364  0.71988  1.0000
  C   C334      1.0  0.72288  0.13406  0.71496  1.0000
  C   C335      1.0  0.68461  0.10776  0.66705  1.0000
  C   C336      1.0  0.66152  0.12288  0.71747  1.0000
  C   C337      1.0  0.63606  0.04391  0.70912  1.0000
  C   C338      1.0  0.72929  0.13420  0.75309  1.0000
  H   H554      1.0  0.78078  0.29625  0.57038  1.0000
  C   C339      1.0  0.67772  0.16339  0.72008  1.0000
  H   H555      1.0  0.69145  0.06504  0.71369  1.0000
  H   H556      1.0  0.67099  0.07350  0.74792  1.0000
  H   H557      1.0  0.73377  0.16204  0.70633  1.0000
  H   H558      1.0  0.73994  0.12602  0.70218  1.0000
  H   H559      1.0  0.70057  0.09640  0.65842  1.0000
  H   H560      1.0  0.57965  0.32598  0.87579  1.0000
  H   H561      1.0  0.63831  0.11301  0.70127  1.0000
  H   H562      1.0  0.65037  0.11142  0.74317  1.0000
  H   H563      1.0  0.61615  0.05171  0.71099  1.0000
  H   H564      1.0  0.75532  0.24181  0.53722  1.0000
  H   H565      1.0  0.52937  0.19398  0.88920  1.0000
  H   H566      1.0  0.72947  0.11001  0.76123  1.0000
  H   H567      1.0  0.75560  0.15724  0.75839  1.0000
  H   H568      1.0  0.70960  0.13628  0.76859  1.0000
  H   H569      1.0  0.76558  0.43165  0.83560  1.0000
  H   H570      1.0  0.69903  0.13715  0.61925  1.0000
  C   C340      1.0  0.56733  0.26236  0.90614  1.0000
  H   H571      1.0  0.67820  0.15127  0.64814  1.0000
  C   C341      1.0  0.52037  0.27711  0.76506  1.0000
  H   H572      1.0  0.65756  0.08934  0.65865  1.0000
  H   H573      1.0  0.99308  0.24899  0.55739  1.0000
  C   C342      1.0  0.52230  0.30561  0.61141  1.0000
  H   H574      1.0  0.68005  0.44987  0.82991  1.0000
  H   H575      1.0  0.72827  0.18679  0.57530  1.0000
  H   H576      1.0  0.55406  0.32562  0.84162  1.0000
  H   H577      1.0  0.56642  0.33353  0.57588  1.0000
  N   N26       1.0  0.50267  0.27424  0.63584  1.0000
  H   H578      1.0  0.82530  0.23133  0.56522  1.0000
  H   H579      1.0  0.70636  0.41480  0.83269  1.0000
  H   H580      1.0  0.53091  0.33094  0.62418  1.0000
  H   H581      1.0  0.69160  0.17875  0.69671  1.0000
  H   H582      1.0  0.54084  0.30569  0.67299  1.0000
  H   H583      1.0  0.73520  0.39106  0.89026  1.0000
  C   C343      1.0  0.55348  0.31030  0.86451  1.0000
  H   H584      1.0  0.58643  0.25451  0.95360  1.0000
  H   H585      1.0  0.50538  0.20904  0.82194  1.0000
  H   H586      1.0  0.99477  0.36355  0.68525  1.0000
  C   C344      1.0  0.50397  0.23792  0.90229  1.0000
  H   H587      1.0  0.72716  0.45877  0.95198  1.0000
  H   H588      1.0  0.75430  0.15348  0.50175  1.0000
  H   H589      1.0  0.51028  0.25852  0.92129  1.0000
  H   H590      1.0  0.77223  0.48385  0.90831  1.0000
  H   H591      1.0  0.72248  0.42118  0.93138  1.0000
  C   C345      1.0  0.50425  0.19271  0.84405  1.0000
  H   H592      1.0  0.73907  0.49274  0.89792  1.0000
  H   H593      1.0  0.73636  0.49644  0.83927  1.0000
  C   C346      1.0  0.99126  0.24016  0.70842  1.0000
  H   H594      1.0  0.98828  0.22696  0.73265  1.0000
  H   H595      1.0  0.50702  0.17097  0.83387  1.0000
  H   H596      1.0  0.00192  0.28808  0.62223  1.0000
  H   H597      1.0  0.68710  0.00134  0.66122  1.0000
  Fe  Fe49      1.0  0.78065  0.66879  0.30071  1.0000
  S   S97       1.0  0.73997  0.61982  0.32996  1.0000
  S   S98       1.0  0.75666  0.69258  0.26713  1.0000
  Fe  Fe50      1.0  0.84251  0.66747  0.33247  1.0000
  S   S99       1.0  0.80501  0.61873  0.36410  1.0000
  S   S100      1.0  0.89832  0.68630  0.34937  1.0000
  Fe  Fe51      1.0  0.77371  0.59721  0.31719  1.0000
  S   S101      1.0  0.75531  0.53871  0.30846  1.0000
  Fe  Fe52      1.0  0.77478  0.64542  0.37348  1.0000
  S   S102      1.0  0.75563  0.65504  0.42276  1.0000
  S   S103      1.0  0.81282  0.64459  0.28476  1.0000
  S   S104      1.0  0.81376  0.69554  0.34504  1.0000
  Fe  Fe53      1.0  0.68081  0.81722  0.31113  1.0000
  S   S105      1.0  0.62995  0.76753  0.32448  1.0000
  S   S106      1.0  0.73211  0.81858  0.30275  1.0000
  Fe  Fe54      1.0  0.65239  0.86482  0.33089  1.0000
  S   S107      1.0  0.59917  0.81764  0.34670  1.0000
  S   S108      1.0  0.65998  0.91898  0.34220  1.0000
  Fe  Fe55      1.0  0.62919  0.79536  0.37058  1.0000
  S   S109      1.0  0.61967  0.76405  0.41944  1.0000
  Fe  Fe56      1.0  0.60327  0.79328  0.29898  1.0000
  S   S110      1.0  0.55495  0.75317  0.27013  1.0000
  S   S111      1.0  0.68153  0.84397  0.35900  1.0000
  S   S112      1.0  0.65512  0.84179  0.28135  1.0000
  C   C347      1.0  0.51710  0.75142  0.25357  1.0000
  H   H598      1.0  0.93284  0.64216  0.45952  1.0000
  H   H599      1.0  0.85990  0.58757  0.23154  1.0000
  H   H600      1.0  0.82849  0.54327  0.31904  1.0000
  C   C348      1.0  0.71696  0.92768  0.42899  1.0000
  C   C349      1.0  0.69864  0.96137  0.33561  1.0000
  C   C350      1.0  0.51382  0.78128  0.25079  1.0000
  C   C351      1.0  0.72857  0.96587  0.31888  1.0000
  H   H601      1.0  0.66865  0.85788  0.43198  1.0000
  H   H602      1.0  0.72869  0.94293  0.30988  1.0000
  C   C352      1.0  0.59743  0.80219  0.45486  1.0000
  C   C353      1.0  0.61206  0.78081  0.45627  1.0000
  H   H603      1.0  0.82885  0.58334  0.31766  1.0000
  H   H604      1.0  0.59012  0.80823  0.43092  1.0000
  H   H605      1.0  0.90537  0.66145  0.41473  1.0000
  H   H606      1.0  0.55300  0.73861  0.38509  1.0000
  C   C354      1.0  0.72664  0.52175  0.24450  1.0000
  H   H607      1.0  0.89310  0.52003  0.28861  1.0000
  H   H608      1.0  0.73248  0.54881  0.24193  1.0000
  H   H609      1.0  0.89755  0.56762  0.25418  1.0000
  C   C355      1.0  0.94140  0.71164  0.33096  1.0000
  C   C356      1.0  0.96979  0.71667  0.35016  1.0000
  C   C357      1.0  0.94813  0.72620  0.29805  1.0000
  H   H610      1.0  0.96501  0.70554  0.37556  1.0000
  H   H611      1.0  0.92663  0.72272  0.28299  1.0000
  C   C358      1.0  0.76377  0.63764  0.45936  1.0000
  H   H612      1.0  0.63442  0.87935  0.42239  1.0000
  C   C359      1.0  0.76707  0.60785  0.45800  1.0000
  C   C360      1.0  0.91610  0.67751  0.43752  1.0000
  H   H613      1.0  0.76330  0.59448  0.43452  1.0000
  C   C361      1.0  0.74824  0.72553  0.28116  1.0000
  C   C362      1.0  0.77411  0.75592  0.29666  1.0000
  C   C363      1.0  0.76858  0.78397  0.30337  1.0000
  C   C364      1.0  0.73681  0.78158  0.29558  1.0000
  C   C365      1.0  0.71038  0.75063  0.28128  1.0000
  C   C366      1.0  0.71633  0.72302  0.27361  1.0000
  H   H614      1.0  0.79900  0.75850  0.30206  1.0000
  H   H615      1.0  0.78927  0.80788  0.31420  1.0000
  H   H616      1.0  0.68596  0.74859  0.27480  1.0000
  H   H617      1.0  0.69640  0.69990  0.26112  1.0000
  N   N27       1.0  0.86857  0.58439  0.28501  1.0000
  H   H618      1.0  0.68219  0.98103  0.24246  1.0000
  H   H619      1.0  0.84135  0.57754  0.46694  1.0000
  H   H620      1.0  0.70523  0.50757  0.19490  1.0000
  C   C367      1.0  0.85408  0.60333  0.45244  1.0000
  C   C368      1.0  0.84651  0.57253  0.31724  1.0000
  N   N28       1.0  0.88699  0.67075  0.46209  1.0000
  H   H621      1.0  0.70207  0.91666  0.40559  1.0000
  H   H622      1.0  0.89975  0.64559  0.23318  1.0000
  H   H623      1.0  0.55407  0.73535  0.34130  1.0000
  H   H624      1.0  0.89029  0.58103  0.34955  1.0000
  H   H625      1.0  0.57496  0.70111  0.37580  1.0000
  C   C369      1.0  0.90225  0.69665  0.49002  1.0000
  C   C370      1.0  0.86031  0.67504  0.44312  1.0000
  N   N29       1.0  0.69633  0.72491  0.39767  1.0000
  C   C371      1.0  0.67309  0.72491  0.37038  1.0000
  C   C372      1.0  0.71050  0.75921  0.41588  1.0000
  C   C373      1.0  0.67342  0.69426  0.42200  1.0000
  C   C374      1.0  0.72479  0.72047  0.38171  1.0000
  C   C375      1.0  0.65371  0.69082  0.35004  1.0000
  C   C376      1.0  0.72921  0.79340  0.39324  1.0000
  C   C377      1.0  0.69130  0.68975  0.45298  1.0000
  C   C378      1.0  0.76021  0.73725  0.39944  1.0000
  H   H626      1.0  0.65296  0.73007  0.38111  1.0000
  H   H627      1.0  0.68857  0.74678  0.35134  1.0000
  H   H628      1.0  0.72919  0.76193  0.43538  1.0000
  H   H629      1.0  0.68886  0.75958  0.43001  1.0000
  H   H630      1.0  0.65089  0.69634  0.43151  1.0000
  H   H631      1.0  0.66179  0.66850  0.40924  1.0000
  H   H632      1.0  0.71546  0.69178  0.37899  1.0000
  H   H633      1.0  0.73130  0.73190  0.35549  1.0000
  H   H634      1.0  0.67162  0.68237  0.34034  1.0000
  H   H635      1.0  0.63162  0.66875  0.36499  1.0000
  H   H636      1.0  0.64215  0.69617  0.32774  1.0000
  H   H637      1.0  0.70976  0.79811  0.38089  1.0000
  H   H638      1.0  0.74552  0.81666  0.40885  1.0000
  H   H639      1.0  0.74647  0.79248  0.37342  1.0000
  H   H640      1.0  0.91104  0.63216  0.30641  1.0000
  H   H641      1.0  0.87465  0.60425  0.43568  1.0000
  H   H642      1.0  0.95891  0.68804  0.47179  1.0000
  C   C379      1.0  0.66446  0.90825  0.46677  1.0000
  H   H643      1.0  0.96358  0.67577  0.43051  1.0000
  C   C380      1.0  0.84467  0.57609  0.25564  1.0000
  H   H644      1.0  0.91883  0.72458  0.48012  1.0000
  H   H645      1.0  0.66725  0.85044  0.47601  1.0000
  C   C381      1.0  0.73044  0.96782  0.42957  1.0000
  H   H646      1.0  0.61760  0.90249  0.44450  1.0000
  C   C382      1.0  0.87142  0.71333  0.43207  1.0000
  H   H647      1.0  0.91661  0.58431  0.29337  1.0000
  H   H648      1.0  0.93037  0.70560  0.42784  1.0000
  C   C383      1.0  0.86702  0.58382  0.35016  1.0000
  H   H649      1.0  0.75654  0.98260  0.44114  1.0000
  C   C384      1.0  0.94412  0.67029  0.45116  1.0000
  H   H650      1.0  0.83379  0.52455  0.23780  1.0000
  H   H651      1.0  0.66714  0.98947  0.28089  1.0000
  C   C385      1.0  0.87550  0.52973  0.29614  1.0000
  H   H652      1.0  0.53470  0.80660  0.25916  1.0000
  H   H653      1.0  0.73274  0.97833  0.40334  1.0000
  C   C386      1.0  0.53960  0.71995  0.36472  1.0000
  H   H654      1.0  0.74561  0.92217  0.48466  1.0000
  C   C387      1.0  0.69897  0.99151  0.34714  1.0000
  C   C388      1.0  0.71384  0.85884  0.45055  1.0000
  H   H655      1.0  0.77677  0.72849  0.38692  1.0000
  C   C389      1.0  0.54710  0.68965  0.36910  1.0000
  C   C390      1.0  0.77522  0.59529  0.48713  1.0000
  H   H656      1.0  0.77496  0.76664  0.39697  1.0000
  H   H657      1.0  0.87536  0.73010  0.45393  1.0000
  H   H658      1.0  0.84941  0.56718  0.37166  1.0000
  H   H659      1.0  0.75756  0.72903  0.42636  1.0000
  H   H660      1.0  0.87688  0.63717  0.29048  1.0000
  H   H661      1.0  0.93657  0.66977  0.25890  1.0000
  H   H662      1.0  0.82842  0.58840  0.25884  1.0000
  H   H663      1.0  0.83532  0.66370  0.45795  1.0000
  C   C391      1.0  0.81950  0.53655  0.24885  1.0000
  C   C392      1.0  0.91521  0.64253  0.25318  1.0000
  H   H664      1.0  0.87421  0.52879  0.32408  1.0000
  H   H665      1.0  0.85309  0.65966  0.41970  1.0000
  H   H666      1.0  0.89517  0.72595  0.41521  1.0000
  H   H667      1.0  0.87564  0.61176  0.35544  1.0000
  C   C393      1.0  0.71995  0.91992  0.48993  1.0000
  H   H668      1.0  0.74083  0.92617  0.42477  1.0000
  H   H669      1.0  0.65596  0.92719  0.41794  1.0000
  C   C394      1.0  0.86928  0.63367  0.47756  1.0000
  H   H670      1.0  0.67602  0.98828  0.36032  1.0000
  C   C395      1.0  0.64215  0.90398  0.43589  1.0000
  C   C396      1.0  0.89085  0.56792  0.28129  1.0000
  H   H671      1.0  0.83345  0.60319  0.43711  1.0000
  H   H672      1.0  0.76545  0.67748  0.49120  1.0000
  H   H673      1.0  0.70931  0.68060  0.44563  1.0000
  H   H674      1.0  0.92791  0.62844  0.24340  1.0000
  C   C397      1.0  0.98282  0.74494  0.28441  1.0000
  H   H675      1.0  0.84922  0.51051  0.28703  1.0000
  C   C398      1.0  0.73453  0.51016  0.27432  1.0000
  C   C399      1.0  0.89235  0.62432  0.28547  1.0000
  H   H676      1.0  0.84714  0.62871  0.49466  1.0000
  H   H677      1.0  0.84993  0.71246  0.41748  1.0000
  H   H678      1.0  0.70496  0.71389  0.46801  1.0000
  C   C400      1.0  0.76811  0.65448  0.49005  1.0000
  H   H679      1.0  0.80046  0.53427  0.22984  1.0000
  H   H680      1.0  0.58123  0.83262  0.48349  1.0000
  H   H681      1.0  0.54370  0.67588  0.34510  1.0000
  H   H682      1.0  0.80384  0.52090  0.27148  1.0000
  N   N30       1.0  0.69662  0.90596  0.46007  1.0000
  C   C401      1.0  0.51085  0.76854  0.38275  1.0000
  C   C402      1.0  0.59246  0.81599  0.48461  1.0000
  H   H683      1.0  0.98771  0.75568  0.25877  1.0000
  H   H684      1.0  0.70117  0.82963  0.44823  1.0000
  H   H685      1.0  0.63251  0.75631  0.48873  1.0000
  H   H686      1.0  0.71239  0.97383  0.44312  1.0000
  H   H687      1.0  0.51059  0.79208  0.37251  1.0000
  H   H688      1.0  0.53790  0.77824  0.39068  1.0000
  C   C403      1.0  0.68475  0.86761  0.45476  1.0000
  H   H689      1.0  0.73003  0.87124  0.42714  1.0000
  H   H690      1.0  0.67088  0.66843  0.47004  1.0000
  H   H691      1.0  0.73076  0.86607  0.47270  1.0000
  H   H692      1.0  0.77786  0.57227  0.48597  1.0000
  C   C404      1.0  0.62133  0.77298  0.48747  1.0000
  H   H693      1.0  0.88716  0.63027  0.49432  1.0000
  H   H694      1.0  0.51401  0.75468  0.33148  1.0000
  H   H695      1.0  0.53059  0.67012  0.38942  1.0000
  H   H696      1.0  0.50364  0.69647  0.31053  1.0000
  H   H697      1.0  0.50549  0.82830  0.13074  1.0000
  H   H698      1.0  0.51995  0.72991  0.42898  1.0000
  C   C405      1.0  0.75827  0.00024  0.31324  1.0000
  H   H699      1.0  0.50876  0.68482  0.43792  1.0000
  H   H700      1.0  0.67128  0.93373  0.47839  1.0000
  H   H701      1.0  0.64659  0.88758  0.48593  1.0000
  H   H702      1.0  0.72673  0.94754  0.49489  1.0000
  Fe  Fe57      1.0  0.60697  0.80315  0.67559  1.0000
  S   S113      1.0  0.66234  0.81525  0.68273  1.0000
  S   S114      1.0  0.57223  0.79124  0.72340  1.0000
  Fe  Fe58      1.0  0.62143  0.82145  0.60001  1.0000
  S   S115      1.0  0.67720  0.83485  0.60163  1.0000
  S   S116      1.0  0.59929  0.82953  0.55193  1.0000
  Fe  Fe59      1.0  0.65606  0.78568  0.63532  1.0000
  S   S117      1.0  0.66902  0.74252  0.62515  1.0000
  Fe  Fe60      1.0  0.67954  0.86370  0.64861  1.0000
  S   S118      1.0  0.72886  0.91716  0.65861  1.0000
  S   S119      1.0  0.59929  0.77011  0.63039  1.0000
  S   S120      1.0  0.62513  0.85373  0.64477  1.0000
  Fe  Fe61      1.0  0.80744  0.62675  0.60149  1.0000
  S   S121      1.0  0.84785  0.68435  0.60775  1.0000
  S   S122      1.0  0.79531  0.59868  0.55207  1.0000
  Fe  Fe62      1.0  0.79411  0.60977  0.67765  1.0000
  S   S123      1.0  0.83509  0.66630  0.68942  1.0000
  S   S124      1.0  0.75531  0.56986  0.71808  1.0000
  Fe  Fe63      1.0  0.81048  0.68199  0.64835  1.0000
  S   S125      1.0  0.79953  0.72608  0.66037  1.0000
  Fe  Fe64      1.0  0.86931  0.66439  0.64789  1.0000
  S   S126      1.0  0.92670  0.67854  0.64260  1.0000
  S   S127      1.0  0.76845  0.62588  0.63847  1.0000
  S   S128      1.0  0.83001  0.60639  0.63967  1.0000
  H   H703      1.0  0.72553  0.65310  0.67036  1.0000
  H   H704      1.0  0.52739  0.77917  0.78141  1.0000
  H   H705      1.0  0.79491  0.53497  0.70449  1.0000
  C   C406      1.0  0.96821  0.71263  0.65645  1.0000
  H   H706      1.0  0.66685  0.82206  0.76047  1.0000
  C   C407      1.0  0.97214  0.73991  0.67681  1.0000
  H   H707      1.0  0.72095  0.61784  0.69593  1.0000
  H   H708      1.0  0.94922  0.74059  0.68487  1.0000
  C   C408      1.0  0.52571  0.76421  0.72978  1.0000
  H   H709      1.0  0.75222  0.63892  0.75047  1.0000
  H   H710      1.0  0.81082  0.51076  0.82958  1.0000
  C   C409      1.0  0.60287  0.80920  0.51569  1.0000
  C   C410      1.0  0.70442  0.89829  0.52348  1.0000
  C   C411      1.0  0.61714  0.78748  0.51708  1.0000
  H   H711      1.0  0.72742  0.68047  0.75980  1.0000
  H   H712      1.0  0.62507  0.78198  0.54098  1.0000
  C   C412      1.0  0.73381  0.95996  0.65807  1.0000
  C   C413      1.0  0.70496  0.96442  0.65720  1.0000
  H   H713      1.0  0.71144  0.83537  0.75316  1.0000
  H   H714      1.0  0.67891  0.94154  0.65459  1.0000
  C   C414      1.0  0.50359  0.74344  0.70444  1.0000
  C   C415      1.0  0.70707  0.74040  0.63323  1.0000
  C   C416      1.0  0.71091  0.71398  0.61796  1.0000
  C   C417      1.0  0.73945  0.70974  0.62523  1.0000
  C   C418      1.0  0.76438  0.73170  0.64822  1.0000
  C   C419      1.0  0.76080  0.75841  0.66312  1.0000
  C   C420      1.0  0.73240  0.76281  0.65566  1.0000
  H   H715      1.0  0.69151  0.69651  0.60055  1.0000
  H   H716      1.0  0.74193  0.68927  0.61331  1.0000
  H   H717      1.0  0.78002  0.77569  0.68076  1.0000
  H   H718      1.0  0.72987  0.78323  0.66760  1.0000
  C   C421      1.0  0.77697  0.64230  0.51909  1.0000
  C   C422      1.0  0.78087  0.61286  0.51754  1.0000
  H   H719      1.0  0.65016  0.84180  0.81284  1.0000
  H   H720      1.0  0.78122  0.65590  0.54251  1.0000
  C   C423      1.0  0.74711  0.52640  0.72764  1.0000
  N   N31       1.0  0.68061  0.89395  0.76144  1.0000
  C   C424      1.0  0.69373  0.92891  0.74243  1.0000
  C   C425      1.0  0.64360  0.86900  0.75063  1.0000
  C   C426      1.0  0.70361  0.87991  0.75064  1.0000
  C   C427      1.0  0.68295  0.90035  0.79879  1.0000
  H   H721      1.0  0.75016  0.95096  0.73178  1.0000
  C   C428      1.0  0.61773  0.88185  0.75640  1.0000
  C   C429      1.0  0.65840  0.86817  0.82265  1.0000
  H   H722      1.0  0.68921  0.92441  0.71504  1.0000
  H   H723      1.0  0.67880  0.94153  0.75031  1.0000
  H   H724      1.0  0.63161  0.84237  0.76313  1.0000
  H   H725      1.0  0.64350  0.86382  0.72323  1.0000
  H   H726      1.0  0.70416  0.87851  0.72266  1.0000
  C   C430      1.0  0.71637  0.50179  0.74620  1.0000
  H   H727      1.0  0.71035  0.91119  0.80697  1.0000
  H   H728      1.0  0.67662  0.92114  0.80432  1.0000
  H   H729      1.0  0.69767  0.58549  0.74006  1.0000
  H   H730      1.0  0.67216  0.87028  0.84637  1.0000
  C   C431      1.0  0.73280  0.95752  0.74613  1.0000
  H   H731      1.0  0.92082  0.69215  0.50449  1.0000
  H   H732      1.0  0.67958  0.89649  0.53143  1.0000
  H   H733      1.0  0.88679  0.72062  0.52896  1.0000
  H   H734      1.0  0.77289  0.66532  0.71238  1.0000
  H   H735      1.0  0.63479  0.86901  0.83031  1.0000
  H   H736      1.0  0.73129  0.89820  0.75748  1.0000
  N   N32       1.0  0.69904  0.64733  0.71815  1.0000
  C   C432      1.0  0.68172  0.66665  0.70465  1.0000
  C   C433      1.0  0.67403  0.61941  0.74376  1.0000
  C   C434      1.0  0.67668  0.69020  0.72954  1.0000
  C   C435      1.0  0.67514  0.60464  0.66860  1.0000
  C   C436      1.0  0.68420  0.59332  0.75835  1.0000
  H   H737      1.0  0.74571  0.69993  0.71922  1.0000
  H   H738      1.0  0.65525  0.64775  0.69512  1.0000
  H   H739      1.0  0.67035  0.63219  0.76599  1.0000
  H   H740      1.0  0.64708  0.60350  0.73396  1.0000
  H   H741      1.0  0.65973  0.67475  0.75170  1.0000
  H   H742      1.0  0.78998  0.98702  0.66213  1.0000
  H   H743      1.0  0.66304  0.61757  0.65481  1.0000
  C   C437      1.0  0.51062  0.76329  0.76157  1.0000
  H   H744      1.0  0.65528  0.58217  0.68494  1.0000
  H   H745      1.0  0.70059  0.60424  0.78078  1.0000
  H   H746      1.0  0.68428  0.59318  0.64918  1.0000
  H   H747      1.0  0.79839  0.52795  0.86497  1.0000
  H   H748      1.0  0.74041  0.96201  0.77282  1.0000
  H   H749      1.0  0.79407  0.53901  0.82234  1.0000
  H   H750      1.0  0.70207  0.71261  0.73781  1.0000
  H   H751      1.0  0.61934  0.89218  0.78190  1.0000
  H   H752      1.0  0.59048  0.85921  0.75364  1.0000
  C   C438      1.0  0.76143  0.66485  0.73750  1.0000
  C   C439      1.0  0.73277  0.67425  0.73417  1.0000
  H   H753      1.0  0.65996  0.56794  0.76612  1.0000
  C   C440      1.0  0.79149  0.51732  0.83937  1.0000
  H   H754      1.0  0.62198  0.90238  0.73700  1.0000
  C   C441      1.0  0.69409  0.84328  0.76549  1.0000
  C   C442      1.0  0.70968  0.99839  0.66103  1.0000
  C   C443      1.0  0.77111  0.51638  0.71863  1.0000
  H   H755      1.0  0.72328  0.91181  0.54380  1.0000
  H   H756      1.0  0.69917  0.84438  0.79282  1.0000
  H   H757      1.0  0.99562  0.69120  0.63063  1.0000
  H   H758      1.0  0.78325  0.68547  0.75214  1.0000
  H   H759      1.0  0.69710  0.68426  0.68267  1.0000
  H   H760      1.0  0.66343  0.70236  0.71631  1.0000
  H   H761      1.0  0.86965  0.67365  0.53658  1.0000
  C   C444      1.0  0.70699  0.63153  0.68851  1.0000
  C   C445      1.0  0.76748  0.99011  0.66136  1.0000
  C   C446      1.0  0.87573  0.69459  0.51688  1.0000
  H   H762      1.0  0.70005  0.87115  0.52240  1.0000
  H   H763      1.0  0.98270  0.78494  0.55728  1.0000
  H   H764      1.0  0.51469  0.74374  0.67990  1.0000
  H   H765      1.0  0.69758  0.50921  0.75325  1.0000
  H   H766      1.0  0.85079  0.68934  0.50628  1.0000
  C   C447      1.0  0.99839  0.71223  0.64631  1.0000
  H   H767      1.0  0.73777  0.98313  0.73488  1.0000
  H   H768      1.0  0.98607  0.79894  0.60024  1.0000
  C   C448      1.0  0.00132  0.80093  0.57698  1.0000
