data_image0
_chemical_formula_structural       H2FeS2H5FeS2FeS2FeS2FeSFeS3CHC2H2CH2C5H4CHC3H2NH3SC7H4CH6CH8CH2CH2SH2C3HSC2HNC8H18SHNCH2CHCHCHC2H3CHC2HCHCH7SCSFeC2FeH5CHCFeH3C2HFeS2FeS2FeS2FeSFeS3FeHSH3C3H3CSH4C2H2SH2C3NH2C2H2C6H4NHNC8H22C4H7CH9CH4C2H3CH2NC8H8FeHCH3C2H4C2H2CH2CHCHCH2C2HSC3HFeS2FeS2FeCFeS3FeS2FeSCFeHFeSHSC6H4CNH3C2HC2HCHC2H2CHC4HCHCHSH3NH4CH5CH6NHC3H2C2H6CH3NH2C2HC2H2C2HCH4C2HSHNH4SHCHCHC2HCH3C2H4CH5CHCH2C3HFeS2FeSHFeCFeS3FeS2FeS2FeCFeS3CHCH3CHCSHC2H3C6H5CHCH2CHC2HCSHC2NHCHCH4C2H4CSH2CH3CH3NC8H20C2H3CHCH3C2HC2H2C2H2CH2FeS2H4CH2SFeHSFeS2FeS2FeSFeS3HCHC2NC2H2C5H3CH7CH2CH2FeH2C7H3CNC6H7SHCH5NC4FeCH9CH4CH3CH3CH3CHCH2CH2CH4CSH3SFeSFeCHSCHC2HCHCH2S2CH2CHCHC3SFeS2HCH2FeHSFeS2FeS2FeSFeS3CHC2HCHCHC3H3C3H3CH7CHC2H2C6H4NC8H14CH5NC4HC3H20CSHNH2CHCH7CH5NCH2CHCHCHC2HC3H5CHCHC2H2NH3CHCH2CSH2CH4CH2FeS2FeHSFeS2FeS2FeSFeS3H4C2H3CHCH2NHSCHCH3C2H2C2H2C6H4CH4C2NH2FeCH3CH5C3H4CH2CH3CHCH2CH2C2H3CHCHC3H3C2H2C2H9CHNC6HCH6NH2C2H3C2H2CHCH3CH3C2H4NHC3H7CH2CHCH4C2H7NCFeS2FeS2FeS2FeSFeS3H2C2H2FeHSH3FeH4C2H9C2SH3CHC2HC8H6CH2C4H3CFeCHSH3CH2SCFeCH2CNCHCH3CHC2HC3HCNH5CHCH7C2HCH2C2HSH4CH2SHSHSCH3SHC3HSC2H3C2NHFeS2FeS2FeHFeS3FeS2FeSHFeSFeS3C6H4C3H3CH2C4HCHCH2CHCH5CH2CH3CH5CH5CHNH2NHC2HC2HCH2C4H6CHCSCHCHCH2CNC8H18C2SCH7SH2FeSHFeS2FeSFeS3FeSHFeS2FeSFeHS2C2HSH4C2HC3H2C6H5C2H8C2H2CH3C3H5CHSH7CHCNHCHC2H6C2H12C3HCH4C2H2NCHSC3HCHNC2HC2HCH2CH2C2H2CH3CH7CH2CFeSCFeS2FeS2FeS2FeSFeS3HC2H2C4H4C2H3CHC6H6CH2NCHCFeH2FeHC2HCHC2H4C2H9CH3C3NH3CNC3H2CH6SCH7NHC7H4CNCSH5FeH9CHCH4CH2SH2C2H3SHC3H7CH3CH3C2HCHFeSFeSH2CH3NCH2CHFeS2FeS2FeS2FeSFeS3CHC2H2CHCHC3H4NH3C6H5C2H2CHC2NHC2HSH3CH3CNH2CH2C2H5C3H4C3H2CNCHCH2CH6CHSH2CH4CH4CHCHCH3CH2CH3C2H4CHC3H5C2HSH2CHC4H5C2H4NH4CH5C3HSHCH2
_chemical_formula_sum              "H1152 Fe96 S192 C672 N48"
_cell_length_a       57.765
_cell_length_b       57.4643
_cell_length_c       37.2402
_cell_angle_alpha    90.0434
_cell_angle_beta     89.6455
_cell_angle_gamma    87.6412

_space_group_name_H-M_alt    "P 1"
_space_group_IT_number       1

loop_
  _space_group_symop_operation_xyz
  'x, y, z'

loop_
  _atom_site_type_symbol
  _atom_site_label
  _atom_site_symmetry_multiplicity
  _atom_site_fract_x
  _atom_site_fract_y
  _atom_site_fract_z
  _atom_site_occupancy
  H   H1        1.0  0.19185  0.07578  0.05909  1.0000
  H   H2        1.0  0.24722  0.14014  0.32731  1.0000
  Fe  Fe1       1.0  0.27411  0.10983  0.03528  1.0000
  S   S1        1.0  0.29920  0.12111  0.08007  1.0000
  S   S2        1.0  0.24101  0.09037  0.03908  1.0000
  H   H3        1.0  0.27920  0.09683  0.39079  1.0000
  H   H4        1.0  0.26503  0.15321  0.38852  1.0000
  H   H5        1.0  0.44604  0.21819  0.41439  1.0000
  H   H6        1.0  0.28594  0.20686  0.11895  1.0000
  H   H7        1.0  0.25998  0.16829  0.33240  1.0000
  Fe  Fe2       1.0  0.09454  0.28060  0.03349  1.0000
  S   S3        1.0  0.19119  0.13412  0.01598  1.0000
  S   S4        1.0  0.07204  0.24953  0.02508  1.0000
  Fe  Fe3       1.0  0.32929  0.17733  0.27891  1.0000
  S   S5        1.0  0.35340  0.20472  0.26076  1.0000
  S   S6        1.0  0.30281  0.15923  0.24309  1.0000
  Fe  Fe4       1.0  0.34153  0.18584  0.36028  1.0000
  S   S7        1.0  0.36580  0.21410  0.34636  1.0000
  S   S8        1.0  0.33904  0.17005  0.41684  1.0000
  Fe  Fe5       1.0  0.33812  0.22591  0.30686  1.0000
  S   S9        1.0  0.32648  0.26359  0.29686  1.0000
  Fe  Fe6       1.0  0.37882  0.19035  0.30190  1.0000
  S   S10       1.0  0.41664  0.17775  0.29375  1.0000
  S   S11       1.0  0.31304  0.19921  0.32373  1.0000
  S   S12       1.0  0.35550  0.16130  0.31720  1.0000
  C   C1        1.0  0.13775  0.30224  0.14695  1.0000
  H   H8        1.0  0.43650  0.18935  0.41890  1.0000
  C   C2        1.0  0.28054  0.25839  0.31580  1.0000
  C   C3        1.0  0.29704  0.27307  0.30176  1.0000
  H   H9        1.0  0.34277  0.09978  0.34461  1.0000
  H   H10       1.0  0.31626  0.08535  0.34167  1.0000
  C   C4        1.0  0.46353  0.22924  0.29555  1.0000
  H   H11       1.0  0.28577  0.24125  0.32516  1.0000
  H   H12       1.0  0.29879  0.15249  0.32192  1.0000
  C   C5        1.0  0.16486  0.01134  0.03819  1.0000
  C   C6        1.0  0.46386  0.18075  0.29612  1.0000
  C   C7        1.0  0.44248  0.19337  0.29559  1.0000
  C   C8        1.0  0.44241  0.21772  0.29567  1.0000
  C   C9        1.0  0.15202  0.06153  0.02088  1.0000
  H   H13       1.0  0.17540  0.30466  0.02886  1.0000
  H   H14       1.0  0.42609  0.22767  0.29514  1.0000
  H   H15       1.0  0.44925  0.17669  0.18103  1.0000
  H   H16       1.0  0.26575  0.07422  0.34566  1.0000
  C   C10       1.0  0.24985  0.28821  0.30593  1.0000
  H   H17       1.0  0.98489  0.23571  0.99349  1.0000
  C   C11       1.0  0.25709  0.26588  0.31766  1.0000
  C   C12       1.0  0.33146  0.18261  0.45938  1.0000
  C   C13       1.0  0.32232  0.20543  0.46300  1.0000
  H   H18       1.0  0.32494  0.13529  0.36671  1.0000
  H   H19       1.0  0.31981  0.21617  0.43937  1.0000
  N   N1        1.0  0.17692  0.05259  0.02024  1.0000
  H   H20       1.0  0.16913  0.17553  0.04703  1.0000
  H   H21       1.0  0.20880  0.05792  0.99133  1.0000
  H   H22       1.0  0.30520  0.13560  0.43648  1.0000
  S   S13       1.0  0.11490  0.28916  0.08527  1.0000
  C   C14       1.0  0.11773  0.30583  0.12580  1.0000
  C   C15       1.0  0.29936  0.13258  0.12503  1.0000
  C   C16       1.0  0.27975  0.13333  0.14746  1.0000
  C   C17       1.0  0.28119  0.14153  0.18326  1.0000
  C   C18       1.0  0.30210  0.14949  0.19724  1.0000
  C   C19       1.0  0.32156  0.14924  0.17462  1.0000
  C   C20       1.0  0.32021  0.14071  0.13901  1.0000
  H   H23       1.0  0.26359  0.12714  0.13739  1.0000
  H   H24       1.0  0.26595  0.14158  0.20027  1.0000
  H   H25       1.0  0.33781  0.15521  0.18468  1.0000
  H   H26       1.0  0.33553  0.14023  0.12213  1.0000
  C   C21       1.0  0.28988  0.29557  0.29048  1.0000
  H   H27       1.0  0.22299  0.04343  0.04338  1.0000
  H   H28       1.0  0.46848  0.17041  0.14435  1.0000
  H   H29       1.0  0.23330  0.25615  0.17805  1.0000
  H   H30       1.0  0.32280  0.10920  0.31118  1.0000
  H   H31       1.0  0.20639  0.02407  0.07034  1.0000
  H   H32       1.0  0.13842  0.20367  0.02532  1.0000
  C   C22       1.0  0.17757  0.02699  0.01138  1.0000
  H   H33       1.0  0.25982  0.15438  0.28963  1.0000
  H   H34       1.0  0.25149  0.09759  0.32281  1.0000
  H   H35       1.0  0.17435  0.99415  0.04007  1.0000
  H   H36       1.0  0.14271  0.05603  0.99643  1.0000
  H   H37       1.0  0.21783  0.04956  0.08980  1.0000
  H   H38       1.0  0.15429  0.09754  0.00049  1.0000
  H   H39       1.0  0.33224  0.24245  0.21718  1.0000
  H   H40       1.0  0.17512  0.05428  0.07877  1.0000
  C   C23       1.0  0.20993  0.04259  0.06510  1.0000
  H   H41       1.0  0.46804  0.19096  0.37366  1.0000
  H   H42       1.0  0.28087  0.15405  0.44746  1.0000
  C   C24       1.0  0.45145  0.20050  0.42384  1.0000
  H   H43       1.0  0.25435  0.99938  0.04662  1.0000
  H   H44       1.0  0.45447  0.20056  0.45319  1.0000
  S   S14       1.0  0.28744  0.08694  0.98915  1.0000
  H   H45       1.0  0.38628  0.21458  0.46868  1.0000
  H   H46       1.0  0.16402  0.01840  0.06582  1.0000
  C   C25       1.0  0.18757  0.05711  0.05643  1.0000
  C   C26       1.0  0.26164  0.15106  0.31890  1.0000
  C   C27       1.0  0.46717  0.17037  0.17404  1.0000
  H   H47       1.0  0.46327  0.24808  0.29510  1.0000
  S   S15       1.0  0.21982  0.29551  0.30564  1.0000
  C   C28       1.0  0.32397  0.10261  0.33910  1.0000
  C   C29       1.0  0.14833  0.08819  0.02469  1.0000
  H   H48       1.0  0.23116  0.27483  0.21641  1.0000
  N   N2        1.0  0.27378  0.22992  0.20493  1.0000
  C   C30       1.0  0.26293  0.25331  0.21533  1.0000
  C   C31       1.0  0.29801  0.22810  0.21983  1.0000
  C   C32       1.0  0.26020  0.21026  0.21995  1.0000
  C   C33       1.0  0.27403  0.22804  0.16453  1.0000
  C   C34       1.0  0.23688  0.25708  0.20720  1.0000
  C   C35       1.0  0.31502  0.24572  0.20469  1.0000
  C   C36       1.0  0.25587  0.21080  0.26087  1.0000
  C   C37       1.0  0.28736  0.20649  0.14869  1.0000
  H   H49       1.0  0.26539  0.25683  0.24433  1.0000
  H   H50       1.0  0.27173  0.26763  0.20137  1.0000
  H   H51       1.0  0.30588  0.21023  0.21606  1.0000
  H   H52       1.0  0.29776  0.23087  0.24940  1.0000
  H   H53       1.0  0.24313  0.20928  0.20646  1.0000
  H   H54       1.0  0.26926  0.19320  0.21432  1.0000
  H   H55       1.0  0.25607  0.22747  0.15405  1.0000
  H   H56       1.0  0.28135  0.24378  0.15215  1.0000
  H   H57       1.0  0.10085  0.29309  0.30972  1.0000
  H   H58       1.0  0.22604  0.24477  0.22194  1.0000
  H   H59       1.0  0.28202  0.09100  0.31541  1.0000
  H   H60       1.0  0.15708  0.09505  0.04868  1.0000
  H   H61       1.0  0.31760  0.24403  0.17531  1.0000
  H   H62       1.0  0.30964  0.26390  0.21179  1.0000
  H   H63       1.0  0.24505  0.19598  0.26823  1.0000
  H   H64       1.0  0.24635  0.22689  0.26991  1.0000
  H   H65       1.0  0.27224  0.20850  0.27600  1.0000
  H   H66       1.0  0.30610  0.20621  0.15500  1.0000
  S   S16       1.0  0.07253  0.30404  0.99757  1.0000
  H   H67       1.0  0.28005  0.18995  0.15769  1.0000
  N   N3        1.0  0.28865  0.12796  0.36237  1.0000
  C   C38       1.0  0.28336  0.14661  0.39026  1.0000
  H   H68       1.0  0.12818  0.29315  0.35385  1.0000
  H   H69       1.0  0.24442  0.25424  0.32810  1.0000
  C   C39       1.0  0.27270  0.10815  0.36843  1.0000
  H   H70       1.0  0.25531  0.11519  0.37726  1.0000
  C   C40       1.0  0.28561  0.13917  0.32599  1.0000
  H   H71       1.0  0.46408  0.16191  0.29618  1.0000
  C   C41       1.0  0.26637  0.30317  0.29264  1.0000
  H   H72       1.0  0.29404  0.16205  0.38542  1.0000
  C   C42       1.0  0.16309  0.17434  0.01968  1.0000
  C   C43       1.0  0.26811  0.09224  0.33586  1.0000
  H   H73       1.0  0.28896  0.12674  0.30367  1.0000
  H   H74       1.0  0.27636  0.12417  0.43719  1.0000
  H   H75       1.0  0.19569  0.01990  0.00740  1.0000
  C   C44       1.0  0.28673  0.13928  0.42987  1.0000
  H   H76       1.0  0.31650  0.11148  0.39343  1.0000
  C   C45       1.0  0.31369  0.12001  0.36695  1.0000
  C   C46       1.0  0.25095  0.98788  0.02443  1.0000
  H   H77       1.0  0.12953  0.09263  0.02774  1.0000
  C   C47       1.0  0.47262  0.19039  0.40273  1.0000
  H   H78       1.0  0.14688  0.00860  0.02913  1.0000
  C   C48       1.0  0.14551  0.19029  0.00748  1.0000
  H   H79       1.0  0.14248  0.05362  0.04357  1.0000
  H   H80       1.0  0.30254  0.30709  0.27970  1.0000
  H   H81       1.0  0.46904  0.15229  0.18429  1.0000
  H   H82       1.0  0.15072  0.28914  0.13882  1.0000
  H   H83       1.0  0.09298  0.29838  0.24640  1.0000
  H   H84       1.0  0.19214  0.08373  0.99905  1.0000
  H   H85       1.0  0.10054  0.28871  0.37567  1.0000
  S   S17       1.0  0.25901  0.13722  0.99796  1.0000
  C   C49       1.0  0.17246  0.15652  0.99722  1.0000
  S   S18       1.0  0.11863  0.27022  0.98771  1.0000
  Fe  Fe7       1.0  0.22648  0.11700  0.99930  1.0000
  C   C50       1.0  0.11501  0.30058  0.37297  1.0000
  C   C51       1.0  0.24755  0.99742  0.98999  1.0000
  Fe  Fe8       1.0  0.25323  0.06883  0.99081  1.0000
  H   H86       1.0  0.06808  0.28792  0.33664  1.0000
  H   H87       1.0  0.47394  0.17160  0.40933  1.0000
  H   H88       1.0  0.38431  0.18555  0.48385  1.0000
  H   H89       1.0  0.04052  0.30114  0.34403  1.0000
  H   H90       1.0  0.06132  0.30067  0.38006  1.0000
  C   C52       1.0  0.05913  0.30272  0.35060  1.0000
  H   H91       1.0  0.06725  0.30543  0.27165  1.0000
  C   C53       1.0  0.19066  0.06501  0.99213  1.0000
  Fe  Fe9       1.0  0.05069  0.27260  0.98669  1.0000
  H   H92       1.0  0.12365  0.30128  0.39953  1.0000
  H   H93       1.0  0.13450  0.31057  0.02255  1.0000
  H   H94       1.0  0.37214  0.15824  0.57247  1.0000
  C   C54       1.0  0.24963  0.29263  0.55732  1.0000
  C   C55       1.0  0.44302  0.22025  0.57110  1.0000
  H   H95       1.0  0.17802  0.27209  0.89720  1.0000
  Fe  Fe10      1.0  0.27039  0.11364  0.95195  1.0000
  S   S19       1.0  0.29260  0.12897  0.90618  1.0000
  S   S20       1.0  0.23678  0.09475  0.95109  1.0000
  Fe  Fe11      1.0  0.31709  0.18113  0.70441  1.0000
  S   S21       1.0  0.34638  0.20091  0.72707  1.0000
  S   S22       1.0  0.29258  0.16007  0.73986  1.0000
  Fe  Fe12      1.0  0.32299  0.20358  0.62813  1.0000
  S   S23       1.0  0.35185  0.22530  0.64778  1.0000
  S   S24       1.0  0.31080  0.21281  0.57099  1.0000
  Fe  Fe13      1.0  0.36548  0.19275  0.67523  1.0000
  S   S25       1.0  0.40249  0.17795  0.66550  1.0000
  Fe  Fe14      1.0  0.32993  0.23138  0.69714  1.0000
  S   S26       1.0  0.32580  0.26638  0.72464  1.0000
  S   S27       1.0  0.33714  0.17049  0.65383  1.0000
  S   S28       1.0  0.30013  0.21222  0.67620  1.0000
  Fe  Fe15      1.0  0.09546  0.29165  0.95115  1.0000
  H   H96       1.0  0.39134  0.23744  0.59651  1.0000
  S   S29       1.0  0.07296  0.26171  0.93837  1.0000
  H   H97       1.0  0.39275  0.16365  0.53777  1.0000
  H   H98       1.0  0.21709  0.30819  0.60271  1.0000
  H   H99       1.0  0.09719  0.21221  0.86035  1.0000
  C   C56       1.0  0.31922  0.20071  0.52848  1.0000
  C   C57       1.0  0.32849  0.17793  0.52485  1.0000
  C   C58       1.0  0.38239  0.19418  0.57160  1.0000
  H   H100      1.0  0.33067  0.16710  0.54843  1.0000
  H   H101      1.0  0.29901  0.28885  0.63202  1.0000
  H   H102      1.0  0.30156  0.25884  0.62014  1.0000
  C   C59       1.0  0.42233  0.20474  0.57856  1.0000
  S   S30       1.0  0.01014  0.27944  0.98397  1.0000
  H   H103      1.0  0.37137  0.24642  0.52078  1.0000
  H   H104      1.0  0.19919  0.27377  0.62609  1.0000
  H   H105      1.0  0.18370  0.04596  0.94203  1.0000
  H   H106      1.0  0.10709  0.29543  0.78534  1.0000
  C   C60       1.0  0.30374  0.28822  0.71784  1.0000
  C   C61       1.0  0.28070  0.28347  0.70942  1.0000
  H   H107      1.0  0.36514  0.19803  0.55999  1.0000
  H   H108      1.0  0.26639  0.29995  0.50642  1.0000
  S   S31       1.0  0.11275  0.20633  0.95680  1.0000
  H   H109      1.0  0.27597  0.26565  0.70554  1.0000
  H   H110      1.0  0.41750  0.19206  0.51385  1.0000
  C   C62       1.0  0.43082  0.21113  0.69463  1.0000
  C   C63       1.0  0.42941  0.19058  0.67483  1.0000
  C   C64       1.0  0.44998  0.17973  0.66131  1.0000
  N   N4        1.0  0.40038  0.21036  0.55788  1.0000
  H   H111      1.0  0.41517  0.21973  0.70510  1.0000
  H   H112      1.0  0.44906  0.16385  0.64587  1.0000
  C   C65       1.0  0.26366  0.30193  0.70719  1.0000
  C   C66       1.0  0.16381  0.15484  0.96228  1.0000
  H   H113      1.0  0.16199  0.28666  0.84643  1.0000
  H   H114      1.0  0.16436  0.27999  0.80006  1.0000
  C   C67       1.0  0.29216  0.13706  0.85965  1.0000
  C   C68       1.0  0.31256  0.14504  0.84360  1.0000
  C   C69       1.0  0.31311  0.15208  0.80716  1.0000
  C   C70       1.0  0.29319  0.15119  0.78602  1.0000
  C   C71       1.0  0.27283  0.14309  0.80199  1.0000
  C   C72       1.0  0.27225  0.13619  0.83848  1.0000
  H   H115      1.0  0.32812  0.14574  0.85953  1.0000
  H   H116      1.0  0.32897  0.15806  0.79543  1.0000
  H   H117      1.0  0.25734  0.14210  0.78598  1.0000
  H   H118      1.0  0.25645  0.13004  0.85017  1.0000
  N   N5        1.0  0.25266  0.29467  0.59736  1.0000
  H   H119      1.0  0.18490  0.26660  0.82968  1.0000
  N   N6        1.0  0.28108  0.22286  0.81706  1.0000
  C   C73       1.0  0.28681  0.20733  0.84879  1.0000
  C   C74       1.0  0.30230  0.22283  0.79319  1.0000
  C   C75       1.0  0.26106  0.21262  0.79725  1.0000
  C   C76       1.0  0.27457  0.24684  0.83138  1.0000
  C   C77       1.0  0.26644  0.20198  0.87416  1.0000
  C   C78       1.0  0.32446  0.23181  0.81047  1.0000
  C   C79       1.0  0.25922  0.21733  0.75653  1.0000
  C   C80       1.0  0.27161  0.26655  0.80360  1.0000
  H   H120      1.0  0.29435  0.19029  0.83948  1.0000
  H   H121      1.0  0.30027  0.21489  0.86602  1.0000
  H   H122      1.0  0.29925  0.23347  0.76869  1.0000
  H   H123      1.0  0.30650  0.20485  0.78315  1.0000
  H   H124      1.0  0.26195  0.19323  0.79921  1.0000
  H   H125      1.0  0.24420  0.21828  0.80976  1.0000
  H   H126      1.0  0.25802  0.24670  0.84676  1.0000
  H   H127      1.0  0.28775  0.25245  0.85092  1.0000
  H   H128      1.0  0.25267  0.19253  0.86039  1.0000
  H   H129      1.0  0.27305  0.19021  0.89584  1.0000
  H   H130      1.0  0.25896  0.21788  0.88735  1.0000
  H   H131      1.0  0.32185  0.24966  0.82141  1.0000
  H   H132      1.0  0.33143  0.21976  0.83137  1.0000
  H   H133      1.0  0.33813  0.23280  0.78949  1.0000
  H   H134      1.0  0.27281  0.20700  0.74176  1.0000
  H   H135      1.0  0.26051  0.23579  0.74907  1.0000
  H   H136      1.0  0.24233  0.21140  0.74671  1.0000
  H   H137      1.0  0.28749  0.26879  0.78733  1.0000
  H   H138      1.0  0.26817  0.28330  0.81797  1.0000
  H   H139      1.0  0.25655  0.26415  0.78601  1.0000
  H   H140      1.0  0.26223  0.27071  0.64038  1.0000
  H   H141      1.0  0.16981  0.21780  0.92707  1.0000
  C   C81       1.0  0.37007  0.24477  0.55036  1.0000
  C   C82       1.0  0.18152  0.06379  0.95331  1.0000
  C   C83       1.0  0.11028  0.30432  0.84154  1.0000
  C   C84       1.0  0.31609  0.21432  0.49729  1.0000
  H   H142      1.0  0.16983  0.25928  0.93969  1.0000
  H   H143      1.0  0.41883  0.20586  0.60791  1.0000
  H   H144      1.0  0.36636  0.26265  0.56089  1.0000
  H   H145      1.0  0.19192  0.07511  0.93591  1.0000
  H   H146      1.0  0.26312  0.25784  0.59704  1.0000
  H   H147      1.0  0.21173  0.26745  0.58326  1.0000
  H   H148      1.0  0.13697  0.24324  0.91960  1.0000
  C   C85       1.0  0.38787  0.16793  0.56585  1.0000
  H   H149      1.0  0.45354  0.16847  0.75594  1.0000
  H   H150      1.0  0.44741  0.22122  0.54216  1.0000
  H   H151      1.0  0.19657  0.20722  0.90726  1.0000
  H   H152      1.0  0.24242  0.27555  0.55049  1.0000
  H   H153      1.0  0.17048  0.19343  0.89636  1.0000
  H   H154      1.0  0.40156  0.16128  0.58442  1.0000
  H   H155      1.0  0.15571  0.28512  0.92403  1.0000
  H   H156      1.0  0.10200  0.24073  0.87657  1.0000
  H   H157      1.0  0.17023  0.14088  0.94495  1.0000
  C   C86       1.0  0.29352  0.27591  0.61193  1.0000
  H   H158      1.0  0.42884  0.18655  0.57341  1.0000
  H   H159      1.0  0.10530  0.23396  0.82912  1.0000
  H   H160      1.0  0.13862  0.16811  0.92398  1.0000
  H   H161      1.0  0.16973  0.30154  0.98211  1.0000
  C   C87       1.0  0.40543  0.20744  0.51827  1.0000
  C   C88       1.0  0.45259  0.22041  0.70148  1.0000
  H   H162      1.0  0.40616  0.24744  0.55780  1.0000
  H   H163      1.0  0.44006  0.23798  0.58247  1.0000
  H   H164      1.0  0.45851  0.21262  0.58506  1.0000
  C   C89       1.0  0.39292  0.23519  0.56681  1.0000
  H   H165      1.0  0.30073  0.28005  0.58527  1.0000
  H   H166      1.0  0.37966  0.19673  0.60093  1.0000
  N   N7        1.0  0.15086  0.23869  0.86592  1.0000
  C   C90       1.0  0.13379  0.21954  0.86297  1.0000
  C   C91       1.0  0.17463  0.22707  0.86963  1.0000
  C   C92       1.0  0.14977  0.25227  0.83127  1.0000
  C   C93       1.0  0.14405  0.25402  0.89757  1.0000
  C   C94       1.0  0.10824  0.22745  0.85682  1.0000
  C   C95       1.0  0.17781  0.21058  0.90209  1.0000
  C   C96       1.0  0.16645  0.27234  0.82734  1.0000
  C   C97       1.0  0.16336  0.26807  0.91493  1.0000
  H   H167      1.0  0.13889  0.20720  0.84091  1.0000
  H   H168      1.0  0.13373  0.20886  0.88783  1.0000
  H   H169      1.0  0.18840  0.23981  0.87136  1.0000
  H   H170      1.0  0.17913  0.21667  0.84508  1.0000
  H   H171      1.0  0.15290  0.24040  0.80789  1.0000
  H   H172      1.0  0.13222  0.26044  0.82731  1.0000
  H   H173      1.0  0.12967  0.26659  0.89017  1.0000
  H   H174      1.0  0.36739  0.20876  0.50492  1.0000
  Fe  Fe16      1.0  0.09552  0.24078  0.97745  1.0000
  H   H175      1.0  0.22993  0.29876  0.64364  1.0000
  C   C98       1.0  0.26693  0.27410  0.61185  1.0000
  H   H176      1.0  0.24048  0.98848  0.93505  1.0000
  H   H177      1.0  0.45349  0.23611  0.71741  1.0000
  H   H178      1.0  0.09753  0.29228  0.85043  1.0000
  C   C99       1.0  0.22890  0.29452  0.61454  1.0000
  C   C100      1.0  0.21598  0.27159  0.61147  1.0000
  H   H179      1.0  0.30880  0.23191  0.49965  1.0000
  H   H180      1.0  0.16330  0.07031  0.95089  1.0000
  H   H181      1.0  0.22559  0.25662  0.62397  1.0000
  H   H182      1.0  0.35497  0.23461  0.55806  1.0000
  C   C101      1.0  0.24324  0.98168  0.96183  1.0000
  C   C102      1.0  0.14574  0.17030  0.95050  1.0000
  H   H183      1.0  0.46439  0.17110  0.80053  1.0000
  H   H184      1.0  0.41465  0.22271  0.50787  1.0000
  C   C103      1.0  0.27154  0.29408  0.53376  1.0000
  H   H185      1.0  0.24583  0.29832  0.70171  1.0000
  H   H186      1.0  0.34136  0.15123  0.48814  1.0000
  C   C104      1.0  0.97971  0.27239  0.98353  1.0000
  H   H187      1.0  0.28365  0.30716  0.54301  1.0000
  C   C105      1.0  0.13639  0.18813  0.97293  1.0000
  H   H188      1.0  0.46708  0.19448  0.76828  1.0000
  C   C106      1.0  0.47317  0.20952  0.68818  1.0000
  H   H189      1.0  0.28077  0.27677  0.53154  1.0000
  H   H190      1.0  0.16937  0.02397  0.98494  1.0000
  C   C107      1.0  0.11572  0.30620  0.80450  1.0000
  C   C108      1.0  0.33444  0.16894  0.49054  1.0000
  H   H191      1.0  0.23619  0.30539  0.54707  1.0000
  S   S32       1.0  0.24854  0.02852  0.98076  1.0000
  C   C109      1.0  0.38450  0.20388  0.49332  1.0000
  C   C110      1.0  0.47173  0.18923  0.66767  1.0000
  C   C111      1.0  0.46789  0.17529  0.77212  1.0000
  H   H192      1.0  0.15237  0.55119  0.23814  1.0000
  Fe  Fe17      1.0  0.16005  0.60777  0.27633  1.0000
  S   S33       1.0  0.18846  0.58191  0.25969  1.0000
  S   S34       1.0  0.13189  0.62501  0.24013  1.0000
  Fe  Fe18      1.0  0.17355  0.60305  0.35771  1.0000
  S   S35       1.0  0.20252  0.57698  0.34556  1.0000
  S   S36       1.0  0.16787  0.61958  0.41333  1.0000
  Fe  Fe19      1.0  0.21058  0.60092  0.29938  1.0000
  C   C112      1.0  0.10113  0.35729  0.00818  1.0000
  Fe  Fe20      1.0  0.17784  0.56039  0.30749  1.0000
  S   S37       1.0  0.16560  0.52283  0.30676  1.0000
  S   S38       1.0  0.18282  0.62781  0.31328  1.0000
  S   S39       1.0  0.14814  0.58547  0.32229  1.0000
  Fe  Fe21      1.0  0.16614  0.35695  0.35500  1.0000
  S   S40       1.0  0.20425  0.35985  0.34602  1.0000
  S   S41       1.0  0.14857  0.36254  0.41034  1.0000
  Fe  Fe22      1.0  0.15705  0.35227  0.27168  1.0000
  S   S42       1.0  0.19484  0.35594  0.25867  1.0000
  C   C113      1.0  0.14661  0.62593  0.16826  1.0000
  Fe  Fe23      1.0  0.20144  0.33129  0.30509  1.0000
  H   H193      1.0  0.15657  0.62564  0.11221  1.0000
  Fe  Fe24      1.0  0.19387  0.38449  0.30099  1.0000
  S   S43       1.0  0.21147  0.41952  0.29890  1.0000
  H   H194      1.0  0.19165  0.34005  0.43840  1.0000
  S   S44       1.0  0.15581  0.38243  0.31117  1.0000
  C   C114      1.0  0.17901  0.49443  0.30320  1.0000
  C   C115      1.0  0.16477  0.47518  0.30089  1.0000
  C   C116      1.0  0.17438  0.45224  0.29857  1.0000
  C   C117      1.0  0.19843  0.44820  0.29892  1.0000
  C   C118      1.0  0.21268  0.46746  0.30113  1.0000
  C   C119      1.0  0.20306  0.49045  0.30317  1.0000
  H   H195      1.0  0.14615  0.47802  0.30085  1.0000
  H   H196      1.0  0.16318  0.43768  0.29656  1.0000
  H   H197      1.0  0.23131  0.46458  0.30144  1.0000
  H   H198      1.0  0.21427  0.50503  0.30492  1.0000
  C   C120      1.0  0.15456  0.34165  0.06713  1.0000
  N   N8        1.0  0.09231  0.32845  0.32880  1.0000
  H   H199      1.0  0.13016  0.37501  0.48030  1.0000
  H   H200      1.0  0.17053  0.51508  0.20779  1.0000
  H   H201      1.0  0.16548  0.42507  0.36024  1.0000
  C   C121      1.0  0.11696  0.35147  0.04033  1.0000
  C   C122      1.0  0.25782  0.63949  0.29495  1.0000
  H   H202      1.0  0.16272  0.61764  0.17719  1.0000
  C   C123      1.0  0.15988  0.35800  0.45467  1.0000
  C   C124      1.0  0.15294  0.36704  0.01392  1.0000
  H   H203      1.0  0.13910  0.52468  0.24508  1.0000
  C   C125      1.0  0.18477  0.47227  0.40474  1.0000
  H   H204      1.0  0.14478  0.38365  0.02424  1.0000
  C   C126      1.0  0.16919  0.60702  0.45710  1.0000
  C   C127      1.0  0.17095  0.58294  0.46262  1.0000
  H   H205      1.0  0.08480  0.50105  0.21287  1.0000
  H   H206      1.0  0.17150  0.57131  0.43975  1.0000
  C   C128      1.0  0.12921  0.63178  0.19340  1.0000
  H   H207      1.0  0.09549  0.38950  0.32652  1.0000
  C   C129      1.0  0.10243  0.50788  0.21536  1.0000
  C   C130      1.0  0.14169  0.53816  0.22453  1.0000
  C   C131      1.0  0.10193  0.54894  0.27703  1.0000
  C   C132      1.0  0.12455  0.56687  0.18352  1.0000
  H   H208      1.0  0.07327  0.37475  0.34953  1.0000
  C   C133      1.0  0.10805  0.56289  0.24328  1.0000
  H   H209      1.0  0.18643  0.44846  0.47154  1.0000
  C   C134      1.0  0.10370  0.58129  0.16826  1.0000
  H   H210      1.0  0.17163  0.36797  0.02075  1.0000
  S   S45       1.0  0.16356  0.32674  0.31669  1.0000
  H   H211      1.0  0.10958  0.33646  0.05480  1.0000
  H   H212      1.0  0.13733  0.57936  0.19355  1.0000
  H   H213      1.0  0.13290  0.55812  0.15983  1.0000
  N   N9        1.0  0.11904  0.54941  0.21235  1.0000
  H   H214      1.0  0.19351  0.48535  0.38798  1.0000
  H   H215      1.0  0.11960  0.57687  0.25208  1.0000
  H   H216      1.0  0.09155  0.57193  0.23510  1.0000
  H   H217      1.0  0.08459  0.53959  0.19738  1.0000
  C   C135      1.0  0.09585  0.35256  0.31406  1.0000
  H   H218      1.0  0.10966  0.59148  0.14485  1.0000
  H   H219      1.0  0.08978  0.57025  0.15850  1.0000
  H   H220      1.0  0.09656  0.59418  0.18799  1.0000
  H   H221      1.0  0.16665  0.47212  0.39520  1.0000
  H   H222      1.0  0.14686  0.51547  0.17681  1.0000
  C   C136      1.0  0.10269  0.53211  0.19718  1.0000
  H   H223      1.0  0.09160  0.34899  0.17682  1.0000
  H   H224      1.0  0.11409  0.49515  0.20085  1.0000
  H   H225      1.0  0.15706  0.41176  0.43474  1.0000
  H   H226      1.0  0.05571  0.33281  0.31557  1.0000
  H   H227      1.0  0.08450  0.35638  0.29062  1.0000
  H   H228      1.0  0.11451  0.36666  0.05863  1.0000
  N   N10       1.0  0.18892  0.42865  0.42214  1.0000
  H   H229      1.0  0.15436  0.44249  0.43467  1.0000
  C   C137      1.0  0.19762  0.44841  0.39977  1.0000
  C   C138      1.0  0.19961  0.40609  0.40798  1.0000
  C   C139      1.0  0.18129  0.34646  0.46091  1.0000
  H   H230      1.0  0.23287  0.58991  0.41279  1.0000
  H   H231      1.0  0.23192  0.38594  0.40012  1.0000
  C   C140      1.0  0.10708  0.32553  0.36207  1.0000
  C   C141      1.0  0.15149  0.36059  0.09638  1.0000
  H   H232      1.0  0.19728  0.44417  0.37073  1.0000
  H   H233      1.0  0.21622  0.45118  0.40533  1.0000
  H   H234      1.0  0.19186  0.39081  0.42104  1.0000
  H   H235      1.0  0.19570  0.40407  0.37901  1.0000
  H   H236      1.0  0.21710  0.62310  0.38627  1.0000
  H   H237      1.0  0.09820  0.33366  0.38589  1.0000
  C   C142      1.0  0.16293  0.42744  0.42030  1.0000
  H   H238      1.0  0.11704  0.53912  0.28847  1.0000
  H   H239      1.0  0.10717  0.52855  0.16847  1.0000
  H   H240      1.0  0.25090  0.59165  0.37298  1.0000
  N   N11       1.0  0.23962  0.64322  0.41929  1.0000
  H   H241      1.0  0.23214  0.40360  0.43933  1.0000
  H   H242      1.0  0.13414  0.36013  0.10932  1.0000
  C   C143      1.0  0.15691  0.52646  0.19495  1.0000
  C   C144      1.0  0.19564  0.43260  0.46067  1.0000
  H   H243      1.0  0.06208  0.33893  0.36030  1.0000
  C   C145      1.0  0.15253  0.42647  0.38213  1.0000
  C   C146      1.0  0.23592  0.62515  0.39081  1.0000
  H   H244      1.0  0.14157  0.41110  0.37982  1.0000
  H   H245      1.0  0.18519  0.47842  0.43289  1.0000
  C   C147      1.0  0.24595  0.60035  0.39875  1.0000
  C   C148      1.0  0.09158  0.37304  0.34054  1.0000
  H   H246      1.0  0.10321  0.37186  0.36414  1.0000
  C   C149      1.0  0.14123  0.31538  0.17854  1.0000
  H   H247      1.0  0.09577  0.56138  0.29824  1.0000
  H   H248      1.0  0.16426  0.35695  0.11810  1.0000
  H   H249      1.0  0.16608  0.53963  0.17906  1.0000
  H   H250      1.0  0.12337  0.33502  0.35914  1.0000
  C   C150      1.0  0.06702  0.32672  0.33809  1.0000
  C   C151      1.0  0.22620  0.40322  0.41112  1.0000
  H   H251      1.0  0.10656  0.50757  0.24428  1.0000
  S   S46       1.0  0.12773  0.34930  0.22993  1.0000
  H   H252      1.0  0.15444  0.37826  0.08584  1.0000
  N   N12       1.0  0.14229  0.34645  0.03199  1.0000
  H   H253      1.0  0.08280  0.35747  0.01743  1.0000
  H   H254      1.0  0.08574  0.32605  0.12109  1.0000
  H   H255      1.0  0.08745  0.53734  0.27190  1.0000
  H   H256      1.0  0.23509  0.41642  0.39495  1.0000
  S   S47       1.0  0.24791  0.61088  0.28914  1.0000
  H   H257      1.0  0.21438  0.43616  0.46280  1.0000
  C   C152      1.0  0.12212  0.64099  0.11888  1.0000
  H   H258      1.0  0.29369  0.62893  0.28657  1.0000
  C   C153      1.0  0.12464  0.33236  0.18975  1.0000
  H   H259      1.0  0.14100  0.44205  0.37710  1.0000
  C   C154      1.0  0.14455  0.32449  0.00985  1.0000
  C   C155      1.0  0.10462  0.33597  0.16861  1.0000
  H   H260      1.0  0.26192  0.59999  0.41490  1.0000
  C   C156      1.0  0.14304  0.63047  0.13134  1.0000
  H   H261      1.0  0.11391  0.35386  0.30386  1.0000
  H   H262      1.0  0.27213  0.63098  0.44358  1.0000
  H   H263      1.0  0.19975  0.39603  0.47978  1.0000
  C   C157      1.0  0.10007  0.31129  0.29992  1.0000
  C   C158      1.0  0.14677  0.36610  0.48457  1.0000
  H   H264      1.0  0.23582  0.61916  0.46348  1.0000
  H   H265      1.0  0.16697  0.64051  0.48338  1.0000
  H   H266      1.0  0.17358  0.33915  0.06282  1.0000
  H   H267      1.0  0.24228  0.63073  0.36415  1.0000
  C   C159      1.0  0.16948  0.31431  0.00452  1.0000
  H   H268      1.0  0.08413  0.32808  0.25180  1.0000
  H   H269      1.0  0.26098  0.32037  0.28333  1.0000
  H   H270      1.0  0.11813  0.31453  0.29122  1.0000
  H   H271      1.0  0.28130  0.63197  0.37680  1.0000
  H   H272      1.0  0.14900  0.32502  0.07906  1.0000
  C   C160      1.0  0.28170  0.64335  0.29281  1.0000
  H   H273      1.0  0.20949  0.63132  0.44749  1.0000
  C   C161      1.0  0.10840  0.64258  0.18099  1.0000
  H   H274      1.0  0.10413  0.37498  0.99771  1.0000
  H   H275      1.0  0.18194  0.32787  0.99804  1.0000
  C   C162      1.0  0.10122  0.32294  0.13687  1.0000
  C   C163      1.0  0.22762  0.63567  0.45308  1.0000
  C   C164      1.0  0.08500  0.31109  0.26582  1.0000
  H   H276      1.0  0.15671  0.31223  0.19431  1.0000
  Fe  Fe25      1.0  0.19723  0.56471  0.69383  1.0000
  S   S48       1.0  0.16099  0.56819  0.67364  1.0000
  S   S49       1.0  0.21245  0.52881  0.70947  1.0000
  Fe  Fe26      1.0  0.20493  0.61695  0.68220  1.0000
  S   S50       1.0  0.16870  0.62282  0.66036  1.0000
  H   H277      1.0  0.18762  0.47139  0.53382  1.0000
  Fe  Fe27      1.0  0.15793  0.60089  0.70746  1.0000
  C   C165      1.0  0.19219  0.47454  0.60090  1.0000
  Fe  Fe28      1.0  0.17577  0.58966  0.62888  1.0000
  S   S51       1.0  0.16972  0.57605  0.57175  1.0000
  S   S52       1.0  0.19366  0.59628  0.73023  1.0000
  S   S53       1.0  0.21245  0.58505  0.64823  1.0000
  Fe  Fe29      1.0  0.21263  0.35569  0.69415  1.0000
  S   S54       1.0  0.18980  0.32834  0.67345  1.0000
  S   S55       1.0  0.25055  0.34973  0.70837  1.0000
  Fe  Fe30      1.0  0.17514  0.39467  0.68574  1.0000
  S   S56       1.0  0.14981  0.36912  0.66403  1.0000
  S   S57       1.0  0.16164  0.43280  0.68908  1.0000
  Fe  Fe31      1.0  0.16229  0.34549  0.70958  1.0000
  C   C166      1.0  0.15197  0.36801  0.97241  1.0000
  Fe  Fe32      1.0  0.17966  0.35447  0.63006  1.0000
  S   S58       1.0  0.18635  0.34371  0.57065  1.0000
  S   S59       1.0  0.18600  0.37175  0.73243  1.0000
  S   S60       1.0  0.20402  0.38118  0.64978  1.0000
  C   C167      1.0  0.17590  0.35040  0.52641  1.0000
  H   H278      1.0  0.18245  0.44125  0.57593  1.0000
  C   C168      1.0  0.16710  0.49968  0.51289  1.0000
  H   H279      1.0  0.14427  0.36855  0.54270  1.0000
  H   H280      1.0  0.30155  0.63380  0.59732  1.0000
  H   H281      1.0  0.16041  0.62589  0.79326  1.0000
  C   C169      1.0  0.26990  0.32511  0.71241  1.0000
  H   H282      1.0  0.27660  0.62404  0.62017  1.0000
  C   C170      1.0  0.13741  0.33398  0.85429  1.0000
  S   S61       1.0  0.11513  0.31666  0.91418  1.0000
  H   H283      1.0  0.17210  0.55523  0.50177  1.0000
  C   C171      1.0  0.17046  0.58870  0.52807  1.0000
  C   C172      1.0  0.16933  0.61280  0.52253  1.0000
  H   H284      1.0  0.16359  0.35445  0.95983  1.0000
  H   H285      1.0  0.16840  0.62443  0.54539  1.0000
  H   H286      1.0  0.08281  0.63565  0.85127  1.0000
  C   C173      1.0  0.19817  0.50215  0.70417  1.0000
  C   C174      1.0  0.21106  0.48085  0.70578  1.0000
  C   C175      1.0  0.20026  0.45940  0.70148  1.0000
  C   C176      1.0  0.17632  0.45902  0.69611  1.0000
  C   C177      1.0  0.16340  0.48031  0.69516  1.0000
  C   C178      1.0  0.17424  0.50171  0.69888  1.0000
  H   H287      1.0  0.22957  0.48092  0.71012  1.0000
  H   H288      1.0  0.21045  0.44317  0.70240  1.0000
  H   H289      1.0  0.14488  0.48022  0.69104  1.0000
  H   H290      1.0  0.16407  0.51787  0.69761  1.0000
  H   H291      1.0  0.17176  0.40993  0.48976  1.0000
  C   C179      1.0  0.29288  0.32949  0.72074  1.0000
  H   H292      1.0  0.20545  0.33314  0.50075  1.0000
  C   C180      1.0  0.19301  0.51351  0.57556  1.0000
  H   H293      1.0  0.19352  0.43880  0.62036  1.0000
  H   H294      1.0  0.24674  0.34049  0.56717  1.0000
  C   C181      1.0  0.14291  0.33579  0.81727  1.0000
  H   H295      1.0  0.18435  0.52745  0.55940  1.0000
  C   C182      1.0  0.12112  0.31821  0.86683  1.0000
  C   C183      1.0  0.09975  0.63352  0.83887  1.0000
  H   H296      1.0  0.19676  0.41739  0.51425  1.0000
  C   C184      1.0  0.12397  0.62076  0.78728  1.0000
  S   S62       1.0  0.12596  0.60754  0.74377  1.0000
  H   H297      1.0  0.26586  0.62398  0.70596  1.0000
  C   C185      1.0  0.14111  0.63786  0.84039  1.0000
  C   C186      1.0  0.14348  0.62795  0.80572  1.0000
  N   N13       1.0  0.17815  0.49270  0.58005  1.0000
  H   H298      1.0  0.13438  0.36633  0.96147  1.0000
  C   C187      1.0  0.15476  0.36251  0.52012  1.0000
  H   H299      1.0  0.20903  0.50851  0.56012  1.0000
  C   C188      1.0  0.13208  0.32191  0.79194  1.0000
  H   H300      1.0  0.18564  0.53160  0.62700  1.0000
  H   H301      1.0  0.13009  0.52631  0.60916  1.0000
  H   H302      1.0  0.21010  0.47237  0.58972  1.0000
  H   H303      1.0  0.30560  0.63695  0.71943  1.0000
  C   C189      1.0  0.17133  0.57387  0.49788  1.0000
  C   C190      1.0  0.10214  0.62353  0.80423  1.0000
  H   H304      1.0  0.08690  0.61799  0.79037  1.0000
  H   H305      1.0  0.16019  0.50298  0.62938  1.0000
  H   H306      1.0  0.14590  0.34494  0.87334  1.0000
  H   H307      1.0  0.15313  0.51270  0.51946  1.0000
  C   C191      1.0  0.20064  0.52522  0.61056  1.0000
  S   S63       1.0  0.13868  0.32286  0.74471  1.0000
  H   H308      1.0  0.19433  0.48008  0.62927  1.0000
  H   H309      1.0  0.15814  0.38508  0.96322  1.0000
  C   C192      1.0  0.17264  0.48248  0.54383  1.0000
  H   H310      1.0  0.15551  0.34797  0.80830  1.0000
  H   H311      1.0  0.18278  0.50878  0.50422  1.0000
  H   H312      1.0  0.12700  0.51052  0.56765  1.0000
  C   C193      1.0  0.18911  0.34256  0.49644  1.0000
  H   H313      1.0  0.21231  0.51370  0.62684  1.0000
  H   H314      1.0  0.29788  0.34722  0.72509  1.0000
  H   H315      1.0  0.14569  0.48289  0.60393  1.0000
  N   N14       1.0  0.14540  0.53674  0.80104  1.0000
  C   C194      1.0  0.12890  0.52539  0.77566  1.0000
  C   C195      1.0  0.15312  0.51847  0.82801  1.0000
  C   C196      1.0  0.16606  0.54371  0.77916  1.0000
  C   C197      1.0  0.13315  0.55777  0.81800  1.0000
  C   C198      1.0  0.11947  0.54066  0.74450  1.0000
  C   C199      1.0  0.13358  0.50773  0.85017  1.0000
  C   C200      1.0  0.18591  0.55473  0.79966  1.0000
  C   C201      1.0  0.14252  0.56629  0.85438  1.0000
  H   H316      1.0  0.13716  0.50929  0.76357  1.0000
  H   H317      1.0  0.11323  0.51975  0.79024  1.0000
  H   H318      1.0  0.16553  0.52516  0.84761  1.0000
  H   H319      1.0  0.16290  0.50384  0.81422  1.0000
  H   H320      1.0  0.17376  0.52833  0.76448  1.0000
  H   H321      1.0  0.16086  0.55671  0.75831  1.0000
  H   H322      1.0  0.13312  0.57277  0.79917  1.0000
  H   H323      1.0  0.11456  0.55425  0.82286  1.0000
  H   H324      1.0  0.13302  0.54384  0.72421  1.0000
  H   H325      1.0  0.10576  0.53128  0.73039  1.0000
  H   H326      1.0  0.11150  0.55749  0.75387  1.0000
  H   H327      1.0  0.12092  0.52108  0.86074  1.0000
  H   H328      1.0  0.12438  0.49473  0.83412  1.0000
  H   H329      1.0  0.14125  0.49822  0.87350  1.0000
  H   H330      1.0  0.19288  0.54373  0.82175  1.0000
  H   H331      1.0  0.18071  0.57247  0.80933  1.0000
  H   H332      1.0  0.20064  0.55680  0.78075  1.0000
  H   H333      1.0  0.14041  0.58560  0.85541  1.0000
  H   H334      1.0  0.16100  0.56203  0.85945  1.0000
  H   H335      1.0  0.13182  0.56001  0.87699  1.0000
  C   C202      1.0  0.15631  0.49849  0.60117  1.0000
  C   C203      1.0  0.24983  0.33976  0.59649  1.0000
  H   H336      1.0  0.26017  0.35496  0.60363  1.0000
  H   H337      1.0  0.15781  0.47074  0.54614  1.0000
  H   H338      1.0  0.14853  0.53214  0.57322  1.0000
  C   C204      1.0  0.13970  0.51780  0.58642  1.0000
  H   H339      1.0  0.16469  0.45000  0.61424  1.0000
  C   C205      1.0  0.18236  0.44993  0.60252  1.0000
  H   H340      1.0  0.21060  0.54072  0.60355  1.0000
  H   H341      1.0  0.27400  0.63204  0.57419  1.0000
  H   H342      1.0  0.28113  0.31857  0.59749  1.0000
  C   C206      1.0  0.11925  0.64077  0.85725  1.0000
  C   C207      1.0  0.28251  0.63660  0.59968  1.0000
  H   H343      1.0  0.23319  0.34214  0.61129  1.0000
  C   C208      1.0  0.19057  0.41270  0.48712  1.0000
  C   C209      1.0  0.26325  0.31725  0.60795  1.0000
  H   H344      1.0  0.26513  0.31808  0.63761  1.0000
  H   H345      1.0  0.32712  0.31510  0.73088  1.0000
  C   C210      1.0  0.16846  0.62185  0.48728  1.0000
  C   C211      1.0  0.26934  0.64234  0.70613  1.0000
  H   H346      1.0  0.13685  0.32680  0.98285  1.0000
  H   H347      1.0  0.16116  0.48978  0.48928  1.0000
  C   C212      1.0  0.30953  0.31125  0.72384  1.0000
  H   H348      1.0  0.15635  0.64339  0.85421  1.0000
  H   H349      1.0  0.10275  0.34430  0.98625  1.0000
  Fe  Fe33      1.0  0.26963  0.83079  0.03903  1.0000
  S   S64       1.0  0.23418  0.84881  0.04227  1.0000
  S   S65       1.0  0.29007  0.80851  0.08089  1.0000
  H   H350      1.0  0.37867  0.80906  0.17787  1.0000
  H   H351      1.0  0.13491  0.73564  0.14727  1.0000
  H   H352      1.0  0.23899  0.69471  0.31664  1.0000
  H   H353      1.0  0.13300  0.76338  0.07321  1.0000
  C   C213      1.0  0.13322  0.69930  0.15937  1.0000
  H   H354      1.0  0.16124  0.77395  0.07741  1.0000
  H   H355      1.0  0.28219  0.84190  0.14068  1.0000
  S   S66       1.0  0.00766  0.66992  0.99305  1.0000
  Fe  Fe34      1.0  0.09398  0.66384  0.03069  1.0000
  H   H356      1.0  0.24609  0.73399  0.27352  1.0000
  S   S67       1.0  0.06769  0.69384  0.03648  1.0000
  Fe  Fe35      1.0  0.34387  0.76538  0.36604  1.0000
  S   S68       1.0  0.35071  0.72735  0.35401  1.0000
  S   S69       1.0  0.34902  0.78223  0.42113  1.0000
  Fe  Fe36      1.0  0.33231  0.77678  0.28544  1.0000
  S   S70       1.0  0.33873  0.73952  0.26928  1.0000
  S   S71       1.0  0.31971  0.80593  0.24695  1.0000
  Fe  Fe37      1.0  0.31875  0.73037  0.31909  1.0000
  S   S72       1.0  0.28424  0.71216  0.32009  1.0000
  Fe  Fe38      1.0  0.37017  0.74039  0.30544  1.0000
  S   S73       1.0  0.40559  0.72636  0.28517  1.0000
  S   S74       1.0  0.31104  0.76795  0.33399  1.0000
  S   S75       1.0  0.36470  0.77820  0.31893  1.0000
  H   H357      1.0  0.42786  0.81050  0.14919  1.0000
  C   C214      1.0  0.14975  0.79756  0.99941  1.0000
  H   H358      1.0  0.24839  0.77767  0.27775  1.0000
  C   C215      1.0  0.27488  0.68420  0.30840  1.0000
  C   C216      1.0  0.29023  0.66562  0.29945  1.0000
  N   N15       1.0  0.40080  0.78529  0.20939  1.0000
  C   C217      1.0  0.39614  0.80003  0.17654  1.0000
  C   C218      1.0  0.24127  0.73713  0.24488  1.0000
  H   H359      1.0  0.30866  0.66824  0.29843  1.0000
  H   H360      1.0  0.24955  0.72674  0.15634  1.0000
  C   C219      1.0  0.37977  0.77108  0.21603  1.0000
  C   C220      1.0  0.45321  0.72778  0.27944  1.0000
  C   C221      1.0  0.43284  0.73886  0.29325  1.0000
  C   C222      1.0  0.43460  0.75996  0.31162  1.0000
  C   C223      1.0  0.45633  0.77003  0.31540  1.0000
  H   H361      1.0  0.45210  0.71144  0.26521  1.0000
  H   H362      1.0  0.41921  0.76858  0.32284  1.0000
  H   H363      1.0  0.08864  0.65519  0.13506  1.0000
  C   C224      1.0  0.34237  0.77067  0.46416  1.0000
  H   H364      1.0  0.09477  0.64718  0.20008  1.0000
  H   H365      1.0  0.33109  0.73775  0.44496  1.0000
  H   H366      1.0  0.14506  0.68362  0.16105  1.0000
  H   H367      1.0  0.38327  0.83157  0.22875  1.0000
  H   H368      1.0  0.19801  0.65676  0.37829  1.0000
  H   H369      1.0  0.23434  0.68074  0.42476  1.0000
  H   H370      1.0  0.23958  0.69907  0.23927  1.0000
  C   C225      1.0  0.47504  0.73763  0.28384  1.0000
  H   H371      1.0  0.12906  0.70464  0.18743  1.0000
  H   H372      1.0  0.44920  0.79354  0.19585  1.0000
  C   C226      1.0  0.33392  0.74837  0.46841  1.0000
  H   H373      1.0  0.40567  0.74362  0.47238  1.0000
  H   H374      1.0  0.40580  0.78823  0.26666  1.0000
  Fe  Fe39      1.0  0.22486  0.82702  0.99385  1.0000
  H   H375      1.0  0.19850  0.68637  0.39190  1.0000
  H   H376      1.0  0.11683  0.69451  0.14659  1.0000
  C   C227      1.0  0.24329  0.74501  0.15985  1.0000
  C   C228      1.0  0.29755  0.80825  0.12740  1.0000
  C   C229      1.0  0.31009  0.78871  0.14118  1.0000
  C   C230      1.0  0.31678  0.78762  0.17758  1.0000
  C   C231      1.0  0.31109  0.80611  0.20089  1.0000
  C   C232      1.0  0.29858  0.82567  0.18716  1.0000
  C   C233      1.0  0.29174  0.82671  0.15076  1.0000
  H   H377      1.0  0.31477  0.77435  0.12339  1.0000
  H   H378      1.0  0.32656  0.77262  0.18745  1.0000
  H   H379      1.0  0.29416  0.84018  0.20478  1.0000
  C   C234      1.0  0.37460  0.75273  0.18707  1.0000
  N   N16       1.0  0.14696  0.71669  0.09940  1.0000
  C   C235      1.0  0.16127  0.69447  0.09264  1.0000
  C   C236      1.0  0.16028  0.73656  0.08435  1.0000
  C   C237      1.0  0.12388  0.71492  0.08086  1.0000
  C   C238      1.0  0.16840  0.68950  0.05328  1.0000
  C   C239      1.0  0.14921  0.76121  0.08884  1.0000
  C   C240      1.0  0.10329  0.73022  0.09580  1.0000
  H   H380      1.0  0.17751  0.69413  0.10871  1.0000
  H   H381      1.0  0.15176  0.67904  0.10152  1.0000
  H   H382      1.0  0.17793  0.73662  0.09629  1.0000
  H   H383      1.0  0.16299  0.73448  0.05496  1.0000
  H   H384      1.0  0.12560  0.71890  0.05172  1.0000
  H   H385      1.0  0.11811  0.69667  0.08213  1.0000
  H   H386      1.0  0.26767  0.66144  0.44365  1.0000
  S   S76       1.0  0.11483  0.68241  0.98924  1.0000
  H   H387      1.0  0.15366  0.69182  0.03467  1.0000
  C   C241      1.0  0.38521  0.81866  0.25075  1.0000
  H   H388      1.0  0.41996  0.75289  0.22106  1.0000
  H   H389      1.0  0.14625  0.76615  0.11728  1.0000
  H   H390      1.0  0.09230  0.73632  0.07303  1.0000
  H   H391      1.0  0.10793  0.74603  0.11045  1.0000
  H   H392      1.0  0.09179  0.71968  0.11273  1.0000
  N   N17       1.0  0.26220  0.74384  0.22322  1.0000
  C   C242      1.0  0.27648  0.75904  0.24679  1.0000
  C   C243      1.0  0.27711  0.72244  0.21397  1.0000
  C   C244      1.0  0.28092  0.64784  0.39383  1.0000
  C   C245      1.0  0.25513  0.75791  0.19059  1.0000
  Fe  Fe40      1.0  0.08823  0.71135  0.99283  1.0000
  C   C246      1.0  0.29847  0.72652  0.19011  1.0000
  H   H393      1.0  0.42144  0.76157  0.17545  1.0000
  H   H394      1.0  0.28332  0.74905  0.27026  1.0000
  H   H395      1.0  0.29198  0.76492  0.23226  1.0000
  H   H396      1.0  0.26729  0.70912  0.19980  1.0000
  H   H397      1.0  0.28329  0.71358  0.23900  1.0000
  H   H398      1.0  0.22415  0.71525  0.20452  1.0000
  H   H399      1.0  0.22418  0.74574  0.16349  1.0000
  H   H400      1.0  0.27004  0.76715  0.17899  1.0000
  H   H401      1.0  0.24278  0.77246  0.19829  1.0000
  C   C247      1.0  0.25100  0.68045  0.30974  1.0000
  H   H402      1.0  0.44848  0.77993  0.23971  1.0000
  H   H403      1.0  0.31150  0.73659  0.20423  1.0000
  H   H404      1.0  0.30706  0.70940  0.18339  1.0000
  H   H405      1.0  0.29380  0.73513  0.16437  1.0000
  C   C248      1.0  0.42131  0.76846  0.20341  1.0000
  H   H406      1.0  0.37030  0.76083  0.16081  1.0000
  H   H407      1.0  0.16212  0.72131  0.15180  1.0000
  H   H408      1.0  0.38999  0.82833  0.27528  1.0000
  C   C249      1.0  0.26401  0.78136  0.26167  1.0000
  H   H409      1.0  0.18275  0.70051  0.04457  1.0000
  H   H410      1.0  0.24742  0.75363  0.13398  1.0000
  H   H411      1.0  0.45737  0.78649  0.32930  1.0000
  C   C250      1.0  0.20346  0.66830  0.40025  1.0000
  H   H412      1.0  0.25322  0.95659  0.05709  1.0000
  H   H413      1.0  0.27595  0.79019  0.28003  1.0000
  H   H414      1.0  0.38145  0.76159  0.24200  1.0000
  C   C251      1.0  0.14472  0.71945  0.13959  1.0000
  H   H415      1.0  0.22789  0.75165  0.24540  1.0000
  C   C252      1.0  0.44568  0.77738  0.21055  1.0000
  H   H416      1.0  0.40521  0.83296  0.15268  1.0000
  H   H417      1.0  0.36829  0.81116  0.25661  1.0000
  C   C253      1.0  0.22891  0.71509  0.23318  1.0000
  H   H418      1.0  0.42206  0.82622  0.19064  1.0000
  H   H419      1.0  0.36379  0.78243  0.21861  1.0000
  C   C254      1.0  0.41409  0.81820  0.16703  1.0000
  H   H420      1.0  0.21264  0.71384  0.24900  1.0000
  H   H421      1.0  0.35917  0.74318  0.19553  1.0000
  H   H422      1.0  0.42072  0.80893  0.24192  1.0000
  H   H423      1.0  0.39499  0.78885  0.15228  1.0000
  C   C255      1.0  0.40426  0.79974  0.24266  1.0000
  S   S77       1.0  0.24702  0.91633  0.01049  1.0000
  H   H424      1.0  0.25967  0.79404  0.24004  1.0000
  H   H425      1.0  0.38890  0.73940  0.18392  1.0000
  H   H426      1.0  0.19340  0.66473  0.42493  1.0000
  S   S78       1.0  0.28369  0.85783  0.00174  1.0000
  Fe  Fe41      1.0  0.04763  0.67728  0.99116  1.0000
  S   S79       1.0  0.09953  0.74924  0.99772  1.0000
  Fe  Fe42      1.0  0.24780  0.87542  0.00216  1.0000
  C   C256      1.0  0.24250  0.65828  0.30299  1.0000
  H   H427      1.0  0.23791  0.67100  0.38013  1.0000
  S   S80       1.0  0.25993  0.80850  0.99224  1.0000
  C   C257      1.0  0.25025  0.96340  0.03036  1.0000
  H   H428      1.0  0.22412  0.65568  0.30453  1.0000
  C   C258      1.0  0.22988  0.66643  0.40621  1.0000
  C   C259      1.0  0.22713  0.65327  0.48433  1.0000
  H   H429      1.0  0.11265  0.79661  0.00675  1.0000
  C   C260      1.0  0.97664  0.67670  0.99041  1.0000
  H   H430      1.0  0.30921  0.91731  0.01118  1.0000
  C   C261      1.0  0.17036  0.78479  0.99173  1.0000
  H   H431      1.0  0.21708  0.66952  0.47763  1.0000
  H   H432      1.0  0.27592  0.66326  0.37739  1.0000
  S   S81       1.0  0.11878  0.64600  0.07176  1.0000
  S   S82       1.0  0.07341  0.64600  0.98785  1.0000
  C   C262      1.0  0.12717  0.76224  0.99526  1.0000
  H   H433      1.0  0.15025  0.81612  0.00399  1.0000
  H   H434      1.0  0.45883  0.76385  0.20180  1.0000
  C   C263      1.0  0.24620  0.94765  0.00213  1.0000
  H   H435      1.0  0.17484  0.67106  0.05088  1.0000
  C   C264      1.0  0.12838  0.78639  0.00096  1.0000
  H   H436      1.0  0.29897  0.65021  0.40283  1.0000
  C   C265      1.0  0.10483  0.64712  0.14405  1.0000
  C   C266      1.0  0.26503  0.64567  0.42702  1.0000
  C   C267      1.0  0.14778  0.74937  0.98785  1.0000
  S   S83       1.0  0.19789  0.79813  0.98947  1.0000
  Fe  Fe43      1.0  0.27134  0.83647  0.95516  1.0000
  S   S84       1.0  0.23590  0.85461  0.95380  1.0000
  S   S85       1.0  0.29819  0.82799  0.91028  1.0000
  H   H437      1.0  0.14728  0.73078  0.98353  1.0000
  C   C268      1.0  0.34597  0.78421  0.49504  1.0000
  H   H438      1.0  0.38842  0.81315  0.59025  1.0000
  H   H439      1.0  0.33388  0.80655  0.86584  1.0000
  Fe  Fe44      1.0  0.09290  0.66659  0.94664  1.0000
  H   H440      1.0  0.24309  0.71528  0.58290  1.0000
  S   S86       1.0  0.06671  0.69707  0.94776  1.0000
  Fe  Fe45      1.0  0.32544  0.77008  0.71255  1.0000
  S   S87       1.0  0.35206  0.74541  0.73702  1.0000
  S   S88       1.0  0.29921  0.79199  0.74665  1.0000
  Fe  Fe46      1.0  0.33500  0.74973  0.63491  1.0000
  S   S89       1.0  0.36146  0.72373  0.65646  1.0000
  S   S90       1.0  0.32551  0.74166  0.57663  1.0000
  Fe  Fe47      1.0  0.33618  0.71841  0.70164  1.0000
  S   S91       1.0  0.32549  0.68243  0.71951  1.0000
  Fe  Fe48      1.0  0.37451  0.75340  0.68880  1.0000
  S   S92       1.0  0.41153  0.76612  0.68470  1.0000
  S   S93       1.0  0.30915  0.74270  0.67860  1.0000
  S   S94       1.0  0.34853  0.77995  0.66591  1.0000
  C   C269      1.0  0.33261  0.75335  0.53388  1.0000
  H   H441      1.0  0.42610  0.73272  0.52456  1.0000
  C   C270      1.0  0.34115  0.77562  0.52972  1.0000
  C   C271      1.0  0.30822  0.67990  0.58166  1.0000
  H   H442      1.0  0.34363  0.78639  0.55311  1.0000
  C   C272      1.0  0.29682  0.67351  0.71240  1.0000
  H   H443      1.0  0.29417  0.96294  0.90255  1.0000
  C   C273      1.0  0.25780  0.74412  0.75559  1.0000
  H   H444      1.0  0.32385  0.96981  0.90554  1.0000
  C   C274      1.0  0.25642  0.68251  0.69816  1.0000
  C   C275      1.0  0.27884  0.68979  0.70525  1.0000
  C   C276      1.0  0.31787  0.88222  0.87262  1.0000
  H   H445      1.0  0.24278  0.69536  0.69208  1.0000
  H   H446      1.0  0.28211  0.70807  0.70515  1.0000
  H   H447      1.0  0.30682  0.87630  0.92720  1.0000
  C   C277      1.0  0.44309  0.72885  0.69741  1.0000
  C   C278      1.0  0.43956  0.75219  0.68745  1.0000
  C   C279      1.0  0.45898  0.76526  0.67927  1.0000
  H   H448      1.0  0.41734  0.79514  0.54537  1.0000
  H   H449      1.0  0.42835  0.71854  0.70376  1.0000
  H   H450      1.0  0.45648  0.78331  0.67140  1.0000
  C   C280      1.0  0.27617  0.70378  0.60784  1.0000
  H   H451      1.0  0.33754  0.71257  0.79262  1.0000
  H   H452      1.0  0.15302  0.77032  0.83259  1.0000
  H   H453      1.0  0.27355  0.74587  0.73885  1.0000
  H   H454      1.0  0.27944  0.71577  0.53848  1.0000
  H   H455      1.0  0.28884  0.69366  0.50714  1.0000
  H   H456      1.0  0.24576  0.75887  0.74811  1.0000
  H   H457      1.0  0.28243  0.70327  0.63594  1.0000
  C   C281      1.0  0.31649  0.91511  0.98360  1.0000
  H   H458      1.0  0.18493  0.75045  0.98015  1.0000
  C   C282      1.0  0.40460  0.78438  0.55975  1.0000
  C   C283      1.0  0.39488  0.74504  0.57921  1.0000
  H   H459      1.0  0.32853  0.92937  0.97924  1.0000
  H   H460      1.0  0.38845  0.78574  0.54364  1.0000
  C   C284      1.0  0.29769  0.81733  0.86515  1.0000
  C   C285      1.0  0.27780  0.81889  0.84384  1.0000
  C   C286      1.0  0.27871  0.81128  0.80769  1.0000
  C   C287      1.0  0.29933  0.80156  0.79242  1.0000
  C   C288      1.0  0.31911  0.79966  0.81390  1.0000
  C   C289      1.0  0.31833  0.80776  0.84979  1.0000
  H   H461      1.0  0.26183  0.82635  0.85500  1.0000
  H   H462      1.0  0.26329  0.81294  0.79140  1.0000
  H   H463      1.0  0.33513  0.79233  0.80269  1.0000
  H   H464      1.0  0.32199  0.93189  0.87706  1.0000
  N   N18       1.0  0.12179  0.72706  0.87217  1.0000
  C   C290      1.0  0.10255  0.71208  0.85936  1.0000
  C   C291      1.0  0.11311  0.73949  0.90564  1.0000
  C   C292      1.0  0.14202  0.71090  0.88205  1.0000
  C   C293      1.0  0.12813  0.74349  0.84240  1.0000
  C   C294      1.0  0.10714  0.69839  0.82407  1.0000
  C   C295      1.0  0.09127  0.75562  0.90107  1.0000
  C   C296      1.0  0.16433  0.72233  0.89403  1.0000
  C   C297      1.0  0.13998  0.76613  0.85341  1.0000
  H   H465      1.0  0.09790  0.69932  0.88046  1.0000
  H   H466      1.0  0.08644  0.72277  0.85429  1.0000
  H   H467      1.0  0.12648  0.75015  0.91786  1.0000
  H   H468      1.0  0.10910  0.72661  0.92695  1.0000
  H   H469      1.0  0.13695  0.69895  0.90406  1.0000
  H   H470      1.0  0.14744  0.69948  0.85924  1.0000
  H   H471      1.0  0.13953  0.73420  0.82230  1.0000
  H   H472      1.0  0.11222  0.74931  0.82757  1.0000
  H   H473      1.0  0.11033  0.71002  0.80098  1.0000
  H   H474      1.0  0.12149  0.68514  0.82622  1.0000
  H   H475      1.0  0.09150  0.68860  0.81759  1.0000
  H   H476      1.0  0.09175  0.76630  0.87641  1.0000
  H   H477      1.0  0.07535  0.74543  0.90133  1.0000
  H   H478      1.0  0.08976  0.76777  0.92429  1.0000
  C   C298      1.0  0.27469  0.69915  0.52606  1.0000
  H   H479      1.0  0.17703  0.70841  0.90262  1.0000
  H   H480      1.0  0.28477  0.90182  0.96467  1.0000
  H   H481      1.0  0.17250  0.73164  0.87151  1.0000
  H   H482      1.0  0.14926  0.76550  0.87924  1.0000
  H   H483      1.0  0.12727  0.78117  0.85361  1.0000
  N   N19       1.0  0.27889  0.72671  0.81104  1.0000
  C   C299      1.0  0.26334  0.74595  0.79594  1.0000
  C   C300      1.0  0.28059  0.73009  0.85109  1.0000
  C   C301      1.0  0.26932  0.70312  0.80401  1.0000
  C   C302      1.0  0.30235  0.72764  0.79319  1.0000
  H   H484      1.0  0.25091  0.90308  0.92456  1.0000
  C   C303      1.0  0.29204  0.75252  0.86347  1.0000
  C   C304      1.0  0.24384  0.70011  0.81517  1.0000
  C   C305      1.0  0.32153  0.71123  0.80898  1.0000
  H   H485      1.0  0.24667  0.74762  0.81106  1.0000
  H   H486      1.0  0.27131  0.76305  0.79929  1.0000
  H   H487      1.0  0.29004  0.71502  0.86388  1.0000
  H   H488      1.0  0.26307  0.73070  0.86371  1.0000
  H   H489      1.0  0.27098  0.69838  0.77518  1.0000
  H   H490      1.0  0.27959  0.68925  0.81833  1.0000
  H   H491      1.0  0.30126  0.72301  0.76425  1.0000
  H   H492      1.0  0.30871  0.74569  0.79347  1.0000
  H   H493      1.0  0.32153  0.66373  0.63195  1.0000
  H   H494      1.0  0.28575  0.93228  0.96175  1.0000
  H   H495      1.0  0.31330  0.66447  0.56493  1.0000
  H   H496      1.0  0.28142  0.76831  0.85633  1.0000
  H   H497      1.0  0.29332  0.75245  0.89323  1.0000
  H   H498      1.0  0.30987  0.75400  0.85285  1.0000
  H   H499      1.0  0.23908  0.68207  0.80847  1.0000
  H   H500      1.0  0.23167  0.71194  0.80034  1.0000
  H   H501      1.0  0.24115  0.70236  0.84448  1.0000
  H   H502      1.0  0.23977  0.69690  0.62206  1.0000
  H   H503      1.0  0.32064  0.69525  0.63209  1.0000
  H   H504      1.0  0.31695  0.69271  0.80792  1.0000
  C   C306      1.0  0.43493  0.75898  0.58534  1.0000
  S   S95       1.0  0.22381  0.65108  0.68342  1.0000
  H   H505      1.0  0.38395  0.74912  0.50624  1.0000
  N   N20       1.0  0.41348  0.75934  0.56235  1.0000
  H   H506      1.0  0.30922  0.96082  0.94502  1.0000
  H   H507      1.0  0.38780  0.78599  0.61343  1.0000
  C   C307      1.0  0.39856  0.79669  0.59570  1.0000
  H   H508      1.0  0.25628  0.66177  0.61631  1.0000
  C   C308      1.0  0.39453  0.71904  0.56862  1.0000
  H   H509      1.0  0.34216  0.67935  0.60670  1.0000
  H   H510      1.0  0.28499  0.91678  0.86646  1.0000
  H   H511      1.0  0.27543  0.66308  0.53953  1.0000
  H   H512      1.0  0.46837  0.70097  0.70817  1.0000
  H   H513      1.0  0.38904  0.71672  0.54044  1.0000
  H   H514      1.0  0.41435  0.80156  0.61028  1.0000
  H   H515      1.0  0.24766  0.72643  0.62689  1.0000
  C   C309      1.0  0.28114  0.91605  0.89577  1.0000
  H   H516      1.0  0.24926  0.72784  0.74858  1.0000
  H   H517      1.0  0.23926  0.94575  0.94554  1.0000
  H   H518      1.0  0.16156  0.73402  0.91738  1.0000
  H   H519      1.0  0.25292  0.89485  0.87765  1.0000
  H   H520      1.0  0.44811  0.77045  0.57359  1.0000
  N   N21       1.0  0.30292  0.91367  0.91777  1.0000
  C   C310      1.0  0.31532  0.89031  0.91200  1.0000
  H   H521      1.0  0.33314  0.89025  0.92321  1.0000
  H   H522      1.0  0.43096  0.76612  0.61247  1.0000
  C   C311      1.0  0.40106  0.75443  0.49634  1.0000
  H   H523      1.0  0.27186  0.93302  0.90132  1.0000
  C   C312      1.0  0.46582  0.71892  0.69983  1.0000
  H   H524      1.0  0.97902  0.71325  0.97938  1.0000
  C   C313      1.0  0.27015  0.67958  0.55347  1.0000
  H   H525      1.0  0.37727  0.75246  0.57286  1.0000
  C   C314      1.0  0.24259  0.95722  0.96774  1.0000
  C   C315      1.0  0.42019  0.75133  0.52497  1.0000
  H   H526      1.0  0.39594  0.74584  0.60905  1.0000
  C   C316      1.0  0.25161  0.65877  0.69782  1.0000
  C   C317      1.0  0.26299  0.89751  0.90253  1.0000
  C   C318      1.0  0.31895  0.93246  0.90659  1.0000
  H   H527      1.0  0.33641  0.92953  0.91867  1.0000
  H   H528      1.0  0.41128  0.70950  0.57278  1.0000
  H   H529      1.0  0.27075  0.88017  0.90931  1.0000
  H   H530      1.0  0.38146  0.71043  0.58545  1.0000
  H   H531      1.0  0.28261  0.66332  0.63977  1.0000
  C   C319      1.0  0.29627  0.91598  0.95677  1.0000
  H   H532      1.0  0.28512  0.71867  0.59587  1.0000
  C   C320      1.0  0.27541  0.66142  0.61248  1.0000
  H   H533      1.0  0.25111  0.67827  0.55738  1.0000
  C   C321      1.0  0.32371  0.67949  0.61530  1.0000
  C   C322      1.0  0.25009  0.71067  0.60975  1.0000
  H   H534      1.0  0.32633  0.89521  0.85555  1.0000
  H   H535      1.0  0.32601  0.71605  0.83683  1.0000
  N   N22       1.0  0.28250  0.68119  0.58878  1.0000
  H   H536      1.0  0.32611  0.89801  0.98299  1.0000
  H   H537      1.0  0.31338  0.69504  0.56531  1.0000
  H   H538      1.0  0.25868  0.70325  0.51052  1.0000
  C   C323      1.0  0.29186  0.64974  0.71358  1.0000
  H   H539      1.0  0.43536  0.76089  0.51501  1.0000
  C   C324      1.0  0.31076  0.95775  0.91567  1.0000
  H   H540      1.0  0.30093  0.87790  0.86099  1.0000
  H   H541      1.0  0.32887  0.86588  0.87171  1.0000
  C   C325      1.0  0.44693  0.73502  0.59234  1.0000
  S   S96       1.0  0.11752  0.65427  0.90055  1.0000
  H   H542      1.0  0.24481  0.65738  0.49287  1.0000
  H   H543      1.0  0.32242  0.72260  0.50586  1.0000
  C   C326      1.0  0.32901  0.73983  0.50303  1.0000
  H   H544      1.0  0.43643  0.72452  0.61084  1.0000
  H   H545      1.0  0.45133  0.72525  0.56744  1.0000
  H   H546      1.0  0.46353  0.73765  0.60647  1.0000
  H   H547      1.0  0.35237  0.80154  0.49204  1.0000
  C   C327      1.0  0.16915  0.76059  0.98596  1.0000
  H   H548      1.0  0.21831  0.64542  0.50774  1.0000
  H   H549      1.0  0.39939  0.77277  0.48700  1.0000
  Fe  Fe49      1.0  0.65009  0.12147  0.01920  1.0000
  S   S97       1.0  0.64455  0.13863  0.07493  1.0000
  S   S98       1.0  0.68369  0.10074  0.00893  1.0000
  Fe  Fe50      1.0  0.82037  0.29273  0.01707  1.0000
  H   H550      1.0  0.73029  0.15593  0.01345  1.0000
  S   S99       1.0  0.83876  0.25816  0.02667  1.0000
  Fe  Fe51      1.0  0.57704  0.18418  0.34808  1.0000
  S   S100      1.0  0.57079  0.22266  0.34465  1.0000
  S   S101      1.0  0.57641  0.16593  0.40281  1.0000
  Fe  Fe52      1.0  0.58189  0.17955  0.26411  1.0000
  S   S102      1.0  0.57594  0.21828  0.25689  1.0000
  S   S103      1.0  0.58103  0.15413  0.21623  1.0000
  Fe  Fe53      1.0  0.59988  0.22186  0.30414  1.0000
  S   S104      1.0  0.63172  0.24252  0.31660  1.0000
  Fe  Fe54      1.0  0.54743  0.21491  0.29835  1.0000
  S   S105      1.0  0.51106  0.23186  0.29576  1.0000
  S   S106      1.0  0.60731  0.18309  0.30947  1.0000
  S   S107      1.0  0.55226  0.17636  0.30362  1.0000
  H   H551      1.0  0.49182  0.16632  0.45933  1.0000
  H   H552      1.0  0.62700  0.25206  0.39867  1.0000
  H   H553      1.0  0.61809  0.24155  0.44261  1.0000
  H   H554      1.0  0.50113  0.18223  0.29717  1.0000
  C   C328      1.0  0.64199  0.26933  0.30086  1.0000
  C   C329      1.0  0.63102  0.28233  0.27362  1.0000
  H   H555      1.0  0.67275  0.26150  0.13586  1.0000
  H   H556      1.0  0.66098  0.01046  0.05297  1.0000
  H   H557      1.0  0.66510  0.00670  0.10083  1.0000
  C   C330      1.0  0.61772  0.23841  0.41327  1.0000
  H   H558      1.0  0.61550  0.27611  0.26140  1.0000
  C   C331      1.0  0.48490  0.21658  0.29579  1.0000
  H   H559      1.0  0.54199  0.18968  0.21095  1.0000
  H   H560      1.0  0.52648  0.23466  0.37625  1.0000
  N   N23       1.0  0.50980  0.18095  0.18485  1.0000
  H   H561      1.0  0.75924  0.18214  0.03895  1.0000
  S   S108      1.0  0.79362  0.21096  0.00756  1.0000
  C   C332      1.0  0.70928  0.29657  0.21137  1.0000
  H   H562      1.0  0.68656  0.30506  0.31781  1.0000
  C   C333      1.0  0.66723  0.22329  0.39525  1.0000
  H   H563      1.0  0.80132  0.28105  0.17761  1.0000
  H   H564      1.0  0.81246  0.28205  0.11297  1.0000
  H   H565      1.0  0.49170  0.15005  0.23810  1.0000
  C   C334      1.0  0.57460  0.17930  0.44602  1.0000
  C   C335      1.0  0.57120  0.20339  0.45028  1.0000
  H   H566      1.0  0.55335  0.18472  0.15560  1.0000
  H   H567      1.0  0.56904  0.21436  0.42689  1.0000
  C   C336      1.0  0.51331  0.24188  0.39534  1.0000
  C   C337      1.0  0.51033  0.14764  0.23123  1.0000
  H   H568      1.0  0.50749  0.14404  0.17359  1.0000
  H   H569      1.0  0.89243  0.16288  0.00288  1.0000
  C   C338      1.0  0.62608  0.14311  0.11336  1.0000
  C   C339      1.0  0.60528  0.13172  0.11792  1.0000
  C   C340      1.0  0.59179  0.13534  0.14945  1.0000
  C   C341      1.0  0.59865  0.15063  0.17670  1.0000
  C   C342      1.0  0.61927  0.16222  0.17192  1.0000
  C   C343      1.0  0.63291  0.15836  0.14063  1.0000
  H   H570      1.0  0.59962  0.12009  0.09723  1.0000
  H   H571      1.0  0.57590  0.12624  0.15274  1.0000
  H   H572      1.0  0.62489  0.17399  0.19250  1.0000
  H   H573      1.0  0.64892  0.16730  0.13752  1.0000
  C   C344      1.0  0.54076  0.18116  0.13422  1.0000
  H   H574      1.0  0.61004  0.07160  0.13147  1.0000
  H   H575      1.0  0.81729  0.16404  0.99790  1.0000
  H   H576      1.0  0.66377  0.24179  0.40306  1.0000
  H   H577      1.0  0.67073  0.26781  0.33759  1.0000
  C   C345      1.0  0.77164  0.19405  0.98770  1.0000
  C   C346      1.0  0.48440  0.18668  0.19163  1.0000
  N   N24       1.0  0.49516  0.20221  0.40866  1.0000
  H   H578      1.0  0.87623  0.29742  0.12500  1.0000
  H   H579      1.0  0.51331  0.15474  0.40729  1.0000
  Fe  Fe55      1.0  0.81263  0.24331  0.98866  1.0000
  C   C347      1.0  0.94817  0.24495  0.98815  1.0000
  H   H580      1.0  0.63980  0.05628  0.03395  1.0000
  H   H581      1.0  0.52112  0.24404  0.42217  1.0000
  H   H582      1.0  0.51713  0.19541  0.23711  1.0000
  C   C348      1.0  0.66212  0.27768  0.31648  1.0000
  H   H583      1.0  0.68700  0.08403  0.11248  1.0000
  H   H584      1.0  0.69878  0.22144  0.42877  1.0000
  H   H585      1.0  0.52265  0.17083  0.46201  1.0000
  H   H586      1.0  0.90676  0.29255  0.03522  1.0000
  H   H587      1.0  0.66700  0.07738  0.14846  1.0000
  C   C349      1.0  0.69349  0.21850  0.40062  1.0000
  C   C350      1.0  0.51513  0.18533  0.14584  1.0000
  C   C351      1.0  0.79847  0.29696  0.16247  1.0000
  H   H588      1.0  0.64759  0.14659  0.40393  1.0000
  H   H589      1.0  0.62897  0.03135  0.05536  1.0000
  H   H590      1.0  0.49036  0.21408  0.46403  1.0000
  H   H591      1.0  0.51495  0.12874  0.23350  1.0000
  C   C352      1.0  0.62697  0.21363  0.40332  1.0000
  H   H592      1.0  0.88354  0.21373  0.03111  1.0000
  H   H593      1.0  0.87844  0.28452  0.04381  1.0000
  C   C353      1.0  0.60720  0.06173  0.06129  1.0000
  H   H594      1.0  0.70302  0.23098  0.38383  1.0000
  H   H595      1.0  0.84248  0.20714  0.01202  1.0000
  H   H596      1.0  0.75138  0.28476  0.18308  1.0000
  C   C354      1.0  0.52353  0.22218  0.19883  1.0000
  H   H597      1.0  0.53321  0.22501  0.17350  1.0000
  C   C355      1.0  0.48493  0.19225  0.29655  1.0000
  H   H598      1.0  0.62896  0.06716  0.16948  1.0000
  H   H599      1.0  0.50828  0.25958  0.38537  1.0000
  C   C356      1.0  0.86977  0.30927  0.10336  1.0000
  H   H600      1.0  0.86468  0.20665  0.06706  1.0000
  H   H601      1.0  0.59829  0.05846  0.03551  1.0000
  C   C357      1.0  0.52364  0.19615  0.20901  1.0000
  C   C358      1.0  0.75745  0.18085  0.01013  1.0000
  H   H602      1.0  0.50907  0.20311  0.13729  1.0000
  H   H603      1.0  0.53484  0.15202  0.18877  1.0000
  H   H604      1.0  0.51923  0.21049  0.45057  1.0000
  C   C359      1.0  0.73681  0.27944  0.16591  1.0000
  H   H605      1.0  0.91976  0.27569  0.09559  1.0000
  C   C360      1.0  0.51415  0.16409  0.38148  1.0000
  H   H606      1.0  0.53159  0.19513  0.39606  1.0000
  C   C361      1.0  0.74611  0.27744  0.12701  1.0000
  C   C362      1.0  0.71487  0.27464  0.23420  1.0000
  C   C363      1.0  0.68751  0.26418  0.15420  1.0000
  H   H607      1.0  0.47895  0.23689  0.41428  1.0000
  H   H608      1.0  0.88498  0.18482  0.05095  1.0000
  H   H609      1.0  0.73334  0.26141  0.17436  1.0000
  C   C364      1.0  0.87635  0.15943  0.98784  1.0000
  C   C365      1.0  0.90393  0.27080  0.08122  1.0000
  H   H610      1.0  0.89079  0.26465  0.10043  1.0000
  H   H611      1.0  0.66410  0.22249  0.36577  1.0000
  C   C366      1.0  0.97216  0.24969  0.98886  1.0000
  C   C367      1.0  0.74098  0.16590  0.99572  1.0000
  H   H612      1.0  0.54408  0.16291  0.12504  1.0000
  H   H613      1.0  0.50513  0.17371  0.12843  1.0000
  H   H614      1.0  0.68022  0.30076  0.15529  1.0000
  H   H615      1.0  0.61429  0.20157  0.41422  1.0000
  H   H616      1.0  0.48388  0.22792  0.36914  1.0000
  H   H617      1.0  0.70820  0.25855  0.22258  1.0000
  H   H618      1.0  0.70674  0.27698  0.26113  1.0000
  H   H619      1.0  0.73383  0.27230  0.23861  1.0000
  H   H620      1.0  0.70118  0.25084  0.14705  1.0000
  C   C368      1.0  0.67124  0.29878  0.30516  1.0000
  H   H621      1.0  0.68101  0.26130  0.18181  1.0000
  N   N25       1.0  0.64753  0.05418  0.09064  1.0000
  C   C369      1.0  0.67075  0.04250  0.08140  1.0000
  C   C370      1.0  0.65122  0.07990  0.09433  1.0000
  C   C371      1.0  0.63170  0.05020  0.05932  1.0000
  C   C372      1.0  0.63831  0.04352  0.12462  1.0000
  C   C373      1.0  0.67111  0.01579  0.07646  1.0000
  C   C374      1.0  0.66902  0.08679  0.12279  1.0000
  H   H622      1.0  0.66666  0.10572  0.12861  1.0000
  C   C375      1.0  0.62039  0.05847  0.14676  1.0000
  H   H623      1.0  0.67803  0.05012  0.05637  1.0000
  H   H624      1.0  0.68366  0.04551  0.10275  1.0000
  H   H625      1.0  0.63500  0.08997  0.10060  1.0000
  H   H626      1.0  0.65688  0.08718  0.06825  1.0000
  H   H627      1.0  0.63047  0.02657  0.11858  1.0000
  H   H628      1.0  0.65293  0.03940  0.14330  1.0000
  N   N26       1.0  0.65137  0.20732  0.41506  1.0000
  H   H629      1.0  0.50575  0.23004  0.19694  1.0000
  H   H630      1.0  0.69045  0.30101  0.21481  1.0000
  C   C376      1.0  0.51420  0.19083  0.38580  1.0000
  C   C377      1.0  0.65471  0.21083  0.45481  1.0000
  H   H631      1.0  0.86680  0.14793  0.00634  1.0000
  H   H632      1.0  0.66333  0.18184  0.37524  1.0000
  H   H633      1.0  0.69931  0.20079  0.39171  1.0000
  C   C378      1.0  0.64027  0.30347  0.26212  1.0000
  C   C379      1.0  0.51595  0.15577  0.19285  1.0000
  H   H634      1.0  0.67348  0.17594  0.41942  1.0000
  H   H635      1.0  0.76047  0.26396  0.12618  1.0000
  C   C380      1.0  0.65807  0.18257  0.40414  1.0000
  H   H636      1.0  0.52086  0.15659  0.25130  1.0000
  C   C381      1.0  0.57697  0.16534  0.47695  1.0000
  H   H637      1.0  0.53049  0.15787  0.36816  1.0000
  H   H638      1.0  0.62547  0.21154  0.37375  1.0000
  H   H639      1.0  0.85513  0.30030  0.09062  1.0000
  C   C382      1.0  0.80477  0.29745  0.12571  1.0000
  H   H640      1.0  0.51358  0.19781  0.35793  1.0000
  H   H641      1.0  0.60731  0.08090  0.06432  1.0000
  H   H642      1.0  0.63082  0.16437  0.43451  1.0000
  C   C383      1.0  0.89414  0.29074  0.05734  1.0000
  C   C384      1.0  0.87328  0.19952  0.04240  1.0000
  H   H643      1.0  0.59936  0.24047  0.40490  1.0000
  H   H644      1.0  0.75369  0.29377  0.11757  1.0000
  H   H645      1.0  0.59662  0.05379  0.08258  1.0000
  H   H646      1.0  0.54487  0.19318  0.11193  1.0000
  N   N27       1.0  0.71596  0.29573  0.17191  1.0000
  H   H647      1.0  0.84407  0.17895  0.03133  1.0000
  C   C385      1.0  0.49154  0.22719  0.39653  1.0000
  C   C386      1.0  0.63943  0.16425  0.40794  1.0000
  C   C387      1.0  0.69566  0.28914  0.14935  1.0000
  H   H648      1.0  0.62614  0.16660  0.38669  1.0000
  H   H649      1.0  0.49977  0.15893  0.36387  1.0000
  H   H650      1.0  0.53235  0.23193  0.22015  1.0000
  H   H651      1.0  0.62027  0.19766  0.47047  1.0000
  H   H652      1.0  0.68923  0.00942  0.07111  1.0000
  H   H653      1.0  0.73281  0.27181  0.10792  1.0000
  H   H654      1.0  0.69947  0.29168  0.12032  1.0000
  C   C388      1.0  0.85438  0.19169  0.01632  1.0000
  H   H655      1.0  0.65433  0.22966  0.46199  1.0000
  H   H656      1.0  0.90897  0.25569  0.06378  1.0000
  C   C389      1.0  0.57089  0.21339  0.48491  1.0000
  H   H657      1.0  0.60784  0.04677  0.15937  1.0000
  C   C390      1.0  0.50503  0.17878  0.46677  1.0000
  H   H658      1.0  0.67240  0.20458  0.46284  1.0000
  H   H659      1.0  0.57950  0.14667  0.47406  1.0000
  H   H660      1.0  0.94297  0.22729  0.99235  1.0000
  H   H661      1.0  0.48040  0.18711  0.22090  1.0000
  C   C391      1.0  0.50215  0.20247  0.44761  1.0000
  C   C392      1.0  0.63814  0.19846  0.48047  1.0000
  H   H662      1.0  0.47958  0.20455  0.18204  1.0000
  H   H663      1.0  0.60525  0.28590  0.48348  1.0000
  H   H664      1.0  0.71817  0.31074  0.22551  1.0000
  H   H665      1.0  0.86102  0.30489  0.61816  1.0000
  H   H666      1.0  0.60274  0.25919  0.50843  1.0000
  H   H667      1.0  0.57108  0.28360  0.62647  1.0000
  H   H668      1.0  0.67773  0.25918  0.64706  1.0000
  N   N28       1.0  0.61001  0.28845  0.57676  1.0000
  C   C393      1.0  0.67200  0.29494  0.66356  1.0000
  Fe  Fe56      1.0  0.63756  0.12056  0.93802  1.0000
  S   S109      1.0  0.61157  0.13914  0.89946  1.0000
  S   S110      1.0  0.67007  0.09941  0.92411  1.0000
  Fe  Fe57      1.0  0.58324  0.18622  0.69613  1.0000
  S   S111      1.0  0.56576  0.21700  0.72344  1.0000
  S   S112      1.0  0.60097  0.15676  0.72947  1.0000
  Fe  Fe58      1.0  0.57282  0.20605  0.61955  1.0000
  S   S113      1.0  0.55465  0.23767  0.64417  1.0000
  S   S114      1.0  0.57418  0.21349  0.55856  1.0000
  Fe  Fe59      1.0  0.58428  0.23840  0.68265  1.0000
  S   S115      1.0  0.59916  0.27335  0.69670  1.0000
  Fe  Fe60      1.0  0.53764  0.21339  0.68213  1.0000
  S   S116      1.0  0.50012  0.22127  0.69991  1.0000
  S   S117      1.0  0.60347  0.20800  0.65701  1.0000
  S   S118      1.0  0.55401  0.18132  0.65615  1.0000
  H   H669      1.0  0.69687  0.21154  0.83224  1.0000
  H   H670      1.0  0.72060  0.20067  0.88543  1.0000
  C   C394      1.0  0.66133  0.18271  0.82274  1.0000
  C   C395      1.0  0.59873  0.29121  0.54054  1.0000
  H   H671      1.0  0.54833  0.20283  0.79823  1.0000
  H   H672      1.0  0.64891  0.21217  0.89910  1.0000
  Fe  Fe61      1.0  0.81721  0.28359  0.93498  1.0000
  H   H673      1.0  0.63320  0.19996  0.79329  1.0000
  S   S119      1.0  0.83584  0.24829  0.94057  1.0000
  H   H674      1.0  0.56857  0.23208  0.48777  1.0000
  H   H675      1.0  0.52116  0.13884  0.71805  1.0000
  H   H676      1.0  0.64477  0.19163  0.93306  1.0000
  Fe  Fe62      1.0  0.66250  0.07750  0.97346  1.0000
  H   H677      1.0  0.70682  0.13018  0.83624  1.0000
  H   H678      1.0  0.83115  0.19504  0.95557  1.0000
  H   H679      1.0  0.64262  0.29255  0.60343  1.0000
  H   H680      1.0  0.62871  0.18938  0.89213  1.0000
  C   C396      1.0  0.57359  0.19948  0.51586  1.0000
  C   C397      1.0  0.57642  0.17533  0.51167  1.0000
  H   H681      1.0  0.53436  0.15219  0.82002  1.0000
  H   H682      1.0  0.57854  0.16437  0.53513  1.0000
  H   H683      1.0  0.76206  0.29622  0.82855  1.0000
  H   H684      1.0  0.69620  0.20668  0.91538  1.0000
  H   H685      1.0  0.48374  0.14250  0.83456  1.0000
  H   H686      1.0  0.62019  0.22797  0.58864  1.0000
  H   H687      1.0  0.48739  0.18061  0.65734  1.0000
  H   H688      1.0  0.67378  0.22153  0.85986  1.0000
  H   H689      1.0  0.81058  0.15852  0.95236  1.0000
  C   C398      1.0  0.64377  0.26466  0.67075  1.0000
  C   C399      1.0  0.62786  0.28082  0.68604  1.0000
  S   S120      1.0  0.84328  0.30165  0.96965  1.0000
  H   H690      1.0  0.53168  0.18053  0.73246  1.0000
  H   H691      1.0  0.80287  0.30401  0.65221  1.0000
  H   H692      1.0  0.63905  0.24680  0.66706  1.0000
  C   C400      1.0  0.57243  0.30032  0.61201  1.0000
  H   H693      1.0  0.50768  0.14559  0.86487  1.0000
  C   C401      1.0  0.87804  0.19960  0.96355  1.0000
  C   C402      1.0  0.69725  0.16635  0.84825  1.0000
  H   H694      1.0  0.51574  0.13378  0.79824  1.0000
  C   C403      1.0  0.70408  0.21090  0.88907  1.0000
  C   C404      1.0  0.88444  0.14492  0.95490  1.0000
  C   C405      1.0  0.61027  0.14437  0.85208  1.0000
  C   C406      1.0  0.62113  0.12944  0.82680  1.0000
  C   C407      1.0  0.61826  0.13361  0.78956  1.0000
  C   C408      1.0  0.60489  0.15296  0.77690  1.0000
  C   C409      1.0  0.59473  0.16831  0.80222  1.0000
  C   C410      1.0  0.59708  0.16383  0.83940  1.0000
  H   H695      1.0  0.63123  0.11433  0.83590  1.0000
  H   H696      1.0  0.62630  0.12160  0.77040  1.0000
  H   H697      1.0  0.58504  0.18361  0.79313  1.0000
  H   H698      1.0  0.58867  0.17561  0.85855  1.0000
  H   H699      1.0  0.54095  0.12887  0.75323  1.0000
  H   H700      1.0  0.60729  0.30607  0.62826  1.0000
  C   C411      1.0  0.66571  0.27171  0.65954  1.0000
  H   H701      1.0  0.92586  0.29928  0.97110  1.0000
  H   H702      1.0  0.62836  0.24408  0.55031  1.0000
  C   C412      1.0  0.83232  0.30085  0.68731  1.0000
  C   C413      1.0  0.68737  0.20745  0.85747  1.0000
  C   C414      1.0  0.51648  0.15180  0.80896  1.0000
  C   C415      1.0  0.77592  0.30702  0.81980  1.0000
  H   H703      1.0  0.82787  0.28348  0.69778  1.0000
  H   H704      1.0  0.49266  0.17087  0.73011  1.0000
  H   H705      1.0  0.60762  0.26396  0.62085  1.0000
  C   C416      1.0  0.53309  0.16689  0.75368  1.0000
  Fe  Fe63      1.0  0.86087  0.26603  0.97794  1.0000
  C   C417      1.0  0.60734  0.26406  0.59101  1.0000
  H   H706      1.0  0.84608  0.17351  0.93000  1.0000
  S   S121      1.0  0.65619  0.14564  0.97291  1.0000
  H   H707      1.0  0.64264  0.24808  0.59291  1.0000
  H   H708      1.0  0.55130  0.14409  0.71538  1.0000
  H   H709      1.0  0.89439  0.21139  0.91459  1.0000
  C   C418      1.0  0.63953  0.99929  0.98001  1.0000
  H   H710      1.0  0.52875  0.21918  0.82618  1.0000
  H   H711      1.0  0.88692  0.18163  0.91210  1.0000
  S   S122      1.0  0.79689  0.29322  0.88334  1.0000
  C   C419      1.0  0.53641  0.14319  0.73429  1.0000
  Fe  Fe64      1.0  0.68844  0.12404  0.96096  1.0000
  C   C420      1.0  0.53261  0.20147  0.81510  1.0000
  H   H712      1.0  0.50986  0.20647  0.76997  1.0000
  H   H713      1.0  0.83800  0.29873  0.56593  1.0000
  C   C421      1.0  0.51170  0.19410  0.79285  1.0000
  N   N29       1.0  0.51272  0.16931  0.77923  1.0000
  C   C422      1.0  0.76920  0.19190  0.95046  1.0000
  H   H714      1.0  0.65017  0.16747  0.82482  1.0000
  C   C423      1.0  0.60962  0.27698  0.50916  1.0000
  H   H715      1.0  0.50266  0.18146  0.49615  1.0000
  H   H716      1.0  0.70911  0.16551  0.87165  1.0000
  H   H717      1.0  0.67150  0.18003  0.79740  1.0000
  C   C424      1.0  0.69070  0.14096  0.84115  1.0000
  H   H718      1.0  0.65663  0.15989  0.88485  1.0000
  C   C425      1.0  0.66507  0.17675  0.88870  1.0000
  C   C426      1.0  0.73891  0.16333  0.95850  1.0000
  H   H719      1.0  0.63635  0.20850  0.50592  1.0000
  C   C427      1.0  0.49111  0.16442  0.75819  1.0000
  C   C428      1.0  0.59778  0.30534  0.60238  1.0000
  C   C429      1.0  0.63524  0.29431  0.57603  1.0000
  H   H720      1.0  0.67757  0.17278  0.91075  1.0000
  C   C430      1.0  0.75325  0.17639  0.93606  1.0000
  N   N30       1.0  0.67729  0.18371  0.85470  1.0000
  H   H721      1.0  0.67967  0.13927  0.81709  1.0000
  H   H722      1.0  0.62544  0.01223  0.97872  1.0000
  H   H723      1.0  0.70802  0.17181  0.82503  1.0000
  H   H724      1.0  0.59009  0.25752  0.58384  1.0000
  H   H725      1.0  0.63403  0.20905  0.83893  1.0000
  C   C431      1.0  0.64579  0.19358  0.90343  1.0000
  H   H726      1.0  0.85146  0.30154  0.68750  1.0000
  C   C432      1.0  0.93847  0.28535  0.97652  1.0000
  H   H727      1.0  0.90168  0.15029  0.94533  1.0000
  H   H728      1.0  0.64595  0.28197  0.55943  1.0000
  H   H729      1.0  0.70864  0.22948  0.89019  1.0000
  H   H730      1.0  0.53621  0.18977  0.83821  1.0000
  H   H731      1.0  0.65483  0.21931  0.80646  1.0000
  H   H732      1.0  0.96777  0.30773  0.97305  1.0000
  H   H733      1.0  0.68215  0.13325  0.86478  1.0000
  C   C433      1.0  0.62582  0.24526  0.57962  1.0000
  C   C434      1.0  0.84159  0.17836  0.95804  1.0000
  H   H734      1.0  0.54967  0.16960  0.76769  1.0000
  C   C435      1.0  0.96246  0.29013  0.97751  1.0000
  H   H735      1.0  0.62874  0.27582  0.50959  1.0000
  H   H736      1.0  0.58045  0.28588  0.54195  1.0000
  C   C436      1.0  0.63440  0.30390  0.69108  1.0000
  C   C437      1.0  0.64505  0.20414  0.81559  1.0000
  H   H737      1.0  0.82713  0.28766  0.63460  1.0000
  S   S123      1.0  0.71969  0.14335  0.93857  1.0000
  H   H738      1.0  0.78011  0.20163  0.93273  1.0000
  H   H739      1.0  0.64488  0.18056  0.48685  1.0000
  H   H740      1.0  0.75218  0.17432  0.90727  1.0000
  H   H741      1.0  0.86483  0.20485  0.90867  1.0000
  C   C438      1.0  0.88103  0.19890  0.92237  1.0000
  H   H742      1.0  0.87210  0.14563  0.93235  1.0000
  H   H743      1.0  0.80985  0.28917  0.58018  1.0000
  S   S124      1.0  0.62864  0.09763  0.98571  1.0000
  H   H744      1.0  0.48887  0.14533  0.75571  1.0000
  S   S125      1.0  0.69859  0.30328  0.64469  1.0000
  H   H745      1.0  0.87119  0.21755  0.96956  1.0000
  S   S126      1.0  0.79325  0.27761  0.98203  1.0000
  C   C439      1.0  0.82210  0.30397  0.64929  1.0000
  H   H746      1.0  0.88588  0.12623  0.96255  1.0000
  H   H747      1.0  0.69817  0.99413  0.98070  1.0000
  H   H748      1.0  0.56097  0.30066  0.58828  1.0000
  S   S127      1.0  0.90056  0.25540  0.98171  1.0000
  H   H749      1.0  0.81220  0.30811  0.54264  1.0000
  C   C440      1.0  0.68034  0.98905  0.98109  1.0000
  C   C441      1.0  0.82521  0.15962  0.97146  1.0000
  C   C442      1.0  0.66247  0.00654  0.97927  1.0000
  H   H750      1.0  0.83394  0.14210  0.97250  1.0000
  S   S128      1.0  0.66969  0.03698  0.97737  1.0000
  C   C443      1.0  0.49906  0.15289  0.84051  1.0000
  C   C444      1.0  0.81950  0.30403  0.56959  1.0000
  H   H751      1.0  0.49326  0.17074  0.84830  1.0000
  H   H752      1.0  0.49617  0.19801  0.80971  1.0000
  H   H753      1.0  0.89576  0.19859  0.97527  1.0000
  C   C445      1.0  0.93096  0.26265  0.98190  1.0000
  C   C446      1.0  0.79560  0.30884  0.84172  1.0000
  N   N31       1.0  0.86279  0.18188  0.98066  1.0000
  H   H754      1.0  0.59703  0.30981  0.53224  1.0000
  Fe  Fe65      1.0  0.75038  0.58611  0.36136  1.0000
  S   S129      1.0  0.71245  0.58033  0.36676  1.0000
  S   S130      1.0  0.77225  0.58223  0.41250  1.0000
  Fe  Fe66      1.0  0.74722  0.59349  0.27777  1.0000
  S   S131      1.0  0.70877  0.58780  0.28012  1.0000
  S   S132      1.0  0.75803  0.59838  0.21808  1.0000
  Fe  Fe67      1.0  0.70787  0.61071  0.32893  1.0000
  H   H755      1.0  0.75819  0.60013  0.14069  1.0000
  Fe  Fe68      1.0  0.71746  0.55787  0.31746  1.0000
  S   S133      1.0  0.70025  0.52302  0.31067  1.0000
  S   S134      1.0  0.74590  0.61778  0.32556  1.0000
  S   S135      1.0  0.75575  0.56216  0.31315  1.0000
  Fe  Fe69      1.0  0.74144  0.34447  0.34444  1.0000
  S   S136      1.0  0.71411  0.37151  0.32875  1.0000
  S   S137      1.0  0.73881  0.33109  0.40229  1.0000
  Fe  Fe70      1.0  0.75866  0.33875  0.26437  1.0000
  S   S138      1.0  0.73264  0.36599  0.24515  1.0000
  H   H756      1.0  0.69632  0.37881  0.45411  1.0000
  Fe  Fe71      1.0  0.74198  0.38657  0.29448  1.0000
  S   S139      1.0  0.75403  0.42395  0.29867  1.0000
  Fe  Fe72      1.0  0.70750  0.34817  0.28173  1.0000
  S   S140      1.0  0.81103  0.32035  0.06020  1.0000
  S   S141      1.0  0.76986  0.36017  0.31195  1.0000
  S   S142      1.0  0.73303  0.32027  0.29905  1.0000
  C   C447      1.0  0.71526  0.49543  0.30862  1.0000
  C   C448      1.0  0.73903  0.49293  0.31519  1.0000
  C   C449      1.0  0.75054  0.47091  0.31196  1.0000
  C   C450      1.0  0.73841  0.45109  0.30253  1.0000
  C   C451      1.0  0.71455  0.45348  0.29660  1.0000
  C   C452      1.0  0.70306  0.47557  0.29962  1.0000
  H   H757      1.0  0.74856  0.50795  0.32280  1.0000
  H   H758      1.0  0.76897  0.46920  0.31690  1.0000
  H   H759      1.0  0.70498  0.43838  0.28940  1.0000
  H   H760      1.0  0.68463  0.47730  0.29463  1.0000
  C   C453      1.0  0.79161  0.33781  0.12317  1.0000
  C   C454      1.0  0.78489  0.33719  0.15973  1.0000
  C   C455      1.0  0.87895  0.33125  0.04941  1.0000
  H   H761      1.0  0.78916  0.35385  0.10822  1.0000
  H   H762      1.0  0.77732  0.35263  0.17253  1.0000
  H   H763      1.0  0.87221  0.34066  0.13771  1.0000
  C   C456      1.0  0.74912  0.34109  0.44428  1.0000
  H   H764      1.0  0.79253  0.37036  0.48366  1.0000
  H   H765      1.0  0.77903  0.35784  0.42350  1.0000
  C   C457      1.0  0.90912  0.32268  0.09566  1.0000
  C   C458      1.0  0.70394  0.33950  0.16647  1.0000
  C   C459      1.0  0.76217  0.58884  0.45700  1.0000
  C   C460      1.0  0.69495  0.38521  0.42609  1.0000
  H   H766      1.0  0.96738  0.64138  0.00076  1.0000
  C   C461      1.0  0.80384  0.64298  0.17176  1.0000
  H   H767      1.0  0.67665  0.38350  0.41782  1.0000
  C   C462      1.0  0.77466  0.61485  0.18682  1.0000
  H   H768      1.0  0.77584  0.41016  0.42054  1.0000
  H   H769      1.0  0.70427  0.52858  0.19423  1.0000
  C   C463      1.0  0.77092  0.61209  0.14966  1.0000
  H   H770      1.0  0.68978  0.42137  0.44125  1.0000
  C   C464      1.0  0.66046  0.31175  0.27779  1.0000
  H   H771      1.0  0.74678  0.44636  0.43762  1.0000
  H   H772      1.0  0.70569  0.37361  0.40835  1.0000
  H   H773      1.0  0.77492  0.40222  0.37422  1.0000
  H   H774      1.0  0.71472  0.62765  0.23661  1.0000
  H   H775      1.0  0.87852  0.34909  0.06116  1.0000
  C   C465      1.0  0.77687  0.36079  0.48155  1.0000
  H   H776      1.0  0.69702  0.34020  0.19426  1.0000
  H   H777      1.0  0.89750  0.62548  0.10647  1.0000
  C   C466      1.0  0.68127  0.63671  0.21450  1.0000
  H   H778      1.0  0.76636  0.43122  0.38663  1.0000
  H   H779      1.0  0.73254  0.40782  0.37240  1.0000
  H   H780      1.0  0.73155  0.63847  0.18150  1.0000
  C   C467      1.0  0.72269  0.31985  0.16093  1.0000
  H   H781      1.0  0.71797  0.44961  0.45233  1.0000
  H   H782      1.0  0.71177  0.35652  0.16123  1.0000
  H   H783      1.0  0.73448  0.38620  0.46311  1.0000
  H   H784      1.0  0.74197  0.38556  0.40177  1.0000
  H   H785      1.0  0.75324  0.40932  0.46874  1.0000
  C   C468      1.0  0.76921  0.35378  0.44736  1.0000
  H   H786      1.0  0.69598  0.41669  0.39530  1.0000
  H   H787      1.0  0.84969  0.34295  0.10386  1.0000
  H   H788      1.0  0.65294  0.62535  0.29106  1.0000
  H   H789      1.0  0.90493  0.34046  0.10625  1.0000
  H   H790      1.0  0.79355  0.57550  0.48201  1.0000
  C   C469      1.0  0.74034  0.59951  0.46349  1.0000
  H   H791      1.0  0.72906  0.60372  0.44113  1.0000
  N   N32       1.0  0.88858  0.31358  0.07602  1.0000
  H   H792      1.0  0.73347  0.46963  0.39112  1.0000
  H   H793      1.0  0.73833  0.32490  0.17598  1.0000
  N   N33       1.0  0.72643  0.41582  0.42901  1.0000
  H   H794      1.0  0.72203  0.44451  0.37166  1.0000
  C   C470      1.0  0.76587  0.41280  0.39547  1.0000
  C   C471      1.0  0.72148  0.45533  0.39613  1.0000
  H   H795      1.0  0.70357  0.46297  0.39895  1.0000
  C   C472      1.0  0.70306  0.64351  0.23516  1.0000
  C   C473      1.0  0.74080  0.40485  0.39896  1.0000
  H   H796      1.0  0.78027  0.62222  0.09546  1.0000
  C   C474      1.0  0.89028  0.63403  0.08211  1.0000
  H   H797      1.0  0.63174  0.31343  0.24102  1.0000
  H   H798      1.0  0.68945  0.33803  0.14733  1.0000
  C   C475      1.0  0.79111  0.63062  0.19765  1.0000
  C   C476      1.0  0.89135  0.33270  0.01270  1.0000
  C   C477      1.0  0.78340  0.62470  0.12380  1.0000
  C   C478      1.0  0.73685  0.33561  0.47572  1.0000
  H   H799      1.0  0.89410  0.62197  0.05929  1.0000
  H   H800      1.0  0.91002  0.33573  0.01489  1.0000
  H   H801      1.0  0.72744  0.32053  0.13200  1.0000
  H   H802      1.0  0.67162  0.62417  0.23093  1.0000
  H   H803      1.0  0.93342  0.34238  0.06296  1.0000
  H   H804      1.0  0.71088  0.55857  0.20274  1.0000
  C   C479      1.0  0.78842  0.31677  0.17979  1.0000
  H   H805      1.0  0.68590  0.62761  0.18901  1.0000
  C   C480      1.0  0.70132  0.41096  0.42272  1.0000
  S   S143      1.0  0.67201  0.33810  0.26235  1.0000
  C   C481      1.0  0.72884  0.44181  0.43036  1.0000
  H   H806      1.0  0.72142  0.32565  0.47371  1.0000
  C   C482      1.0  0.80152  0.31797  0.10580  1.0000
  H   H807      1.0  0.86058  0.32768  0.04300  1.0000
  C   C483      1.0  0.85916  0.33105  0.12266  1.0000
  H   H808      1.0  0.93492  0.31165  0.05287  1.0000
  H   H809      1.0  0.79434  0.63304  0.22596  1.0000
  C   C484      1.0  0.73480  0.40546  0.46401  1.0000
  N   N34       1.0  0.75106  0.51747  0.20408  1.0000
  C   C485      1.0  0.77629  0.52080  0.21256  1.0000
  C   C486      1.0  0.74814  0.52190  0.16440  1.0000
  C   C487      1.0  0.74598  0.49244  0.21212  1.0000
  C   C488      1.0  0.73637  0.53396  0.22717  1.0000
  C   C489      1.0  0.78426  0.51381  0.25070  1.0000
  C   C490      1.0  0.75420  0.54647  0.15155  1.0000
  C   C491      1.0  0.72111  0.48495  0.20536  1.0000
  C   C492      1.0  0.71161  0.54061  0.21379  1.0000
  H   H810      1.0  0.78780  0.51082  0.19336  1.0000
  H   H811      1.0  0.78062  0.53941  0.20941  1.0000
  H   H812      1.0  0.73033  0.51898  0.15523  1.0000
  H   H813      1.0  0.75913  0.50914  0.14859  1.0000
  H   H814      1.0  0.75796  0.48042  0.19663  1.0000
  H   H815      1.0  0.74905  0.48835  0.24085  1.0000
  H   H816      1.0  0.73478  0.52688  0.25479  1.0000
  H   H817      1.0  0.74510  0.55073  0.23051  1.0000
  H   H818      1.0  0.80165  0.52070  0.25563  1.0000
  H   H819      1.0  0.77249  0.52113  0.27173  1.0000
  H   H820      1.0  0.78607  0.49460  0.25372  1.0000
  H   H821      1.0  0.77317  0.54884  0.15176  1.0000
  H   H822      1.0  0.74847  0.54890  0.12333  1.0000
  H   H823      1.0  0.74544  0.56041  0.16777  1.0000
  H   H824      1.0  0.71562  0.48737  0.17714  1.0000
  H   H825      1.0  0.70862  0.49382  0.22411  1.0000
  H   H826      1.0  0.72030  0.46603  0.21124  1.0000
  H   H827      1.0  0.69952  0.54115  0.23711  1.0000
  C   C493      1.0  0.64785  0.64319  0.29754  1.0000
  C   C494      1.0  0.93204  0.32465  0.07444  1.0000
  S   S144      1.0  0.78056  0.31488  0.22625  1.0000
  C   C495      1.0  0.80017  0.64015  0.13458  1.0000
  H   H828      1.0  0.84619  0.32542  0.14269  1.0000
  H   H829      1.0  0.56463  0.63330  0.43013  1.0000
  H   H830      1.0  0.94686  0.32147  0.09295  1.0000
  H   H831      1.0  0.88882  0.31690  0.99625  1.0000
  H   H832      1.0  0.88345  0.34754  0.99734  1.0000
  H   H833      1.0  0.87111  0.63582  0.08435  1.0000
  H   H834      1.0  0.61732  0.64388  0.26418  1.0000
  S   S145      1.0  0.68599  0.64339  0.34284  1.0000
  H   H835      1.0  0.91300  0.31231  0.12034  1.0000
  H   H836      1.0  0.77610  0.59476  0.80576  1.0000
  Fe  Fe73      1.0  0.76014  0.60659  0.71138  1.0000
  S   S146      1.0  0.73514  0.58103  0.73280  1.0000
  H   H837      1.0  0.69058  0.61678  0.62117  1.0000
  Fe  Fe74      1.0  0.74411  0.59817  0.63114  1.0000
  S   S147      1.0  0.71835  0.57248  0.64986  1.0000
  S   S148      1.0  0.73753  0.60881  0.57225  1.0000
  Fe  Fe75      1.0  0.70973  0.59811  0.69415  1.0000
  S   S149      1.0  0.67247  0.60951  0.70756  1.0000
  Fe  Fe76      1.0  0.74648  0.55821  0.68589  1.0000
  S   S150      1.0  0.75983  0.52016  0.68755  1.0000
  S   S151      1.0  0.73409  0.62437  0.67425  1.0000
  S   S152      1.0  0.77307  0.58307  0.66580  1.0000
  Fe  Fe77      1.0  0.76154  0.35269  0.69114  1.0000
  S   S153      1.0  0.72339  0.35866  0.70199  1.0000
  H   H838      1.0  0.65973  0.32047  0.56182  1.0000
  Fe  Fe78      1.0  0.75504  0.36047  0.60851  1.0000
  S   S154      1.0  0.71669  0.36689  0.61447  1.0000
  S   S155      1.0  0.77467  0.36465  0.55544  1.0000
  Fe  Fe79      1.0  0.72557  0.38861  0.66267  1.0000
  S   S156      1.0  0.70820  0.42452  0.67227  1.0000
  Fe  Fe80      1.0  0.71817  0.33647  0.65281  1.0000
  H   H839      1.0  0.72819  0.40295  0.52126  1.0000
  S   S157      1.0  0.76383  0.38392  0.65460  1.0000
  S   S158      1.0  0.75642  0.32886  0.64414  1.0000
  C   C496      1.0  0.76443  0.35544  0.51294  1.0000
  C   C497      1.0  0.74430  0.34291  0.50978  1.0000
  H   H840      1.0  0.80351  0.34611  0.65741  1.0000
  S   S159      1.0  0.78041  0.63044  0.74905  1.0000
  H   H841      1.0  0.73460  0.33855  0.53363  1.0000
  H   H842      1.0  0.62626  0.63066  0.70597  1.0000
  H   H843      1.0  0.81978  0.34093  0.57709  1.0000
  H   H844      1.0  0.79708  0.32778  0.59942  1.0000
  C   C498      1.0  0.64060  0.31889  0.56258  1.0000
  C   C499      1.0  0.72581  0.54307  0.55435  1.0000
  H   H845      1.0  0.76800  0.41992  0.82379  1.0000
  C   C500      1.0  0.74768  0.60036  0.52844  1.0000
  C   C501      1.0  0.72135  0.41333  0.49814  1.0000
  C   C502      1.0  0.73327  0.60528  0.49885  1.0000
  H   H846      1.0  0.70376  0.44159  0.79772  1.0000
  H   H847      1.0  0.71650  0.61369  0.50323  1.0000
  C   C503      1.0  0.74486  0.49411  0.68114  1.0000
  C   C504      1.0  0.72066  0.49364  0.68171  1.0000
  C   C505      1.0  0.70968  0.47225  0.67835  1.0000
  C   C506      1.0  0.72270  0.45121  0.67370  1.0000
  C   C507      1.0  0.74685  0.45185  0.67170  1.0000
  C   C508      1.0  0.75784  0.47312  0.67591  1.0000
  H   H848      1.0  0.71044  0.50963  0.68582  1.0000
  H   H849      1.0  0.69098  0.47197  0.67992  1.0000
  H   H850      1.0  0.75710  0.43590  0.66770  1.0000
  H   H851      1.0  0.77657  0.47331  0.67526  1.0000
  H   H852      1.0  0.63381  0.33267  0.58116  1.0000
  C   C509      1.0  0.78929  0.61009  0.85446  1.0000
  C   C510      1.0  0.78336  0.61002  0.81759  1.0000
  H   H853      1.0  0.78357  0.54027  0.61470  1.0000
  H   H854      1.0  0.78655  0.59476  0.87051  1.0000
  H   H855      1.0  0.76213  0.50742  0.60393  1.0000
  H   H856      1.0  0.67774  0.59304  0.59940  1.0000
  H   H857      1.0  0.86435  0.32881  0.64770  1.0000
  H   H858      1.0  0.72782  0.36610  0.82289  1.0000
  H   H859      1.0  0.69352  0.53375  0.52709  1.0000
  H   H860      1.0  0.83149  0.34618  0.67687  1.0000
  C   C511      1.0  0.72949  0.47759  0.57896  1.0000
  C   C512      1.0  0.71254  0.61766  0.81132  1.0000
  H   H861      1.0  0.88206  0.61152  0.92443  1.0000
  H   H862      1.0  0.91302  0.63119  0.90437  1.0000
  C   C513      1.0  0.77375  0.49583  0.53505  1.0000
  H   H863      1.0  0.62221  0.31650  0.70301  1.0000
  H   H864      1.0  0.68885  0.62123  0.55452  1.0000
  H   H865      1.0  0.70020  0.63666  0.76490  1.0000
  C   C514      1.0  0.81145  0.33479  0.79669  1.0000
  C   C515      1.0  0.67519  0.61187  0.60571  1.0000
  C   C516      1.0  0.77147  0.54219  0.59170  1.0000
  H   H866      1.0  0.74145  0.47684  0.60204  1.0000
  H   H867      1.0  0.63416  0.32213  0.53499  1.0000
  H   H868      1.0  0.81764  0.37313  0.60827  1.0000
  H   H869      1.0  0.74158  0.52875  0.61798  1.0000
  H   H870      1.0  0.78190  0.54053  0.56673  1.0000
  C   C517      1.0  0.75300  0.52364  0.59487  1.0000
  H   H871      1.0  0.73824  0.55681  0.54883  1.0000
  S   S160      1.0  0.80663  0.62837  0.91734  1.0000
  H   H872      1.0  0.73757  0.46886  0.55518  1.0000
  H   H873      1.0  0.70313  0.56208  0.51743  1.0000
  H   H874      1.0  0.65838  0.61799  0.55490  1.0000
  H   H875      1.0  0.76346  0.56004  0.59347  1.0000
  H   H876      1.0  0.59739  0.32338  0.59154  1.0000
  H   H877      1.0  0.82463  0.31374  0.70657  1.0000
  H   H878      1.0  0.71452  0.46713  0.58690  1.0000
  C   C518      1.0  0.81599  0.32567  0.59386  1.0000
  H   H879      1.0  0.82536  0.34552  0.78796  1.0000
  C   C519      1.0  0.86692  0.64285  0.89808  1.0000
  N   N35       1.0  0.82935  0.32513  0.62858  1.0000
  H   H880      1.0  0.78090  0.58562  0.54437  1.0000
  C   C520      1.0  0.87054  0.61618  0.90158  1.0000
  H   H881      1.0  0.77482  0.48329  0.51232  1.0000
  C   C521      1.0  0.77400  0.31892  0.78663  1.0000
  C   C522      1.0  0.76937  0.58925  0.52213  1.0000
  H   H882      1.0  0.72839  0.61560  0.82791  1.0000
  H   H883      1.0  0.78394  0.42665  0.72026  1.0000
  H   H884      1.0  0.74427  0.46102  0.83029  1.0000
  H   H885      1.0  0.77314  0.38479  0.79385  1.0000
  H   H886      1.0  0.70859  0.43829  0.74955  1.0000
  H   H887      1.0  0.85363  0.60841  0.90746  1.0000
  C   C523      1.0  0.78730  0.62943  0.79601  1.0000
  C   C524      1.0  0.81336  0.32289  0.82987  1.0000
  H   H888      1.0  0.74688  0.40432  0.72664  1.0000
  H   H889      1.0  0.73856  0.42239  0.83802  1.0000
  H   H890      1.0  0.73867  0.45721  0.78398  1.0000
  H   H891      1.0  0.71329  0.39411  0.76065  1.0000
  H   H892      1.0  0.71051  0.40003  0.80741  1.0000
  H   H893      1.0  0.79025  0.50511  0.53416  1.0000
  H   H894      1.0  0.66099  0.32892  0.68295  1.0000
  H   H895      1.0  0.71154  0.60138  0.79547  1.0000
  H   H896      1.0  0.78729  0.42572  0.76798  1.0000
  H   H897      1.0  0.75058  0.37261  0.76876  1.0000
  H   H898      1.0  0.86909  0.32562  0.56785  1.0000
  H   H899      1.0  0.76801  0.45670  0.80059  1.0000
  C   C525      1.0  0.75280  0.41613  0.74815  1.0000
  C   C526      1.0  0.70922  0.54372  0.52198  1.0000
  C   C527      1.0  0.75013  0.45115  0.80599  1.0000
  H   H900      1.0  0.70947  0.50866  0.59316  1.0000
  C   C528      1.0  0.75394  0.38457  0.79156  1.0000
  H   H901      1.0  0.68497  0.42513  0.77090  1.0000
  H   H902      1.0  0.75703  0.35699  0.83149  1.0000
  H   H903      1.0  0.88218  0.34409  0.59909  1.0000
  H   H904      1.0  0.74628  0.38390  0.85009  1.0000
  C   C529      1.0  0.82663  0.37027  0.63419  1.0000
  C   C530      1.0  0.72057  0.50254  0.57009  1.0000
  H   H905      1.0  0.78746  0.39915  0.74194  1.0000
  H   H906      1.0  0.74572  0.43349  0.74019  1.0000
  N   N36       1.0  0.73856  0.52011  0.56185  1.0000
  C   C531      1.0  0.70337  0.42948  0.77456  1.0000
  H   H907      1.0  0.84540  0.37327  0.63171  1.0000
  S   S161      1.0  0.79040  0.34846  0.73319  1.0000
  C   C532      1.0  0.71771  0.40682  0.78193  1.0000
  C   C533      1.0  0.74553  0.37257  0.82609  1.0000
  C   C534      1.0  0.77941  0.41691  0.74491  1.0000
  H   H908      1.0  0.71563  0.54918  0.57832  1.0000
  C   C535      1.0  0.79179  0.33290  0.77480  1.0000
  H   H909      1.0  0.76013  0.52895  0.51661  1.0000
  N   N37       1.0  0.74364  0.40870  0.78420  1.0000
  C   C536      1.0  0.75285  0.51316  0.52918  1.0000
  C   C537      1.0  0.79873  0.62972  0.87075  1.0000
  H   H910      1.0  0.70873  0.50054  0.54701  1.0000
  C   C538      1.0  0.75014  0.42472  0.81438  1.0000
  C   C539      1.0  0.66227  0.63867  0.70057  1.0000
  H   H911      1.0  0.65950  0.61373  0.62298  1.0000
  C   C540      1.0  0.87211  0.64221  0.81936  1.0000
  H   H912      1.0  0.81944  0.38391  0.65278  1.0000
  H   H913      1.0  0.86966  0.62316  0.81784  1.0000
  C   C541      1.0  0.67279  0.62561  0.57016  1.0000
  H   H914      1.0  0.85448  0.35249  0.58209  1.0000
  H   H915      1.0  0.87748  0.60794  0.87666  1.0000
  C   C542      1.0  0.71418  0.63829  0.78519  1.0000
  C   C543      1.0  0.82230  0.34629  0.65071  1.0000
  H   H916      1.0  0.69674  0.61862  0.82827  1.0000
  H   H917      1.0  0.77321  0.48535  0.55984  1.0000
  C   C544      1.0  0.85528  0.32341  0.62291  1.0000
  H   H918      1.0  0.82860  0.32452  0.84626  1.0000
  H   H919      1.0  0.73079  0.63490  0.77049  1.0000
  H   H920      1.0  0.72400  0.43185  0.50465  1.0000
  C   C545      1.0  0.86522  0.33730  0.59110  1.0000
  H   H921      1.0  0.74165  0.50562  0.50828  1.0000
  H   H922      1.0  0.75877  0.31717  0.77025  1.0000
  H   H923      1.0  0.70261  0.41017  0.49648  1.0000
  H   H924      1.0  0.90386  0.63119  0.84468  1.0000
  H   H925      1.0  0.56559  0.31405  0.63074  1.0000
  H   H926      1.0  0.71791  0.53777  0.49677  1.0000
  H   H927      1.0  0.68441  0.63852  0.49951  1.0000
  C   C546      1.0  0.77656  0.58360  0.48663  1.0000
  H   H928      1.0  0.63461  0.64298  0.59246  1.0000
  H   H929      1.0  0.71843  0.64344  0.86986  1.0000
  C   C547      1.0  0.65637  0.31098  0.67981  1.0000
  Fe  Fe81      1.0  0.81968  0.66481  0.04245  1.0000
  S   S162      1.0  0.83255  0.70096  0.03189  1.0000
  C   C548      1.0  0.55738  0.84713  0.23853  1.0000
  Fe  Fe82      1.0  0.63546  0.84175  0.02534  1.0000
  S   S163      1.0  0.61308  0.82174  0.06594  1.0000
  S   S164      1.0  0.66499  0.86522  0.03591  1.0000
  Fe  Fe83      1.0  0.58230  0.72574  0.28984  1.0000
  S   S165      1.0  0.60839  0.75131  0.30618  1.0000
  S   S166      1.0  0.59436  0.68899  0.27385  1.0000
  Fe  Fe84      1.0  0.54142  0.76058  0.30229  1.0000
  S   S167      1.0  0.56573  0.78828  0.31990  1.0000
  S   S168      1.0  0.50328  0.77344  0.30513  1.0000
  Fe  Fe85      1.0  0.58787  0.77697  0.27205  1.0000
  S   S169      1.0  0.60605  0.80356  0.23622  1.0000
  Fe  Fe86      1.0  0.58386  0.75988  0.35227  1.0000
  S   S170      1.0  0.60056  0.75878  0.40830  1.0000
  S   S171      1.0  0.56275  0.75084  0.25297  1.0000
  S   S172      1.0  0.55852  0.73292  0.33709  1.0000
  H   H930      1.0  0.61131  0.70525  0.44476  1.0000
  C   C549      1.0  0.75727  0.79429  0.01773  1.0000
  C   C550      1.0  0.51546  0.83631  0.19011  1.0000
  H   H931      1.0  0.55323  0.85090  0.26715  1.0000
  H   H932      1.0  0.92472  0.64937  0.99761  1.0000
  C   C551      1.0  0.61159  0.69520  0.41931  1.0000
  C   C552      1.0  0.62047  0.67664  0.29161  1.0000
  C   C553      1.0  0.63384  0.68907  0.31555  1.0000
  C   C554      1.0  0.65395  0.67861  0.33052  1.0000
  H   H933      1.0  0.91150  0.70459  0.15819  1.0000
  H   H934      1.0  0.61458  0.70855  0.39816  1.0000
  H   H935      1.0  0.62855  0.70663  0.32304  1.0000
  H   H936      1.0  0.66406  0.68839  0.34918  1.0000
  C   C555      1.0  0.56627  0.77210  0.45838  1.0000
  C   C556      1.0  0.58861  0.76253  0.45232  1.0000
  H   H937      1.0  0.64781  0.78607  0.04358  1.0000
  H   H938      1.0  0.55555  0.77727  0.43578  1.0000
  H   H939      1.0  0.52145  0.84014  0.13257  1.0000
  C   C557      1.0  0.67465  0.78938  0.16602  1.0000
  H   H940      1.0  0.55503  0.81050  0.24938  1.0000
  C   C558      1.0  0.61149  0.81710  0.11348  1.0000
  C   C559      1.0  0.62084  0.83229  0.13847  1.0000
  C   C560      1.0  0.61913  0.82775  0.17571  1.0000
  C   C561      1.0  0.60805  0.80801  0.18871  1.0000
  C   C562      1.0  0.59878  0.79278  0.16376  1.0000
  C   C563      1.0  0.60035  0.79740  0.12652  1.0000
  H   H941      1.0  0.62930  0.84762  0.12910  1.0000
  H   H942      1.0  0.62637  0.83972  0.19463  1.0000
  H   H943      1.0  0.59052  0.77734  0.17313  1.0000
  H   H944      1.0  0.59305  0.78547  0.10760  1.0000
  H   H945      1.0  0.57654  0.84749  0.23584  1.0000
  H   H946      1.0  0.55618  0.69261  0.47418  1.0000
  C   C564      1.0  0.71458  0.75539  0.07217  1.0000
  H   H947      1.0  0.72119  0.74954  0.09868  1.0000
  H   H948      1.0  0.58981  0.69286  0.35674  1.0000
  N   N38       1.0  0.58891  0.68353  0.41297  1.0000
  C   C565      1.0  0.63362  0.67901  0.42099  1.0000
  H   H949      1.0  0.89473  0.66343  0.04761  1.0000
  C   C566      1.0  0.52998  0.78396  0.18152  1.0000
  Fe  Fe87      1.0  0.80517  0.70408  0.98883  1.0000
  H   H950      1.0  0.63423  0.66888  0.44634  1.0000
  H   H951      1.0  0.68030  0.66779  0.48471  1.0000
  Fe  Fe88      1.0  0.85697  0.68384  0.99060  1.0000
  H   H952      1.0  0.55104  0.67265  0.36494  1.0000
  C   C567      1.0  0.76939  0.77289  0.01035  1.0000
  C   C568      1.0  0.90976  0.66869  0.13588  1.0000
  H   H953      1.0  0.64913  0.68984  0.42057  1.0000
  C   C569      1.0  0.56384  0.65134  0.44097  1.0000
  H   H954      1.0  0.92797  0.66249  0.13034  1.0000
  C   C570      1.0  0.51854  0.79594  0.21446  1.0000
  C   C571      1.0  0.54943  0.82279  0.22771  1.0000
  H   H955      1.0  0.49966  0.79387  0.21092  1.0000
  H   H956      1.0  0.78568  0.76867  0.02345  1.0000
  H   H957      1.0  0.68109  0.78348  0.19268  1.0000
  H   H958      1.0  0.59362  0.66678  0.46441  1.0000
  C   C572      1.0  0.56466  0.70709  0.46045  1.0000
  C   C573      1.0  0.90148  0.65748  0.07417  1.0000
  H   H959      1.0  0.54432  0.82347  0.15282  1.0000
  H   H960      1.0  0.57377  0.71835  0.40728  1.0000
  H   H961      1.0  0.67348  0.80870  0.16682  1.0000
  H   H962      1.0  0.55235  0.72244  0.46211  1.0000
  H   H963      1.0  0.70001  0.78594  0.04554  1.0000
  H   H964      1.0  0.60426  0.66586  0.36642  1.0000
  H   H965      1.0  0.69759  0.64678  0.26329  1.0000
  H   H966      1.0  0.52354  0.78527  0.23833  1.0000
  H   H967      1.0  0.49859  0.83036  0.17999  1.0000
  C   C574      1.0  0.66100  0.65563  0.32178  1.0000
  H   H968      1.0  0.54936  0.66101  0.42766  1.0000
  H   H969      1.0  0.52573  0.76526  0.18179  1.0000
  H   H970      1.0  0.89417  0.68506  0.18411  1.0000
  C   C575      1.0  0.72310  0.65625  0.18166  1.0000
  C   C576      1.0  0.53197  0.83838  0.15737  1.0000
  C   C577      1.0  0.73958  0.67240  0.16172  1.0000
  N   N39       1.0  0.52386  0.82109  0.22083  1.0000
  H   H971      1.0  0.54910  0.78432  0.18195  1.0000
  H   H972      1.0  0.72955  0.75458  0.05323  1.0000
  H   H973      1.0  0.56964  0.66191  0.33022  1.0000
  C   C578      1.0  0.93632  0.66345  0.99374  1.0000
  N   N40       1.0  0.68409  0.78489  0.09834  1.0000
  C   C579      1.0  0.66467  0.76900  0.08987  1.0000
  C   C580      1.0  0.69157  0.78015  0.13649  1.0000
  C   C581      1.0  0.67545  0.80974  0.09350  1.0000
  H   H974      1.0  0.67013  0.76437  0.03109  1.0000
  H   H975      1.0  0.60014  0.64843  0.42712  1.0000
  C   C582      1.0  0.69236  0.82874  0.10415  1.0000
  H   H976      1.0  0.66947  0.75063  0.09693  1.0000
  H   H977      1.0  0.64909  0.77363  0.10655  1.0000
  H   H978      1.0  0.70887  0.78715  0.14199  1.0000
  H   H979      1.0  0.69412  0.76109  0.14116  1.0000
  H   H980      1.0  0.67094  0.81316  0.06495  1.0000
  H   H981      1.0  0.65886  0.81318  0.10789  1.0000
  S   S173      1.0  0.79139  0.66880  0.00128  1.0000
  C   C583      1.0  0.65621  0.76909  0.05070  1.0000
  H   H982      1.0  0.86558  0.66589  0.12719  1.0000
  H   H983      1.0  0.54984  0.86118  0.22136  1.0000
  H   H984      1.0  0.61964  0.74879  0.47791  1.0000
  H   H985      1.0  0.51200  0.85449  0.19984  1.0000
  H   H986      1.0  0.70166  0.83511  0.08019  1.0000
  H   H987      1.0  0.70552  0.82307  0.12402  1.0000
  H   H988      1.0  0.68244  0.84371  0.11648  1.0000
  N   N41       1.0  0.89756  0.67641  0.10202  1.0000
  H   H989      1.0  0.75228  0.67313  0.29310  1.0000
  C   C584      1.0  0.90710  0.69840  0.08669  1.0000
  C   C585      1.0  0.87172  0.67942  0.10835  1.0000
  C   C586      1.0  0.73614  0.80035  0.00067  1.0000
  C   C587      1.0  0.73497  0.67367  0.28020  1.0000
  C   C588      1.0  0.93363  0.69821  0.08129  1.0000
  C   C589      1.0  0.86220  0.70317  0.12257  1.0000
  C   C590      1.0  0.90990  0.68638  0.16702  1.0000
  H   H990      1.0  0.90168  0.65305  0.14723  1.0000
  H   H991      1.0  0.92543  0.68264  0.18386  1.0000
  H   H992      1.0  0.90280  0.71386  0.10358  1.0000
  H   H993      1.0  0.89883  0.70260  0.06040  1.0000
  C   C591      1.0  0.58771  0.66244  0.43684  1.0000
  N   N42       1.0  0.71605  0.66337  0.21942  1.0000
  C   C592      1.0  0.68499  0.69137  0.24970  1.0000
  S   S174      1.0  0.84495  0.64777  0.00247  1.0000
  H   H994      1.0  0.75753  0.67044  0.17209  1.0000
  H   H995      1.0  0.86217  0.67666  0.08292  1.0000
  H   H996      1.0  0.81673  0.65481  0.18064  1.0000
  H   H997      1.0  0.94015  0.68432  0.06282  1.0000
  H   H998      1.0  0.93832  0.71496  0.06882  1.0000
  Fe  Fe89      1.0  0.68522  0.84229  0.99597  1.0000
  H   H999      1.0  0.86313  0.71683  0.10157  1.0000
  H   H1000     1.0  0.87091  0.70885  0.14719  1.0000
  H   H1001     1.0  0.84353  0.70172  0.12924  1.0000
  H   H1002     1.0  0.92026  0.65326  0.07004  1.0000
  H   H1003     1.0  0.51427  0.84743  0.26075  1.0000
  H   H1004     1.0  0.65701  0.78275  0.16293  1.0000
  H   H1005     1.0  0.71896  0.79190  0.08084  1.0000
  H   H1006     1.0  0.94296  0.69675  0.10717  1.0000
  H   H1007     1.0  0.63540  0.66684  0.39801  1.0000
  C   C593      1.0  0.51134  0.82880  0.25486  1.0000
  H   H1008     1.0  0.66697  0.68688  0.24312  1.0000
  C   C594      1.0  0.70448  0.78063  0.07346  1.0000
  H   H1009     1.0  0.51832  0.81888  0.27848  1.0000
  H   H1010     1.0  0.56009  0.81720  0.20429  1.0000
  H   H1011     1.0  0.74871  0.67982  0.22855  1.0000
  H   H1012     1.0  0.70193  0.74307  0.06189  1.0000
  C   C595      1.0  0.62764  0.65369  0.28251  1.0000
  H   H1013     1.0  0.54168  0.85464  0.15897  1.0000
  H   H1014     1.0  0.55310  0.69709  0.40835  1.0000
  S   S175      1.0  0.72151  0.82758  0.01134  1.0000
  H   H1015     1.0  0.76441  0.80632  0.03662  1.0000
  H   H1016     1.0  0.52300  0.79130  0.15610  1.0000
  C   C596      1.0  0.70162  0.68586  0.21771  1.0000
  C   C597      1.0  0.58875  0.67695  0.37369  1.0000
  H   H1017     1.0  0.73347  0.69092  0.16279  1.0000
  H   H1018     1.0  0.49048  0.72891  0.27293  1.0000
  H   H1019     1.0  0.64271  0.75601  0.04784  1.0000
  S   S176      1.0  0.81740  0.65593  0.10326  1.0000
  H   H1020     1.0  0.71300  0.70090  0.21445  1.0000
  C   C598      1.0  0.56977  0.70161  0.42045  1.0000
  C   C599      1.0  0.73793  0.66627  0.24065  1.0000
  C   C600      1.0  0.96072  0.65891  0.99548  1.0000
  H   H1021     1.0  0.72799  0.69188  0.28253  1.0000
  H   H1022     1.0  0.68413  0.71046  0.25457  1.0000
  H   H1023     1.0  0.72421  0.66184  0.29596  1.0000
  H   H1024     1.0  0.58020  0.71156  0.47576  1.0000
  H   H1025     1.0  0.66934  0.65186  0.20908  1.0000
  H   H1026     1.0  0.68998  0.68319  0.27545  1.0000
  H   H1027     1.0  0.69038  0.68590  0.19349  1.0000
  C   C601      1.0  0.56801  0.66358  0.35988  1.0000
  H   H1028     1.0  0.56824  0.64554  0.37029  1.0000
  H   H1029     1.0  0.74063  0.66720  0.13297  1.0000
  H   H1030     1.0  0.74882  0.64978  0.24015  1.0000
  C   C602      1.0  0.60227  0.75607  0.48222  1.0000
  H   H1031     1.0  0.70766  0.65508  0.16415  1.0000
  H   H1032     1.0  0.47752  0.83552  0.27956  1.0000
  H   H1033     1.0  0.55918  0.64999  0.46987  1.0000
  C   C603      1.0  0.48477  0.82665  0.25520  1.0000
  C   C604      1.0  0.47671  0.75892  0.30171  1.0000
  H   H1034     1.0  0.47989  0.80824  0.25738  1.0000
  C   C605      1.0  0.92708  0.68603  0.98695  1.0000
  H   H1035     1.0  0.47636  0.83499  0.23157  1.0000
  Fe  Fe90      1.0  0.65265  0.88669  0.98789  1.0000
  S   S177      1.0  0.65628  0.81834  0.98748  1.0000
  Fe  Fe91      1.0  0.81733  0.65513  0.96000  1.0000
  S   S178      1.0  0.83043  0.69028  0.94634  1.0000
  H   H1036     1.0  0.74823  0.64911  0.87381  1.0000
  H   H1037     1.0  0.68116  0.70407  0.81354  1.0000
  C   C606      1.0  0.60903  0.85844  0.61402  1.0000
  H   H1038     1.0  0.66961  0.88427  0.82327  1.0000
  H   H1039     1.0  0.87897  0.68696  0.91192  1.0000
  H   H1040     1.0  0.71413  0.69784  0.78154  1.0000
  N   N43       1.0  0.59681  0.83987  0.59370  1.0000
  C   C607      1.0  0.69028  0.66115  0.59068  1.0000
  H   H1041     1.0  0.80886  0.66476  0.86137  1.0000
  H   H1042     1.0  0.66989  0.69129  0.85318  1.0000
  C   C608      1.0  0.73591  0.67739  0.74648  1.0000
  H   H1043     1.0  0.51361  0.80645  0.80577  1.0000
  Fe  Fe92      1.0  0.64464  0.84208  0.94239  1.0000
  S   S179      1.0  0.63706  0.82313  0.88897  1.0000
  S   S180      1.0  0.67517  0.86529  0.94878  1.0000
  Fe  Fe93      1.0  0.57133  0.76270  0.62349  1.0000
  S   S181      1.0  0.57015  0.72474  0.63726  1.0000
  S   S182      1.0  0.56111  0.77646  0.56765  1.0000
  Fe  Fe94      1.0  0.57881  0.77669  0.70424  1.0000
  S   S183      1.0  0.57731  0.73946  0.72228  1.0000
  S   S184      1.0  0.58042  0.80805  0.74273  1.0000
  Fe  Fe95      1.0  0.60009  0.73113  0.67419  1.0000
  S   S185      1.0  0.63613  0.71348  0.67532  1.0000
  Fe  Fe96      1.0  0.54732  0.73688  0.68369  1.0000
  S   S186      1.0  0.51362  0.71927  0.69750  1.0000
  S   S187      1.0  0.60272  0.76874  0.65740  1.0000
  S   S188      1.0  0.54736  0.77450  0.66871  1.0000
  C   C609      1.0  0.57163  0.76923  0.52371  1.0000
  H   H1044     1.0  0.63305  0.87099  0.57210  1.0000
  C   C610      1.0  0.59379  0.75915  0.51766  1.0000
  C   C611      1.0  0.52352  0.78734  0.86963  1.0000
  H   H1045     1.0  0.60464  0.75439  0.54028  1.0000
  H   H1046     1.0  0.52317  0.74713  0.75869  1.0000
  C   C612      1.0  0.51627  0.74744  0.78665  1.0000
  H   H1047     1.0  0.49629  0.76554  0.67452  1.0000
  C   C613      1.0  0.63025  0.81227  0.56854  1.0000
  H   H1048     1.0  0.64469  0.90801  0.78915  1.0000
  C   C614      1.0  0.62982  0.66721  0.69421  1.0000
  C   C615      1.0  0.64531  0.68479  0.68733  1.0000
  C   C616      1.0  0.66921  0.67930  0.68800  1.0000
  H   H1049     1.0  0.89682  0.69102  0.87362  1.0000
  H   H1050     1.0  0.73559  0.66175  0.72914  1.0000
  H   H1051     1.0  0.61136  0.67121  0.69382  1.0000
  H   H1052     1.0  0.68133  0.69284  0.68315  1.0000
  N   N44       1.0  0.63844  0.90936  0.87240  1.0000
  H   H1053     1.0  0.69192  0.65513  0.61896  1.0000
  H   H1054     1.0  0.68305  0.69503  0.61689  1.0000
  H   H1055     1.0  0.65251  0.65407  0.62623  1.0000
  C   C617      1.0  0.62054  0.81887  0.84899  1.0000
  C   C618      1.0  0.62683  0.80020  0.82584  1.0000
  C   C619      1.0  0.61462  0.79637  0.79364  1.0000
  C   C620      1.0  0.59603  0.81138  0.78377  1.0000
  C   C621      1.0  0.58966  0.82998  0.80697  1.0000
  C   C622      1.0  0.60163  0.83358  0.83943  1.0000
  H   H1056     1.0  0.64137  0.78863  0.83280  1.0000
  H   H1057     1.0  0.61988  0.78201  0.77622  1.0000
  H   H1058     1.0  0.57528  0.84169  0.79984  1.0000
  H   H1059     1.0  0.59623  0.84775  0.85698  1.0000
  H   H1060     1.0  0.67549  0.91559  0.86879  1.0000
  C   C623      1.0  0.51101  0.79501  0.75134  1.0000
  C   C624      1.0  0.63474  0.67997  0.59376  1.0000
  H   H1061     1.0  0.61599  0.93094  0.90736  1.0000
  H   H1062     1.0  0.90328  0.66067  0.83024  1.0000
  C   C625      1.0  0.66030  0.91967  0.88631  1.0000
  H   H1063     1.0  0.56458  0.75942  0.84839  1.0000
  C   C626      1.0  0.51723  0.76676  0.84523  1.0000
  C   C627      1.0  0.73119  0.65690  0.86531  1.0000
  N   N45       1.0  0.66892  0.65167  0.57379  1.0000
  H   H1064     1.0  0.75233  0.67720  0.76176  1.0000
  C   C628      1.0  0.89276  0.64752  0.84410  1.0000
  C   C629      1.0  0.68992  0.66660  0.81976  1.0000
  H   H1065     1.0  0.64603  0.69485  0.59723  1.0000
  S   S189      1.0  0.89613  0.69311  0.98490  1.0000
  H   H1066     1.0  0.68963  0.95207  0.98458  1.0000
  H   H1067     1.0  0.64567  0.95274  0.90960  1.0000
  H   H1068     1.0  0.68536  0.69715  0.56857  1.0000
  C   C630      1.0  0.61016  0.81675  0.59578  1.0000
  H   H1069     1.0  0.73249  0.75145  0.94925  1.0000
  H   H1070     1.0  0.92814  0.68165  0.90576  1.0000
  H   H1071     1.0  0.66511  0.91183  0.91275  1.0000
  C   C631      1.0  0.69193  0.68783  0.59255  1.0000
  N   N46       1.0  0.52245  0.76947  0.80581  1.0000
  H   H1072     1.0  0.73699  0.68458  0.82829  1.0000
  H   H1073     1.0  0.90330  0.65361  0.93432  1.0000
  C   C632      1.0  0.50853  0.79027  0.79192  1.0000
  H   H1074     1.0  0.64839  0.65385  0.52553  1.0000
  H   H1075     1.0  0.55575  0.82745  0.66052  1.0000
  C   C633      1.0  0.48164  0.75525  0.68113  1.0000
  C   C634      1.0  0.67762  0.65641  0.69441  1.0000
  H   H1076     1.0  0.57877  0.83800  0.50378  1.0000
  H   H1077     1.0  0.62554  0.68151  0.56775  1.0000
  H   H1078     1.0  0.69879  0.67881  0.75360  1.0000
  H   H1079     1.0  0.55198  0.77163  0.77021  1.0000
  H   H1080     1.0  0.71050  0.69209  0.59387  1.0000
  C   C635      1.0  0.71432  0.67969  0.77108  1.0000
  C   C636      1.0  0.62933  0.92171  0.83940  1.0000
  C   C637      1.0  0.94297  0.70377  0.98172  1.0000
  H   H1081     1.0  0.67562  0.66321  0.80064  1.0000
  H   H1082     1.0  0.56411  0.82267  0.59902  1.0000
  H   H1083     1.0  0.58559  0.90426  0.91880  1.0000
  H   H1084     1.0  0.61688  0.97017  0.98283  1.0000
  C   C638      1.0  0.64786  0.65616  0.59750  1.0000
  C   C639      1.0  0.92985  0.66320  0.89692  1.0000
  C   C640      1.0  0.73336  0.66573  0.82619  1.0000
  H   H1085     1.0  0.84474  0.68271  0.86864  1.0000
  H   H1086     1.0  0.53883  0.79661  0.86028  1.0000
  C   C641      1.0  0.79678  0.64906  0.81229  1.0000
  N   N47       1.0  0.71311  0.66237  0.80151  1.0000
  C   C642      1.0  0.55798  0.77565  0.49382  1.0000
  H   H1087     1.0  0.65750  0.95554  0.86480  1.0000
  C   C643      1.0  0.65947  0.94640  0.89088  1.0000
  H   H1088     1.0  0.48063  0.75554  0.76745  1.0000
  H   H1089     1.0  0.66057  0.68033  0.53707  1.0000
  C   C644      1.0  0.57334  0.83731  0.61124  1.0000
  H   H1090     1.0  0.56193  0.85316  0.60676  1.0000
  H   H1091     1.0  0.58236  0.86496  0.55576  1.0000
  H   H1092     1.0  0.62822  0.87698  0.84810  1.0000
  H   H1093     1.0  0.52811  0.78066  0.89677  1.0000
  H   H1094     1.0  0.85846  0.70975  0.86739  1.0000
  H   H1095     1.0  0.60861  0.85168  0.54114  1.0000
  C   C645      1.0  0.68530  0.69131  0.83518  1.0000
  H   H1096     1.0  0.64532  0.80402  0.58277  1.0000
  S   S190      1.0  0.62156  0.86407  0.97935  1.0000
  H   H1097     1.0  0.57694  0.84851  0.66769  1.0000
  H   H1098     1.0  0.56109  0.82948  0.54042  1.0000
  C   C646      1.0  0.57933  0.83116  0.53167  1.0000
  H   H1099     1.0  0.56177  0.73796  0.81295  1.0000
  H   H1100     1.0  0.64095  0.87355  0.89095  1.0000
  H   H1101     1.0  0.58563  0.81828  0.65975  1.0000
  H   H1102     1.0  0.62118  0.68152  0.61504  1.0000
  C   C647      1.0  0.86114  0.69086  0.86151  1.0000
  H   H1103     1.0  0.70002  0.69733  0.85118  1.0000
  H   H1104     1.0  0.67611  0.95168  0.90261  1.0000
  H   H1105     1.0  0.86462  0.68938  0.83226  1.0000
  H   H1106     1.0  0.79975  0.66430  0.79613  1.0000
  C   C648      1.0  0.48525  0.73208  0.69192  1.0000
  H   H1107     1.0  0.59930  0.88150  0.89312  1.0000
  C   C649      1.0  0.66436  0.66129  0.53669  1.0000
  H   H1108     1.0  0.52876  0.80017  0.74428  1.0000
  C   C650      1.0  0.57329  0.83263  0.65208  1.0000
  H   H1109     1.0  0.94458  0.65525  0.91232  1.0000
  H   H1110     1.0  0.62715  0.90484  0.92738  1.0000
  H   H1111     1.0  0.86286  0.64971  0.92547  1.0000
  C   C651      1.0  0.73945  0.76329  0.96861  1.0000
  H   H1112     1.0  0.52531  0.75036  0.85627  1.0000
  H   H1113     1.0  0.73603  0.69260  0.72810  1.0000
  C   C652      1.0  0.54780  0.77326  0.79930  1.0000
  H   H1114     1.0  0.58279  0.75974  0.80961  1.0000
  H   H1115     1.0  0.66441  0.85629  0.84141  1.0000
  H   H1116     1.0  0.49838  0.76461  0.84961  1.0000
  C   C653      1.0  0.63471  0.97525  0.98240  1.0000
  C   C654      1.0  0.59710  0.90070  0.89522  1.0000
  H   H1117     1.0  0.62240  0.93963  0.84591  1.0000
  H   H1118     1.0  0.50645  0.77990  0.73477  1.0000
  H   H1119     1.0  0.58790  0.90787  0.87141  1.0000
  H   H1120     1.0  0.66439  0.92497  0.81493  1.0000
  C   C655      1.0  0.64610  0.92329  0.80720  1.0000
  H   H1121     1.0  0.55238  0.79135  0.80606  1.0000
  C   C656      1.0  0.66542  0.87505  0.84830  1.0000
  C   C657      1.0  0.88185  0.68127  0.88356  1.0000
  C   C658      1.0  0.49020  0.74265  0.78455  1.0000
  H   H1122     1.0  0.48977  0.78881  0.79820  1.0000
  H   H1123     1.0  0.61398  0.91293  0.82883  1.0000
  H   H1124     1.0  0.50868  0.80019  0.87209  1.0000
  H   H1125     1.0  0.52473  0.73190  0.79964  1.0000
  H   H1126     1.0  0.64164  0.93936  0.79170  1.0000
  C   C659      1.0  0.64218  0.88353  0.86543  1.0000
  C   C660      1.0  0.62036  0.91226  0.90176  1.0000
  H   H1127     1.0  0.69602  0.65260  0.69472  1.0000
  S   S191      1.0  0.64536  0.92730  0.98591  1.0000
  H   H1128     1.0  0.67989  0.87621  0.86762  1.0000
  H   H1129     1.0  0.59805  0.87486  0.61490  1.0000
  C   C661      1.0  0.56492  0.75645  0.81895  1.0000
  H   H1130     1.0  0.49898  0.80975  0.74379  1.0000
  C   C662      1.0  0.68388  0.65686  0.50881  1.0000
  C   C663      1.0  0.80209  0.64936  0.84937  1.0000
  C   C664      1.0  0.65260  0.95775  0.98411  1.0000
  C   C665      1.0  0.63318  0.86468  0.60018  1.0000
  H   H1131     1.0  0.54090  0.78366  0.49809  1.0000
  H   H1132     1.0  0.58812  0.81372  0.53042  1.0000
  H   H1133     1.0  0.85541  0.65119  0.82625  1.0000
  H   H1134     1.0  0.61189  0.85316  0.64246  1.0000
  H   H1135     1.0  0.72757  0.67172  0.88398  1.0000
  C   C666      1.0  0.59245  0.84799  0.55569  1.0000
  C   C667      1.0  0.63832  0.64423  0.70096  1.0000
  H   H1136     1.0  0.85064  0.64607  0.88308  1.0000
  H   H1137     1.0  0.59827  0.80224  0.59180  1.0000
  H   H1138     1.0  0.70111  0.66143  0.51899  1.0000
  H   H1139     1.0  0.70650  0.65376  0.57800  1.0000
  N   N48       1.0  0.88698  0.65533  0.88197  1.0000
  H   H1140     1.0  0.87634  0.64756  0.79149  1.0000
  H   H1141     1.0  0.93463  0.66223  0.86808  1.0000
  H   H1142     1.0  0.63947  0.87917  0.61680  1.0000
  H   H1143     1.0  0.61738  0.81405  0.62319  1.0000
  C   C668      1.0  0.90773  0.65001  0.90561  1.0000
  H   H1144     1.0  0.74932  0.65731  0.81450  1.0000
  H   H1145     1.0  0.64598  0.84995  0.60358  1.0000
  H   H1146     1.0  0.62532  0.79936  0.54799  1.0000
  H   H1147     1.0  0.93641  0.72132  0.97638  1.0000
  H   H1148     1.0  0.71100  0.78883  0.96294  1.0000
  C   C669      1.0  0.67552  0.96501  0.98338  1.0000
  C   C670      1.0  0.96735  0.69922  0.98344  1.0000
  C   C671      1.0  0.72719  0.78454  0.97631  1.0000
  H   H1149     1.0  0.63660  0.82780  0.55485  1.0000
  S   S192      1.0  0.77546  0.73031  0.97363  1.0000
  H   H1150     1.0  0.68722  0.65436  0.84213  1.0000
  C   C672      1.0  0.76067  0.75728  0.98542  1.0000
  H   H1151     1.0  0.48182  0.74176  0.81128  1.0000
  H   H1152     1.0  0.48826  0.72539  0.77169  1.0000
