data_image0
_chemical_formula_structural       FeS2FeS2FeSFeS3FeCSCSC2SCH3CH3C7H4C6H3CH5CHFeCHCH7CH2CH5CHCH6NHC2H2C3H5CHCH4CH3CHSC2N2CS2FeS2FeHSC6H6C4H3C2H3CHNSCH10C5FeCH3CH4CHCSHCH2C2H7C2HNH2C2H5CFeHCS2CS2CHSHC3HSC2HC3HCH2C2H3SH6FeH2FeHC2HFeCH2FeSC2H2C3HCHCH2CHCHCH7CHCHNH7CFeHCHCHCH4C2HFeS2FeS2FeSFeS3FeHSFeS2C2NH3CH3C6H4C6H5CH6C2HC2NH3CH3CNC3HC2H2C3H2CHC3H4CH5CH3CH5CHNHCH2CSH12CH9CHFeS2H2NHS2FeS2HCS2HSH2C6H5C2HCHFeHNC8H23C2H2CH2FeH2FeS2H6FeS2HNS2HCH2C6H5CNC8H9CH7CH4CFeH3CHSHSH3CH3CH3FeS2FeS2FeSFeS3H2SH2SC3H2C6H4C6H4C2H3NC4HC3H7C2H2CH3NH4CH6C2H2CH2CH7CH4FeC2HC2H2C2HNHCH2SH7CH2SNHC2FeH7CHC3S2HSFeS2CSNCHC3HC5H6C2H2SH4CH3CH2C2H2CH6CHCH4CHCNH2CHC2HFeHCH5FeSHCHC2HFeHCH4SHSH2SCS2H4CHCH3C5HCHC3H10CHFeH2C2SCH2SH2C2NH3FeC3HCH2CH2CH2CFeSFeC2HFeS2FeS2FeSFeS3FeS2FeS2HCH2C6H4C6H5C2H2CHNCH2CHC2HCNH3C2HCH2NH2C2HCH3CHCH3CH2CH2CHCH3CH8CH2CH5CH3C2H2CH2CH2CHCH
_chemical_formula_sum              "Fe48 S96 C336 H576 N24"
_cell_length_a       44.1481
_cell_length_b       40.2737
_cell_length_c       26.0754
_cell_angle_alpha    89.8643
_cell_angle_beta     90.1897
_cell_angle_gamma    89.8558

_space_group_name_H-M_alt    "P 1"
_space_group_IT_number       1

loop_
  _space_group_symop_operation_xyz
  'x, y, z'

loop_
  _atom_site_type_symbol
  _atom_site_label
  _atom_site_symmetry_multiplicity
  _atom_site_fract_x
  _atom_site_fract_y
  _atom_site_fract_z
  _atom_site_occupancy
  Fe  Fe1       1.0  0.18001  0.22020  0.24845  1.0000
  S   S1        1.0  0.14391  0.21544  0.30935  1.0000
  S   S2        1.0  0.21104  0.18191  0.21114  1.0000
  Fe  Fe2       1.0  0.18152  0.29667  0.25586  1.0000
  S   S3        1.0  0.14532  0.29739  0.31644  1.0000
  S   S4        1.0  0.21086  0.34158  0.23522  1.0000
  Fe  Fe3       1.0  0.17068  0.25439  0.35279  1.0000
  S   S5        1.0  0.18032  0.25599  0.43962  1.0000
  Fe  Fe4       1.0  0.12111  0.25877  0.26878  1.0000
  S   S6        1.0  0.07159  0.26398  0.24032  1.0000
  S   S7        1.0  0.20775  0.25596  0.29496  1.0000
  S   S8        1.0  0.15625  0.26114  0.20521  1.0000
  Fe  Fe5       1.0  0.21297  0.02047  0.04254  1.0000
  C   C1        1.0  0.17201  0.10831  0.00004  1.0000
  S   S9        1.0  0.18133  0.04512  0.10006  1.0000
  C   C2        1.0  0.25634  0.47498  0.19853  1.0000
  S   S10       1.0  0.19537  0.43284  0.03723  1.0000
  C   C3        1.0  0.29144  0.32199  0.45040  1.0000
  C   C4        1.0  0.03445  0.25813  0.26618  1.0000
  S   S11       1.0  0.26019  0.03591  0.02124  1.0000
  C   C5        1.0  0.02940  0.24946  0.31746  1.0000
  H   H1        1.0  0.24925  0.36148  0.01058  1.0000
  H   H2        1.0  0.04853  0.24583  0.34293  1.0000
  H   H3        1.0  0.22115  0.48542  0.11517  1.0000
  C   C6        1.0  0.24198  0.24148  0.44912  1.0000
  H   H4        1.0  0.23050  0.43115  0.36856  1.0000
  H   H5        1.0  0.15344  0.14958  0.18533  1.0000
  H   H6        1.0  0.24139  0.23467  0.40900  1.0000
  C   C7        1.0  0.27891  0.35233  0.42078  1.0000
  C   C8        1.0  0.20719  0.36425  0.17721  1.0000
  C   C9        1.0  0.23164  0.38363  0.16005  1.0000
  C   C10       1.0  0.22883  0.40387  0.11609  1.0000
  C   C11       1.0  0.20119  0.40564  0.08986  1.0000
  C   C12       1.0  0.17698  0.38578  0.10641  1.0000
  C   C13       1.0  0.18000  0.36498  0.14963  1.0000
  H   H7        1.0  0.25287  0.38289  0.18085  1.0000
  H   H8        1.0  0.24783  0.41846  0.10300  1.0000
  H   H9        1.0  0.15554  0.38686  0.08622  1.0000
  H   H10       1.0  0.16099  0.35026  0.16252  1.0000
  C   C14       1.0  0.20181  0.14296  0.18401  1.0000
  C   C15       1.0  0.22555  0.12172  0.16931  1.0000
  C   C16       1.0  0.21957  0.09152  0.14421  1.0000
  C   C17       1.0  0.18972  0.08224  0.13356  1.0000
  C   C18       1.0  0.16592  0.10310  0.14928  1.0000
  C   C19       1.0  0.17190  0.13344  0.17419  1.0000
  H   H11       1.0  0.24873  0.12880  0.17708  1.0000
  H   H12       1.0  0.23802  0.07533  0.13327  1.0000
  H   H13       1.0  0.14275  0.09596  0.14153  1.0000
  C   C20       1.0  0.23393  0.33983  0.01422  1.0000
  H   H14       1.0  0.29527  0.31427  0.33821  1.0000
  H   H15       1.0  0.25809  0.38276  0.33599  1.0000
  H   H16       1.0  0.18354  0.45448  0.23685  1.0000
  H   H17       1.0  0.22331  0.20656  0.08957  1.0000
  H   H18       1.0  0.22539  0.31747  0.34077  1.0000
  C   C21       1.0  0.20689  0.11068  0.00320  1.0000
  H   H19       1.0  0.31464  0.32767  0.46445  1.0000
  Fe  Fe6       1.0  0.22769  0.47121  0.00400  1.0000
  C   C22       1.0  0.00907  0.26264  0.23382  1.0000
  H   H20       1.0  0.27876  0.37308  0.44884  1.0000
  C   C23       1.0  0.20117  0.46396  0.26344  1.0000
  H   H21       1.0  0.29588  0.35956  0.39133  1.0000
  H   H22       1.0  0.24623  0.31664  0.00468  1.0000
  H   H23       1.0  0.16083  0.12162  0.03201  1.0000
  H   H24       1.0  0.21911  0.37462  0.34325  1.0000
  H   H25       1.0  0.22926  0.31869  0.45893  1.0000
  H   H26       1.0  0.24888  0.44863  0.19990  1.0000
  H   H27       1.0  0.17752  0.33666  0.45680  1.0000
  C   C24       1.0  0.21535  0.25180  0.47330  1.0000
  H   H28       1.0  0.24777  0.29471  0.38449  1.0000
  H   H29       1.0  0.26881  0.29348  0.29801  1.0000
  C   C25       1.0  0.22531  0.34290  0.43946  1.0000
  H   H30       1.0  0.01264  0.26907  0.19400  1.0000
  H   H31       1.0  0.18393  0.17086  0.03588  1.0000
  H   H32       1.0  0.29332  0.29953  0.42617  1.0000
  H   H33       1.0  0.22755  0.33799  0.05534  1.0000
  H   H34       1.0  0.21982  0.40996  0.42572  1.0000
  C   C26       1.0  0.20864  0.16617  0.04031  1.0000
  H   H35       1.0  0.29337  0.12938  0.04526  1.0000
  C   C27       1.0  0.26832  0.12983  0.04907  1.0000
  H   H36       1.0  0.16538  0.08183  0.00395  1.0000
  H   H37       1.0  0.28995  0.23222  0.45740  1.0000
  H   H38       1.0  0.20990  0.22012  0.02769  1.0000
  H   H39       1.0  0.18405  0.36740  0.40857  1.0000
  H   H40       1.0  0.19271  0.36586  0.99814  1.0000
  H   H41       1.0  0.21005  0.15270  0.07751  1.0000
  N   N1        1.0  0.24800  0.34799  0.39705  1.0000
  H   H42       1.0  0.25931  0.41884  0.41278  1.0000
  C   C28       1.0  0.24044  0.37835  0.36553  1.0000
  C   C29       1.0  0.24717  0.31822  0.36218  1.0000
  H   H43       1.0  0.18704  0.32372  0.39379  1.0000
  H   H44       1.0  0.26055  0.15075  0.47411  1.0000
  C   C30       1.0  0.23742  0.41116  0.39559  1.0000
  C   C31       1.0  0.27231  0.31627  0.32122  1.0000
  C   C32       1.0  0.19172  0.34289  0.42301  1.0000
  H   H45       1.0  0.21920  0.44500  0.26848  1.0000
  H   H46       1.0  0.19014  0.46702  0.30138  1.0000
  H   H47       1.0  0.26151  0.10435  0.05970  1.0000
  H   H48       1.0  0.27132  0.33741  0.29400  1.0000
  H   H49       1.0  0.21338  0.09959  0.04049  1.0000
  C   C33       1.0  0.22319  0.20061  0.04790  1.0000
  H   H50       1.0  0.26287  0.14713  0.08076  1.0000
  C   C34       1.0  0.20910  0.48553  0.15241  1.0000
  H   H51       1.0  0.22807  0.36184  0.47010  1.0000
  H   H52       1.0  0.29600  0.45609  0.15829  1.0000
  H   H53       1.0  0.26946  0.47564  0.11629  1.0000
  H   H54       1.0  0.24714  0.20206  0.03613  1.0000
  C   C35       1.0  0.27983  0.47717  0.15483  1.0000
  H   H55       1.0  0.26910  0.47931  0.23487  1.0000
  H   H56       1.0  0.16291  0.48722  0.12389  1.0000
  H   H57       1.0  0.20336  0.45896  0.15804  1.0000
  C   C36       1.0  0.26950  0.24001  0.47678  1.0000
  H   H58       1.0  0.27767  0.31625  0.48478  1.0000
  S   S12       1.0  0.27854  0.46991  0.00383  1.0000
  C   C37       1.0  0.99952  0.24553  0.33596  1.0000
  C   C38       1.0  0.21375  0.49789  0.24588  1.0000
  N   N2        1.0  0.22944  0.49821  0.19455  1.0000
  N   N3        1.0  0.22024  0.14495  0.99697  1.0000
  C   C39       1.0  0.25427  0.14101  0.99761  1.0000
  S   S13       1.0  0.30176  0.23400  0.71628  1.0000
  S   S14       1.0  0.30666  0.24735  0.56093  1.0000
  Fe  Fe7       1.0  0.24396  0.03173  0.93933  1.0000
  S   S15       1.0  0.24378  0.07586  0.88357  1.0000
  S   S16       1.0  0.19607  0.01832  0.96131  1.0000
  Fe  Fe8       1.0  0.27473  0.48274  0.92009  1.0000
  H   H59       1.0  0.30598  0.42068  0.76298  1.0000
  S   S17       1.0  0.30130  0.46046  0.85395  1.0000
  C   C40       1.0  0.30578  0.34778  0.82961  1.0000
  C   C41       1.0  0.30553  0.40400  0.79556  1.0000
  C   C42       1.0  0.26721  0.12822  0.82950  1.0000
  C   C43       1.0  0.30299  0.41706  0.84529  1.0000
  C   C44       1.0  0.30275  0.39541  0.88722  1.0000
  C   C45       1.0  0.30433  0.36093  0.87937  1.0000
  H   H60       1.0  0.26150  0.12293  0.96766  1.0000
  H   H61       1.0  0.28477  0.16997  0.78661  1.0000
  H   H62       1.0  0.30158  0.40530  0.92571  1.0000
  H   H63       1.0  0.14907  0.37026  0.95352  1.0000
  H   H64       1.0  0.16910  0.32057  0.90700  1.0000
  H   H65       1.0  0.27558  0.09767  0.59036  1.0000
  C   C46       1.0  0.30274  0.08401  0.84800  1.0000
  C   C47       1.0  0.27356  0.09724  0.85224  1.0000
  C   C48       1.0  0.22531  0.39385  0.85941  1.0000
  C   C49       1.0  0.26373  0.11526  0.61649  1.0000
  H   H66       1.0  0.25983  0.17759  0.70606  1.0000
  H   H67       1.0  0.30791  0.06014  0.86505  1.0000
  H   H68       1.0  0.31079  0.18403  0.62706  1.0000
  C   C50       1.0  0.27087  0.24867  0.52903  1.0000
  C   C51       1.0  0.24415  0.25844  0.55353  1.0000
  H   H69       1.0  0.24474  0.26525  0.59363  1.0000
  H   H70       1.0  0.24462  0.13847  0.83206  1.0000
  H   H71       1.0  0.16256  0.39709  0.90277  1.0000
  C   C52       1.0  0.17933  0.34518  0.89824  1.0000
  H   H72       1.0  0.23857  0.13040  0.52236  1.0000
  N   N4        1.0  0.27476  0.15022  0.60702  1.0000
  S   S18       1.0  0.30460  0.30427  0.82170  1.0000
  C   C53       1.0  0.25125  0.17553  0.62244  1.0000
  H   H73       1.0  0.20686  0.27793  0.87866  1.0000
  H   H74       1.0  0.30192  0.15631  0.67658  1.0000
  H   H75       1.0  0.21592  0.19641  0.88752  1.0000
  H   H76       1.0  0.29167  0.17891  0.54250  1.0000
  H   H77       1.0  0.23360  0.32617  0.86154  1.0000
  H   H78       1.0  0.28812  0.08393  0.67263  1.0000
  H   H79       1.0  0.24607  0.38400  0.93233  1.0000
  H   H80       1.0  0.21611  0.09338  0.97407  1.0000
  H   H81       1.0  0.30776  0.35955  0.74915  1.0000
  H   H82       1.0  0.25957  0.20107  0.61410  1.0000
  C   C54       1.0  0.32512  0.10134  0.82028  1.0000
  C   C55       1.0  0.25271  0.15251  0.51448  1.0000
  C   C56       1.0  0.21660  0.25991  0.52582  1.0000
  C   C57       1.0  0.22144  0.28629  0.91093  1.0000
  C   C58       1.0  0.23082  0.32293  0.90364  1.0000
  Fe  Fe9       1.0  0.32467  0.25100  0.64367  1.0000
  C   C59       1.0  0.22812  0.18700  0.92196  1.0000
  H   H83       1.0  0.23003  0.17252  0.59992  1.0000
  H   H84       1.0  0.24003  0.37733  0.83644  1.0000
  H   H85       1.0  0.29678  0.13548  0.53617  1.0000
  C   C60       1.0  0.26824  0.10088  0.67126  1.0000
  H   H86       1.0  0.20955  0.28152  0.94743  1.0000
  H   H87       1.0  0.20990  0.40210  0.93674  1.0000
  H   H88       1.0  0.24844  0.08515  0.68113  1.0000
  H   H89       1.0  0.23603  0.41876  0.85815  1.0000
  C   C61       1.0  0.22286  0.38261  0.91595  1.0000
  H   H90       1.0  0.27032  0.11926  0.70237  1.0000
  C   C62       1.0  0.28983  0.14600  0.80323  1.0000
  S   S19       1.0  0.22400  0.48009  0.91906  1.0000
  H   H91       1.0  0.32594  0.10908  0.62011  1.0000
  C   C63       1.0  0.28060  0.15460  0.55026  1.0000
  H   H92       1.0  0.20287  0.39647  0.84068  1.0000
  H   H93       1.0  0.18585  0.16681  0.94769  1.0000
  C   C64       1.0  0.20980  0.15823  0.94560  1.0000
  C   C65       1.0  0.30674  0.36943  0.78766  1.0000
  H   H94       1.0  0.18212  0.34543  0.85581  1.0000
  H   H95       1.0  0.23921  0.11326  0.60675  1.0000
  H   H96       1.0  0.18973  0.32282  0.99034  1.0000
  H   H97       1.0  0.22542  0.19623  0.68531  1.0000
  H   H98       1.0  0.30452  0.34436  0.91207  1.0000
  H   H99       1.0  0.22775  0.15209  0.68736  1.0000
  H   H100      1.0  0.19613  0.26784  0.54502  1.0000
  C   C66       1.0  0.30408  0.15781  0.63440  1.0000
  C   C67       1.0  0.24088  0.17486  0.67869  1.0000
  H   H101      1.0  0.25422  0.32612  0.91854  1.0000
  N   N5        1.0  0.20946  0.34866  0.92490  1.0000
  H   H102      1.0  0.21010  0.13809  0.91623  1.0000
  H   H103      1.0  0.23870  0.17542  0.51649  1.0000
  C   C68       1.0  0.15528  0.37150  0.91237  1.0000
  C   C69       1.0  0.31879  0.13237  0.79772  1.0000
  H   H104      1.0  0.24217  0.27057  0.91224  1.0000
  H   H105      1.0  0.13429  0.36664  0.89002  1.0000
  H   H106      1.0  0.25061  0.17833  0.90839  1.0000
  H   H107      1.0  0.23101  0.20813  0.94834  1.0000
  H   H108      1.0  0.16298  0.11686  0.96258  1.0000
  C   C70       1.0  0.20487  0.34415  0.98183  1.0000
  Fe  Fe10      1.0  0.32586  0.27684  0.75441  1.0000
  H   H109      1.0  0.26607  0.16430  0.98735  1.0000
  C   C71       1.0  0.33137  0.13589  0.61948  1.0000
  S   S20       1.0  0.28890  0.75967  0.26786  1.0000
  S   S21       1.0  0.30308  0.74620  0.42074  1.0000
  C   C72       1.0  0.21006  0.65470  0.02086  1.0000
  S   S22       1.0  0.31118  0.95173  0.04407  1.0000
  S   S23       1.0  0.22390  0.96592  0.04334  1.0000
  C   C73       1.0  0.17928  0.50441  0.14245  1.0000
  H   H110      1.0  0.25763  0.85717  0.08852  1.0000
  S   S24       1.0  0.30657  0.54883  0.07588  1.0000
  H   H111      1.0  0.24859  0.64765  0.12890  1.0000
  C   C74       1.0  0.30179  0.58857  0.10379  1.0000
  C   C75       1.0  0.27356  0.60430  0.10465  1.0000
  C   C76       1.0  0.27051  0.63577  0.12751  1.0000
  H   H112      1.0  0.25406  0.59203  0.08827  1.0000
  S   S25       1.0  0.22439  0.52569  0.02262  1.0000
  C   C77       1.0  0.30738  0.92269  0.09488  1.0000
  C   C78       1.0  0.32477  0.87210  0.13851  1.0000
  H   H113      1.0  0.26515  0.72768  0.06202  1.0000
  C   C79       1.0  0.30285  0.87650  0.17654  1.0000
  C   C80       1.0  0.28294  0.90367  0.17298  1.0000
  C   C81       1.0  0.28498  0.92645  0.13215  1.0000
  H   H114      1.0  0.25768  0.82541  0.47978  1.0000
  C   C82       1.0  0.21750  0.80439  0.31610  1.0000
  H   H115      1.0  0.26587  0.90732  0.20208  1.0000
  H   H116      1.0  0.26963  0.94741  0.13022  1.0000
  C   C83       1.0  0.26650  0.74711  0.44930  1.0000
  C   C84       1.0  0.24009  0.74001  0.42166  1.0000
  H   H117      1.0  0.16681  0.62934  0.02773  1.0000
  H   H118      1.0  0.24158  0.73396  0.38135  1.0000
  H   H119      1.0  0.24629  0.53492  0.14058  1.0000
  S   S26       1.0  0.29060  0.69330  0.17119  1.0000
  H   H120      1.0  0.29577  0.84612  0.02702  1.0000
  H   H121      1.0  0.24112  0.86700  0.48178  1.0000
  H   H122      1.0  0.23153  0.58557  0.18262  1.0000
  H   H123      1.0  0.21054  0.80129  0.27541  1.0000
  H   H124      1.0  0.23581  0.78623  0.32376  1.0000
  H   H125      1.0  0.21971  0.64248  0.05552  1.0000
  Fe  Fe11      1.0  0.27509  0.52536  0.01696  1.0000
  H   H126      1.0  0.19435  0.51538  0.24694  1.0000
  H   H127      1.0  0.19746  0.79826  0.33991  1.0000
  Fe  Fe12      1.0  0.32182  0.79946  0.24580  1.0000
  H   H128      1.0  0.20721  0.85653  0.32138  1.0000
  C   C85       1.0  0.27446  0.82911  0.37296  1.0000
  C   C86       1.0  0.30003  0.84172  0.40874  1.0000
  H   H129      1.0  0.24208  0.84696  0.29087  1.0000
  Fe  Fe13      1.0  0.31976  0.72497  0.22470  1.0000
  C   C87       1.0  0.24824  0.88461  0.37792  1.0000
  H   H130      1.0  0.31777  0.85460  0.38609  1.0000
  H   H131      1.0  0.20214  0.84712  0.41556  1.0000
  Fe  Fe14      1.0  0.31796  0.74978  0.33653  1.0000
  S   S27       1.0  0.29993  0.84977  0.23036  1.0000
  C   C88       1.0  0.22099  0.56242  0.19722  1.0000
  C   C89       1.0  0.24594  0.71214  0.04859  1.0000
  H   H132      1.0  0.25316  0.90128  0.29766  1.0000
  H   H133      1.0  0.19153  0.73356  0.42509  1.0000
  C   C90       1.0  0.22782  0.84058  0.32464  1.0000
  C   C91       1.0  0.29560  0.65211  0.14893  1.0000
  C   C92       1.0  0.32728  0.89539  0.09821  1.0000
  H   H134      1.0  0.21962  0.56524  0.23949  1.0000
  C   C93       1.0  0.21173  0.73979  0.44661  1.0000
  H   H135      1.0  0.22889  0.72885  0.03117  1.0000
  C   C94       1.0  0.32371  0.63605  0.14929  1.0000
  H   H136      1.0  0.27432  0.67061  0.03397  1.0000
  H   H137      1.0  0.27537  0.89771  0.01313  1.0000
  C   C95       1.0  0.25811  0.68587  0.01087  1.0000
  H   H138      1.0  0.25744  0.61745  0.00377  1.0000
  C   C96       1.0  0.24114  0.53260  0.18229  1.0000
  H   H139      1.0  0.22119  0.80816  0.41493  1.0000
  C   C97       1.0  0.22501  0.83535  0.41769  1.0000
  H   H140      1.0  0.29285  0.85784  0.44060  1.0000
  H   H141      1.0  0.19792  0.67676  0.03565  1.0000
  H   H142      1.0  0.16783  0.51272  0.17775  1.0000
  H   H143      1.0  0.31159  0.82000  0.42657  1.0000
  H   H144      1.0  0.19798  0.56128  0.18066  1.0000
  H   H145      1.0  0.28405  0.82963  0.33354  1.0000
  H   H146      1.0  0.18291  0.52581  0.11631  1.0000
  C   C98       1.0  0.32670  0.60429  0.12707  1.0000
  H   H147      1.0  0.21926  0.82876  0.02400  1.0000
  C   C99       1.0  0.23711  0.84057  0.47249  1.0000
  H   H148      1.0  0.24111  0.64606  0.46361  1.0000
  N   N6        1.0  0.24460  0.84745  0.37417  1.0000
  H   H149      1.0  0.26308  0.53718  0.20242  1.0000
  H   H150      1.0  0.22560  0.89693  0.37906  1.0000
  H   H151      1.0  0.27094  0.80239  0.38149  1.0000
  H   H152      1.0  0.28840  0.88869  0.32749  1.0000
  H   H153      1.0  0.23646  0.70040  0.08358  1.0000
  H   H154      1.0  0.23762  0.89485  0.07162  1.0000
  H   H155      1.0  0.25926  0.89225  0.41413  1.0000
  C   C100      1.0  0.26627  0.90097  0.33403  1.0000
  Fe  Fe15      1.0  0.26984  0.98074  0.01585  1.0000
  H   H156      1.0  0.27090  0.92730  0.34391  1.0000
  C   C101      1.0  0.18560  0.63114  0.99965  1.0000
  H   H157      1.0  0.21765  0.86084  0.09884  1.0000
  C   C102      1.0  0.22917  0.85366  0.01833  1.0000
  H   H158      1.0  0.22952  0.50686  0.27630  1.0000
  C   C103      1.0  0.23633  0.86735  0.07225  1.0000
  H   H159      1.0  0.27514  0.80213  0.06934  1.0000
  H   H160      1.0  0.25122  0.78843  0.01701  1.0000
  H   H161      1.0  0.29073  0.78003  0.01726  1.0000
  H   H162      1.0  0.29346  0.50022  0.15737  1.0000
  C   C104      1.0  0.27345  0.79907  0.02706  1.0000
  C   C105      1.0  0.28148  0.83192  0.99937  1.0000
  H   H163      1.0  0.21014  0.86877  0.00256  1.0000
  Fe  Fe16      1.0  0.15476  0.79901  0.70455  1.0000
  S   S28       1.0  0.12308  0.78473  0.64020  1.0000
  S   S29       1.0  0.16199  0.85383  0.72036  1.0000
  Fe  Fe17      1.0  0.17415  0.72732  0.72439  1.0000
  S   S30       1.0  0.14371  0.70802  0.66201  1.0000
  S   S31       1.0  0.21046  0.69693  0.76589  1.0000
  Fe  Fe18      1.0  0.16094  0.75083  0.61438  1.0000
  S   S32       1.0  0.17334  0.74369  0.52957  1.0000
  Fe  Fe19      1.0  0.10836  0.74354  0.69289  1.0000
  S   S33       1.0  0.06018  0.72469  0.70968  1.0000
  S   S34       1.0  0.19328  0.76811  0.67487  1.0000
  S   S35       1.0  0.13814  0.75988  0.75912  1.0000
  Fe  Fe20      1.0  0.21115  0.96506  0.95976  1.0000
  H   H164      1.0  0.27552  0.64772  0.89912  1.0000
  S   S36       1.0  0.18445  0.91832  0.93967  1.0000
  Fe  Fe21      1.0  0.22500  0.53448  0.93723  1.0000
  S   S37       1.0  0.18911  0.56832  0.90230  1.0000
  S   S38       1.0  0.27565  0.53818  0.93281  1.0000
  C   C106      1.0  0.02233  0.73959  0.69971  1.0000
  C   C107      1.0  0.01604  0.76967  0.67485  1.0000
  N   N7        1.0  0.25536  0.85330  0.98126  1.0000
  H   H165      1.0  0.03448  0.78414  0.65944  1.0000
  H   H166      1.0  0.06285  0.87258  0.65838  1.0000
  H   H167      1.0  0.05893  0.80040  0.83959  1.0000
  C   C108      1.0  0.23567  0.75482  0.52660  1.0000
  H   H168      1.0  0.15467  0.82802  0.82430  1.0000
  H   H169      1.0  0.23423  0.76083  0.56692  1.0000
  H   H170      1.0  0.21305  0.68676  0.66122  1.0000
  C   C109      1.0  0.20366  0.65931  0.79888  1.0000
  C   C110      1.0  0.17458  0.65021  0.81441  1.0000
  C   C111      1.0  0.17045  0.62165  0.84480  1.0000
  C   C112      1.0  0.19523  0.60176  0.85943  1.0000
  C   C113      1.0  0.22419  0.61012  0.84212  1.0000
  C   C114      1.0  0.22840  0.63898  0.81239  1.0000
  H   H171      1.0  0.15537  0.66565  0.80423  1.0000
  H   H172      1.0  0.14794  0.61525  0.85782  1.0000
  H   H173      1.0  0.24339  0.59478  0.85263  1.0000
  H   H174      1.0  0.25097  0.64582  0.80035  1.0000
  C   C115      1.0  0.16979  0.87060  0.78161  1.0000
  C   C116      1.0  0.18115  0.90309  0.78518  1.0000
  C   C117      1.0  0.18637  0.91790  0.83329  1.0000
  C   C118      1.0  0.17945  0.90059  0.87821  1.0000
  C   C119      1.0  0.16795  0.86811  0.87465  1.0000
  C   C120      1.0  0.16354  0.85298  0.82659  1.0000
  H   H175      1.0  0.18595  0.91691  0.75052  1.0000
  H   H176      1.0  0.19516  0.94291  0.83555  1.0000
  H   H177      1.0  0.16246  0.85462  0.90929  1.0000
  H   H178      1.0  0.07115  0.90461  0.74194  1.0000
  H   H179      1.0  0.18795  0.71067  0.97501  1.0000
  C   C121      1.0  0.26633  0.88863  0.97610  1.0000
  H   H180      1.0  0.23463  0.64313  0.69599  1.0000
  H   H181      1.0  0.25325  0.72762  0.65578  1.0000
  H   H182      1.0  0.29664  0.82566  0.96672  1.0000
  H   H183      1.0  0.21792  0.73409  0.94449  1.0000
  H   H184      1.0  0.25241  0.68054  0.53684  1.0000
  H   H185      1.0  0.21326  0.68083  0.52246  1.0000
  C   C122      1.0  0.26406  0.75448  0.50187  1.0000
  C   C123      1.0  0.20933  0.74698  0.49928  1.0000
  H   H186      1.0  0.24228  0.68777  0.91083  1.0000
  C   C124      1.0  0.22471  0.68886  0.62409  1.0000
  C   C125      1.0  0.02941  0.85376  0.73847  1.0000
  N   N8        1.0  0.23514  0.66392  0.98436  1.0000
  H   H187      1.0  0.04446  0.89241  0.81908  1.0000
  H   H188      1.0  0.24645  0.78825  0.93126  1.0000
  H   H189      1.0  0.18966  0.62259  0.56721  1.0000
  C   C126      1.0  0.25630  0.70370  0.63527  1.0000
  H   H190      1.0  0.03009  0.83593  0.70600  1.0000
  H   H191      1.0  0.26932  0.70929  0.60012  1.0000
  H   H192      1.0  0.09886  0.82309  0.77765  1.0000
  C   C127      1.0  0.00088  0.84577  0.77039  1.0000
  N   N9        1.0  0.22420  0.65666  0.59465  1.0000
  C   C128      1.0  0.24434  0.84273  0.92897  1.0000
  C   C129      1.0  0.23160  0.66525  0.53955  1.0000
  C   C130      1.0  0.24683  0.63154  0.61427  1.0000
  H   H193      1.0  0.24242  0.60688  0.59652  1.0000
  C   C131      1.0  0.18034  0.62924  0.64617  1.0000
  C   C132      1.0  0.24843  0.62583  0.67307  1.0000
  H   H194      1.0  0.15568  0.62439  0.64210  1.0000
  H   H195      1.0  0.27228  0.69920  0.98222  1.0000
  C   C133      1.0  0.08487  0.87108  0.85232  1.0000
  C   C134      1.0  0.19230  0.64319  0.59495  1.0000
  C   C135      1.0  0.22328  0.68018  0.93613  1.0000
  H   H196      1.0  0.22102  0.80510  0.88500  1.0000
  H   H197      1.0  0.25728  0.62127  0.51327  1.0000
  C   C136      1.0  0.05564  0.86755  0.82008  1.0000
  H   H198      1.0  0.27217  0.62852  0.68673  1.0000
  C   C137      1.0  0.07475  0.82099  0.76543  1.0000
  C   C138      1.0  0.29158  0.89471  0.93631  1.0000
  C   C139      1.0  0.07989  0.87873  0.73816  1.0000
  H   H199      1.0  0.24129  0.60017  0.68296  1.0000
  H   H200      1.0  0.21124  0.70816  0.60354  1.0000
  H   H201      1.0  0.27010  0.63846  0.60164  1.0000
  H   H202      1.0  0.27003  0.68765  0.66087  1.0000
  C   C140      1.0  0.23686  0.63587  0.50260  1.0000
  H   H203      1.0  0.10306  0.87896  0.75503  1.0000
  H   H204      1.0  0.17604  0.66282  0.58198  1.0000
  H   H205      1.0  0.31091  0.87737  0.94091  1.0000
  H   H206      1.0  0.07549  0.81085  0.72579  1.0000
  H   H207      1.0  0.04025  0.85153  0.84277  1.0000
  C   C141      1.0  0.06020  0.79369  0.79852  1.0000
  H   H208      1.0  0.19100  0.60504  0.65558  1.0000
  H   H209      1.0  0.07870  0.87859  0.89192  1.0000
  H   H210      1.0  0.00308  0.82324  0.79426  1.0000
  C   C142      1.0  0.22960  0.80828  0.92485  1.0000
  H   H211      1.0  0.03766  0.78657  0.78368  1.0000
  H   H212      1.0  0.09630  0.84828  0.67365  1.0000
  H   H213      1.0  0.18275  0.64651  0.67886  1.0000
  H   H214      1.0  0.07438  0.77094  0.79639  1.0000
  H   H215      1.0  0.09751  0.84736  0.85556  1.0000
  C   C143      1.0  0.08438  0.87207  0.68037  1.0000
  H   H216      1.0  0.09999  0.89082  0.83740  1.0000
  N   N10       1.0  0.05961  0.85463  0.76622  1.0000
  H   H217      1.0  0.09914  0.89179  0.66423  1.0000
  C   C144      1.0  0.20361  0.71156  0.94214  1.0000
  H   H218      1.0  0.02426  0.87831  0.72051  1.0000
  H   H219      1.0  0.17557  0.64002  0.96308  1.0000
  C   C145      1.0  0.28009  0.63611  0.93693  1.0000
  S   S39       1.0  0.25776  0.97784  0.93160  1.0000
  H   H220      1.0  0.22768  0.86112  0.91382  1.0000
  H   H221      1.0  0.28959  0.61109  0.92903  1.0000
  H   H222      1.0  0.20970  0.80541  0.95020  1.0000
  H   H223      1.0  0.26323  0.84240  0.90087  1.0000
  H   H224      1.0  0.30077  0.92011  0.94171  1.0000
  H   H225      1.0  0.29800  0.65004  0.95752  1.0000
  H   H226      1.0  0.21054  0.66235  0.91197  1.0000
  H   H227      1.0  0.18858  0.71388  0.90797  1.0000
  H   H228      1.0  0.24722  0.90566  0.96639  1.0000
  H   H229      1.0  0.28262  0.89379  0.89653  1.0000
  H   H230      1.0  0.23571  0.61578  0.94681  1.0000
  H   H231      1.0  0.28432  0.76010  0.52363  1.0000
  C   C146      1.0  0.25101  0.63214  0.96922  1.0000
  H   H232      1.0  0.00229  0.69732  0.73733  1.0000
  H   H233      1.0  0.21701  0.61930  0.49923  1.0000
  H   H234      1.0  0.21981  0.83149  0.50006  1.0000
  H   H235      1.0  0.19458  0.60560  0.99500  1.0000
  H   H236      1.0  0.61934  0.18009  0.48416  1.0000
  H   H237      1.0  0.60215  0.20599  0.43529  1.0000
  H   H238      1.0  0.59744  0.26165  0.47193  1.0000
  H   H239      1.0  0.58866  0.16535  0.44658  1.0000
  H   H240      1.0  0.55963  0.21911  0.48059  1.0000
  C   C147      1.0  0.59770  0.18768  0.46628  1.0000
  H   H241      1.0  0.61090  0.14965  0.55402  1.0000
  Fe  Fe22      1.0  0.38620  0.26389  0.69918  1.0000
  S   S40       1.0  0.36741  0.24721  0.77498  1.0000
  S   S41       1.0  0.43241  0.28950  0.68874  1.0000
  H   H242      1.0  0.47657  0.32589  0.83718  1.0000
  H   H243      1.0  0.59486  0.20478  0.63084  1.0000
  N   N11       1.0  0.58434  0.21742  0.55214  1.0000
  H   H244      1.0  0.35005  0.13997  0.64742  1.0000
  S   S42       1.0  0.36673  0.22003  0.65732  1.0000
  S   S43       1.0  0.34553  0.29625  0.68071  1.0000
  Fe  Fe23      1.0  0.61867  0.26311  0.70587  1.0000
  S   S44       1.0  0.64594  0.28260  0.77299  1.0000
  S   S45       1.0  0.57065  0.24132  0.71385  1.0000
  H   H245      1.0  0.47134  0.34437  0.77440  1.0000
  C   C148      1.0  0.61627  0.16734  0.58521  1.0000
  S   S46       1.0  0.63666  0.30060  0.64920  1.0000
  S   S47       1.0  0.65454  0.22537  0.68474  1.0000
  H   H246      1.0  0.62107  0.24718  0.58167  1.0000
  S   S48       1.0  0.34714  0.15242  0.76089  1.0000
  H   H247      1.0  0.34748  0.09060  0.81623  1.0000
  H   H248      1.0  0.56978  0.17649  0.60056  1.0000
  C   C149      1.0  0.47068  0.27567  0.69692  1.0000
  C   C150      1.0  0.47796  0.24361  0.71377  1.0000
  C   C151      1.0  0.50859  0.23391  0.71955  1.0000
  C   C152      1.0  0.53247  0.25599  0.70866  1.0000
  C   C153      1.0  0.52520  0.28813  0.69202  1.0000
  C   C154      1.0  0.49454  0.29784  0.68625  1.0000
  H   H249      1.0  0.46001  0.22623  0.72228  1.0000
  H   H250      1.0  0.51383  0.20897  0.73237  1.0000
  H   H251      1.0  0.54317  0.30544  0.68332  1.0000
  H   H252      1.0  0.48929  0.32271  0.67318  1.0000
  H   H253      1.0  0.53164  0.20926  0.62159  1.0000
  C   C155      1.0  0.61256  0.23780  0.54424  1.0000
  C   C156      1.0  0.52954  0.22440  0.58617  1.0000
  H   H254      1.0  0.63834  0.17969  0.57867  1.0000
  C   C157      1.0  0.59014  0.19207  0.59380  1.0000
  H   H255      1.0  0.55407  0.25965  0.54184  1.0000
  Fe  Fe24      1.0  0.34469  0.20579  0.73216  1.0000
  H   H256      1.0  0.61912  0.15219  0.62060  1.0000
  N   N12       1.0  0.40735  0.36386  0.80964  1.0000
  C   C158      1.0  0.38971  0.38947  0.83942  1.0000
  C   C159      1.0  0.39034  0.33146  0.81212  1.0000
  C   C160      1.0  0.41074  0.37386  0.75425  1.0000
  C   C161      1.0  0.43851  0.36060  0.83289  1.0000
  C   C162      1.0  0.40106  0.42560  0.83558  1.0000
  C   C163      1.0  0.39038  0.31390  0.86478  1.0000
  C   C164      1.0  0.38098  0.38167  0.72546  1.0000
  C   C165      1.0  0.45948  0.33421  0.80851  1.0000
  H   H257      1.0  0.36547  0.38951  0.82784  1.0000
  H   H258      1.0  0.38953  0.38327  0.88098  1.0000
  H   H259      1.0  0.39880  0.31350  0.78313  1.0000
  H   H260      1.0  0.36619  0.33516  0.80149  1.0000
  H   H261      1.0  0.42596  0.39570  0.75029  1.0000
  H   H262      1.0  0.42218  0.35382  0.73220  1.0000
  H   H263      1.0  0.45103  0.38441  0.82937  1.0000
  H   H264      1.0  0.43761  0.35633  0.87507  1.0000
  H   H265      1.0  0.40061  0.43526  0.79577  1.0000
  H   H266      1.0  0.38560  0.44176  0.85813  1.0000
  H   H267      1.0  0.42403  0.42856  0.85221  1.0000
  H   H268      1.0  0.37497  0.29218  0.86310  1.0000
  H   H269      1.0  0.41320  0.30426  0.87490  1.0000
  H   H270      1.0  0.38175  0.33006  0.89577  1.0000
  H   H271      1.0  0.38636  0.38809  0.68505  1.0000
  H   H272      1.0  0.36871  0.40314  0.74202  1.0000
  H   H273      1.0  0.36577  0.35989  0.72429  1.0000
  H   H274      1.0  0.51989  0.20923  0.55475  1.0000
  H   H275      1.0  0.44751  0.31133  0.79694  1.0000
  H   H276      1.0  0.55771  0.18017  0.51275  1.0000
  H   H277      1.0  0.51281  0.24427  0.59492  1.0000
  H   H278      1.0  0.63152  0.22282  0.52913  1.0000
  H   H279      1.0  0.56812  0.25493  0.60522  1.0000
  C   C166      1.0  0.55994  0.24066  0.57131  1.0000
  C   C167      1.0  0.60927  0.26797  0.50811  1.0000
  H   H280      1.0  0.34034  0.14295  0.58128  1.0000
  H   H281      1.0  0.66443  0.11053  0.80447  1.0000
  C   C168      1.0  0.57330  0.20105  0.50351  1.0000
  H   H282      1.0  0.66535  0.16280  0.97117  1.0000
  H   H283      1.0  0.59740  0.28878  0.52745  1.0000
  Fe  Fe25      1.0  0.66601  0.31793  0.71529  1.0000
  H   H284      1.0  0.63223  0.27723  0.49807  1.0000
  H   H285      1.0  0.38791  0.92279  0.24690  1.0000
  Fe  Fe26      1.0  0.37712  0.75545  0.27225  1.0000
  S   S49       1.0  0.34916  0.79201  0.31756  1.0000
  S   S50       1.0  0.42818  0.75771  0.29274  1.0000
  H   H286      1.0  0.51089  0.87518  0.17763  1.0000
  H   H287      1.0  0.47385  0.82866  0.19009  1.0000
  H   H288      1.0  0.34858  0.59210  0.12714  1.0000
  H   H289      1.0  0.40020  0.85935  0.13444  1.0000
  H   H290      1.0  0.50382  0.86611  0.24321  1.0000
  H   H291      1.0  0.42983  0.84283  0.35463  1.0000
  Fe  Fe27      1.0  0.61512  0.77124  0.25010  1.0000
  S   S51       1.0  0.65018  0.76010  0.18893  1.0000
  S   S52       1.0  0.56630  0.77178  0.21734  1.0000
  H   H292      1.0  0.46152  0.86181  0.14999  1.0000
  N   N13       1.0  0.43741  0.85825  0.22242  1.0000
  S   S53       1.0  0.63422  0.73303  0.30467  1.0000
  S   S54       1.0  0.64272  0.81317  0.28484  1.0000
  H   H293      1.0  0.45824  0.82712  0.28038  1.0000
  C   C169      1.0  0.49317  0.87622  0.20779  1.0000
  H   H294      1.0  0.46202  0.87033  0.29216  1.0000
  H   H295      1.0  0.60891  0.59206  0.20590  1.0000
  C   C170      1.0  0.46658  0.75960  0.27074  1.0000
  C   C171      1.0  0.47420  0.75958  0.21863  1.0000
  C   C172      1.0  0.50473  0.76325  0.20331  1.0000
  C   C173      1.0  0.52826  0.76665  0.23963  1.0000
  C   C174      1.0  0.52072  0.76611  0.29173  1.0000
  C   C175      1.0  0.49015  0.76270  0.30705  1.0000
  H   H296      1.0  0.45656  0.75695  0.19006  1.0000
  H   H297      1.0  0.51019  0.76350  0.16289  1.0000
  H   H298      1.0  0.53840  0.76869  0.32029  1.0000
  H   H299      1.0  0.48468  0.76279  0.34747  1.0000
  H   H300      1.0  0.48703  0.90267  0.21321  1.0000
  C   C176      1.0  0.42023  0.85034  0.31687  1.0000
  N   N14       1.0  0.58463  0.65848  0.20540  1.0000
  C   C177      1.0  0.60063  0.63926  0.24742  1.0000
  C   C178      1.0  0.56650  0.68557  0.23093  1.0000
  C   C179      1.0  0.60884  0.67391  0.17240  1.0000
  C   C180      1.0  0.56522  0.63488  0.17470  1.0000
  C   C181      1.0  0.62117  0.61034  0.22989  1.0000
  C   C182      1.0  0.54265  0.67388  0.27013  1.0000
  C   C183      1.0  0.59819  0.69649  0.12816  1.0000
  C   C184      1.0  0.53813  0.65006  0.14475  1.0000
  H   H301      1.0  0.61484  0.65621  0.27127  1.0000
  H   H302      1.0  0.58406  0.62781  0.27412  1.0000
  H   H303      1.0  0.55434  0.70134  0.20284  1.0000
  H   H304      1.0  0.58185  0.70311  0.25124  1.0000
  H   H305      1.0  0.62466  0.68881  0.19649  1.0000
  H   H306      1.0  0.62291  0.65449  0.15380  1.0000
  H   H307      1.0  0.57939  0.62088  0.14676  1.0000
  H   H308      1.0  0.55524  0.61583  0.20068  1.0000
  H   H309      1.0  0.62965  0.59687  0.26431  1.0000
  C   C185      1.0  0.41563  0.83206  0.20372  1.0000
  H   H310      1.0  0.64153  0.61918  0.20939  1.0000
  H   H311      1.0  0.52660  0.69455  0.27787  1.0000
  H   H312      1.0  0.52917  0.65258  0.25615  1.0000
  H   H313      1.0  0.55342  0.66745  0.30739  1.0000
  H   H314      1.0  0.58638  0.68211  0.09796  1.0000
  H   H315      1.0  0.65919  0.86826  0.14940  1.0000
  H   H316      1.0  0.58421  0.71769  0.14126  1.0000
  C   C186      1.0  0.46590  0.85497  0.19073  1.0000
  H   H317      1.0  0.54045  0.67644  0.13389  1.0000
  H   H318      1.0  0.51670  0.64659  0.16631  1.0000
  H   H319      1.0  0.42514  0.80686  0.21078  1.0000
  H   H320      1.0  0.38800  0.81710  0.13847  1.0000
  C   C187      1.0  0.44603  0.85128  0.27747  1.0000
  Fe  Fe28      1.0  0.66458  0.77361  0.33502  1.0000
  H   H321      1.0  0.53506  0.63610  0.10839  1.0000
  H   H322      1.0  0.61846  0.70748  0.10960  1.0000
  H   H323      1.0  0.42854  0.90189  0.17620  1.0000
  C   C188      1.0  0.42511  0.89310  0.21634  1.0000
  H   H324      1.0  0.65398  0.92083  0.09977  1.0000
  S   S55       1.0  0.35135  0.76590  0.19833  1.0000
  H   H325      1.0  0.40293  0.83155  0.30746  1.0000
  S   S56       1.0  0.34719  0.71220  0.29556  1.0000
  H   H326      1.0  0.37789  0.90053  0.19116  1.0000
  H   H327      1.0  0.42626  0.82545  0.12183  1.0000
  H   H328      1.0  0.43806  0.91071  0.24086  1.0000
  C   C189      1.0  0.40727  0.83404  0.14627  1.0000
  H   H329      1.0  0.39406  0.83207  0.22517  1.0000
  H   H330      1.0  0.40989  0.87517  0.32233  1.0000
  H   H331      1.0  0.38015  0.87976  0.25246  1.0000
  C   C190      1.0  0.39096  0.89846  0.22753  1.0000
  H   H332      1.0  0.34466  0.89230  0.06946  1.0000
  H   H333      1.0  0.34008  0.85119  0.14078  1.0000
  H   H334      1.0  0.34321  0.64828  0.16584  1.0000
  Fe  Fe29      1.0  0.88835  0.25501  0.30152  1.0000
  S   S57       1.0  0.87011  0.24735  0.22191  1.0000
  S   S58       1.0  0.93701  0.24490  0.32945  1.0000
  Fe  Fe30      1.0  0.82493  0.27573  0.34372  1.0000
  S   S59       1.0  0.80281  0.27092  0.26587  1.0000
  S   S60       1.0  0.80291  0.29490  0.41779  1.0000
  Fe  Fe31      1.0  0.82979  0.22350  0.25914  1.0000
  S   S61       1.0  0.80667  0.17465  0.23945  1.0000
  Fe  Fe32      1.0  0.84473  0.29551  0.23465  1.0000
  S   S62       1.0  0.84863  0.33153  0.16732  1.0000
  S   S63       1.0  0.84977  0.22719  0.33862  1.0000
  S   S64       1.0  0.86510  0.30423  0.31263  1.0000
  H   H335      1.0  0.95506  0.31883  0.34693  1.0000
  H   H336      1.0  0.72486  0.18615  0.10334  1.0000
  S   S65       1.0  0.81232  0.09047  0.03357  1.0000
  H   H337      1.0  0.75530  0.12125  0.02546  1.0000
  H   H338      1.0  0.90617  0.43149  0.23708  1.0000
  S   S66       1.0  0.78697  0.47359  0.13787  1.0000
  C   C191      1.0  0.77188  0.28026  0.45541  1.0000
  C   C192      1.0  0.95922  0.39089  0.24331  1.0000
  C   C193      1.0  0.75493  0.25221  0.44201  1.0000
  H   H339      1.0  0.96754  0.19479  0.21348  1.0000
  H   H340      1.0  0.76065  0.23857  0.40767  1.0000
  C   C194      1.0  0.80510  0.43460  0.14645  1.0000
  C   C195      1.0  0.82486  0.42167  0.10971  1.0000
  C   C196      1.0  0.83831  0.39029  0.11720  1.0000
  C   C197      1.0  0.83229  0.37154  0.16154  1.0000
  C   C198      1.0  0.81316  0.38477  0.19897  1.0000
  C   C199      1.0  0.79980  0.41627  0.19153  1.0000
  H   H341      1.0  0.82960  0.43583  0.07535  1.0000
  H   H342      1.0  0.85329  0.38037  0.08825  1.0000
  H   H343      1.0  0.80845  0.37067  0.23341  1.0000
  H   H344      1.0  0.78487  0.42629  0.22051  1.0000
  C   C200      1.0  0.80657  0.15327  0.18023  1.0000
  C   C201      1.0  0.78968  0.12384  0.17593  1.0000
  C   C202      1.0  0.79067  0.10464  0.13089  1.0000
  C   C203      1.0  0.80879  0.11462  0.08986  1.0000
  C   C204      1.0  0.82526  0.14437  0.09379  1.0000
  C   C205      1.0  0.82396  0.16382  0.13858  1.0000
  H   H345      1.0  0.77626  0.11544  0.20808  1.0000
  H   H346      1.0  0.77814  0.08163  0.12851  1.0000
  H   H347      1.0  0.83936  0.15223  0.06216  1.0000
  H   H348      1.0  0.83698  0.18646  0.14133  1.0000
  C   C206      1.0  0.97921  0.25861  0.25231  1.0000
  C   C207      1.0  0.97420  0.25023  0.30368  1.0000
  H   H349      1.0  0.91314  0.13571  0.36345  1.0000
  H   H350      1.0  0.96009  0.26168  0.22672  1.0000
  H   H351      1.0  0.92201  0.34394  0.34588  1.0000
  N   N15       1.0  0.93475  0.36504  0.23727  1.0000
  C   C208      1.0  0.94294  0.33531  0.27011  1.0000
  C   C209      1.0  0.93147  0.35252  0.18301  1.0000
  C   C210      1.0  0.90452  0.37805  0.25527  1.0000
  C   C211      1.0  0.94478  0.34114  0.32856  1.0000
  H   H352      1.0  0.94467  0.11663  0.30129  1.0000
  C   C212      1.0  0.89218  0.40939  0.22836  1.0000
  C   C213      1.0  0.74060  0.17972  0.07147  1.0000
  C   C214      1.0  0.69963  0.14054  0.05295  1.0000
  H   H353      1.0  0.88361  0.08193  0.21227  1.0000
  H   H354      1.0  0.92292  0.37181  0.15638  1.0000
  H   H355      1.0  0.88692  0.35848  0.25135  1.0000
  H   H356      1.0  0.90527  0.38466  0.29657  1.0000
  H   H357      1.0  0.94268  0.41913  0.17358  1.0000
  H   H358      1.0  0.95928  0.36255  0.33875  1.0000
  H   H359      1.0  0.70263  0.41659  0.13059  1.0000
  C   C215      1.0  0.74477  0.13966  0.99931  1.0000
  C   C216      1.0  0.87274  0.10541  0.19990  1.0000
  H   H360      1.0  0.77185  0.21096  0.02502  1.0000
  H   H361      1.0  0.74256  0.34164  0.16852  1.0000
  C   C217      1.0  0.89431  0.13548  0.20314  1.0000
  H   H362      1.0  0.93659  0.06690  0.22010  1.0000
  H   H363      1.0  0.75408  0.30340  0.14191  1.0000
  H   H364      1.0  0.88073  0.15809  0.19369  1.0000
  N   N16       1.0  0.91035  0.13998  0.25386  1.0000
  H   H365      1.0  0.94941  0.10502  0.19157  1.0000
  H   H366      1.0  0.96475  0.44223  0.21782  1.0000
  H   H367      1.0  0.91016  0.13314  0.17066  1.0000
  H   H368      1.0  0.91378  0.33282  0.18121  1.0000
  C   C218      1.0  0.88606  0.14640  0.29339  1.0000
  H   H369      1.0  0.97001  0.08643  0.24268  1.0000
  H   H370      1.0  0.75805  0.16308  0.08880  1.0000
  H   H371      1.0  0.68923  0.12379  0.02381  1.0000
  H   H372      1.0  0.92670  0.31453  0.26377  1.0000
  H   H373      1.0  0.71734  0.22043  0.46174  1.0000
  H   H374      1.0  0.86542  0.10205  0.15942  1.0000
  C   C219      1.0  0.70995  0.11784  0.09775  1.0000
  C   C220      1.0  0.74291  0.32736  0.13209  1.0000
  H   H375      1.0  0.90740  0.17960  0.35040  1.0000
  H   H376      1.0  0.98303  0.41304  0.17761  1.0000
  C   C221      1.0  0.95597  0.17037  0.21205  1.0000
  H   H377      1.0  0.77712  0.36262  0.11357  1.0000
  H   H378      1.0  0.70096  0.36591  0.08620  1.0000
  C   C222      1.0  0.94675  0.09157  0.22818  1.0000
  H   H379      1.0  0.73949  0.23277  0.05054  1.0000
  H   H380      1.0  0.71754  0.13213  0.13174  1.0000
  H   H381      1.0  0.94156  0.17484  0.28901  1.0000
  H   H382      1.0  0.87102  0.16721  0.28090  1.0000
  H   H383      1.0  0.87727  0.15500  0.37427  1.0000
  H   H384      1.0  0.91317  0.09095  0.28757  1.0000
  H   H385      1.0  0.87093  0.12453  0.29760  1.0000
  C   C223      1.0  0.89713  0.15454  0.34819  1.0000
  H   H386      1.0  0.69043  0.10249  0.11026  1.0000
  H   H387      1.0  0.77457  0.40797  0.05955  1.0000
  H   H388      1.0  0.95626  0.40443  0.28017  1.0000
  H   H389      1.0  0.91607  0.19300  0.24407  1.0000
  Fe  Fe33      1.0  0.78114  0.04932  0.00450  1.0000
  C   C224      1.0  0.93012  0.17047  0.25156  1.0000
  C   C225      1.0  0.73032  0.24201  0.47281  1.0000
  H   H390      1.0  0.94794  0.16736  0.17208  1.0000
  C   C226      1.0  0.71813  0.38305  0.07058  1.0000
  C   C227      1.0  0.92844  0.10988  0.27022  1.0000
  H   H391      1.0  0.98186  0.37865  0.24633  1.0000
  H   H392      1.0  0.86918  0.41477  0.24351  1.0000
  C   C228      1.0  0.96209  0.41729  0.20022  1.0000
  C   C229      1.0  0.72438  0.40897  0.11280  1.0000
  H   H393      1.0  0.71949  0.32148  0.12046  1.0000
  N   N17       1.0  0.72378  0.16206  0.02891  1.0000
  H   H394      1.0  0.77778  0.32698  0.07393  1.0000
  C   C230      1.0  0.76227  0.34559  0.09145  1.0000
  H   H395      1.0  0.99605  0.23890  0.37574  1.0000
  H   H396      1.0  0.97354  0.15168  0.22182  1.0000
  S   S67       1.0  0.73014  0.05068  0.00304  1.0000
  H   H397      1.0  0.88947  0.40625  0.18646  1.0000
  H   H398      1.0  0.73451  0.43184  0.09652  1.0000
  H   H399      1.0  0.77018  0.22079  0.09143  1.0000
  H   H400      1.0  0.72803  0.10028  0.08651  1.0000
  H   H401      1.0  0.69438  0.20445  0.01792  1.0000
  H   H402      1.0  0.73928  0.39932  0.14370  1.0000
  H   H403      1.0  0.85181  0.10953  0.22244  1.0000
  C   C231      1.0  0.75633  0.21281  0.05797  1.0000
  H   H404      1.0  0.72229  0.29653  0.04374  1.0000
  H   H405      1.0  0.68078  0.15619  0.06798  1.0000
  S   S68       1.0  0.72282  0.49823  0.04591  1.0000
  N   N18       1.0  0.74562  0.36498  0.05045  1.0000
  H   H406      1.0  0.96556  0.32543  0.25928  1.0000
  C   C232      1.0  0.73647  0.34295  0.00639  1.0000
  C   C233      1.0  0.96040  0.33774  0.15894  1.0000
  Fe  Fe34      1.0  0.77301  0.49609  0.06079  1.0000
  H   H407      1.0  0.70619  0.39621  0.03871  1.0000
  H   H408      1.0  0.79047  0.16118  0.99859  1.0000
  H   H409      1.0  0.69131  0.32589  0.03230  1.0000
  H   H410      1.0  0.98032  0.35416  0.16304  1.0000
  H   H411      1.0  0.80835  0.35997  0.02600  1.0000
  H   H412      1.0  0.95647  0.33390  0.11726  1.0000
  H   H413      1.0  0.96580  0.31301  0.17537  1.0000
  C   C234      1.0  0.76676  0.39094  0.02902  1.0000
  H   H414      1.0  0.75479  0.40714  0.00105  1.0000
  C   C235      1.0  0.79556  0.37800  0.00212  1.0000
  C   C236      1.0  0.71296  0.31578  0.01765  1.0000
  C   C237      1.0  0.68669  0.15818  0.80061  1.0000
  S   S69       1.0  0.70484  0.28436  0.69522  1.0000
  S   S70       1.0  0.69109  0.24540  0.55503  1.0000
  H   H415      1.0  0.78055  0.12397  0.73592  1.0000
  S   S71       1.0  0.71580  0.21912  0.79901  1.0000
  Fe  Fe35      1.0  0.73458  0.04089  0.91867  1.0000
  S   S72       1.0  0.70377  0.06666  0.86064  1.0000
  S   S73       1.0  0.78530  0.04237  0.91900  1.0000
  C   C238      1.0  0.77109  0.24602  0.63740  1.0000
  S   S74       1.0  0.70892  0.43335  0.94377  1.0000
  N   N19       1.0  0.77895  0.49806  0.76096  1.0000
  C   C239      1.0  0.68536  0.38937  0.78618  1.0000
  H   H416      1.0  0.80084  0.20827  0.66754  1.0000
  C   C240      1.0  0.70056  0.41715  0.88234  1.0000
  C   C241      1.0  0.70212  0.43658  0.83796  1.0000
  C   C242      1.0  0.69422  0.42278  0.79009  1.0000
  H   H417      1.0  0.70849  0.46236  0.84089  1.0000
  C   C243      1.0  0.72232  0.25955  0.51748  1.0000
  C   C244      1.0  0.71229  0.17650  0.81446  1.0000
  C   C245      1.0  0.73591  0.16064  0.84132  1.0000
  C   C246      1.0  0.73386  0.12681  0.85475  1.0000
  C   C247      1.0  0.70791  0.10872  0.84221  1.0000
  H   H418      1.0  0.78030  0.13858  0.94206  1.0000
  H   H419      1.0  0.76534  0.17863  0.94999  1.0000
  H   H420      1.0  0.75599  0.17452  0.85148  1.0000
  H   H421      1.0  0.75226  0.11460  0.87475  1.0000
  H   H422      1.0  0.77446  0.16730  0.74650  1.0000
  H   H423      1.0  0.75114  0.16004  0.56915  1.0000
  C   C248      1.0  0.73941  0.28740  0.53112  1.0000
  C   C249      1.0  0.76731  0.14590  0.72273  1.0000
  H   H424      1.0  0.73532  0.48034  0.68034  1.0000
  H   H425      1.0  0.73358  0.30129  0.56517  1.0000
  S   S75       1.0  0.67565  0.37299  0.72546  1.0000
  H   H426      1.0  0.79522  0.18368  0.52275  1.0000
  H   H427      1.0  0.74688  0.25163  0.63103  1.0000
  H   H428      1.0  0.72449  0.20275  0.97363  1.0000
  H   H429      1.0  0.69464  0.43801  0.75591  1.0000
  C   C250      1.0  0.68399  0.36996  0.83058  1.0000
  H   H430      1.0  0.80342  0.44487  0.82554  1.0000
  H   H431      1.0  0.66835  0.17009  0.77991  1.0000
  H   H432      1.0  0.71662  0.20876  0.63872  1.0000
  C   C251      1.0  0.78406  0.49528  0.81798  1.0000
  H   H433      1.0  0.83166  0.47736  0.81936  1.0000
  H   H434      1.0  0.68329  0.16037  0.65537  1.0000
  C   C252      1.0  0.79562  0.18033  0.56509  1.0000
  C   C253      1.0  0.70619  0.15696  0.63867  1.0000
  H   H435      1.0  0.75135  0.20379  0.56716  1.0000
  H   H436      1.0  0.78511  0.44574  0.74454  1.0000
  C   C254      1.0  0.77321  0.15177  0.66512  1.0000
  H   H437      1.0  0.72332  0.18926  0.69798  1.0000
  H   H438      1.0  0.68907  0.36893  0.91264  1.0000
  H   H439      1.0  0.74317  0.14023  0.73036  1.0000
  H   H440      1.0  0.70741  0.30298  0.98109  1.0000
  H   H441      1.0  0.69716  0.15242  0.93097  1.0000
  H   H442      1.0  0.82371  0.48437  0.73357  1.0000
  C   C255      1.0  0.80917  0.47092  0.83514  1.0000
  H   H443      1.0  0.74895  0.43884  0.67605  1.0000
  C   C256      1.0  0.68452  0.12444  0.81454  1.0000
  H   H444      1.0  0.81145  0.47223  0.87750  1.0000
  H   H445      1.0  0.72736  0.35835  0.97423  1.0000
  H   H446      1.0  0.80597  0.15569  0.57295  1.0000
  H   H447      1.0  0.74858  0.45599  0.76652  1.0000
  C   C257      1.0  0.68649  0.17236  0.95365  1.0000
  H   H448      1.0  0.78053  0.26640  0.66120  1.0000
  C   C258      1.0  0.72653  0.18600  0.65599  1.0000
  N   N20       1.0  0.75967  0.18306  0.64284  1.0000
  H   H449      1.0  0.76524  0.12942  0.64402  1.0000
  H   H450      1.0  0.76885  0.21664  0.70593  1.0000
  C   C259      1.0  0.76284  0.18209  0.58533  1.0000
  H   H451      1.0  0.79826  0.15167  0.66037  1.0000
  C   C260      1.0  0.76722  0.46520  0.74181  1.0000
  C   C261      1.0  0.77595  0.21258  0.66541  1.0000
  H   H452      1.0  0.70323  0.15676  0.59641  1.0000
  Fe  Fe36      1.0  0.68268  0.24731  0.74759  1.0000
  H   H453      1.0  0.81040  0.19999  0.58091  1.0000
  C   C262      1.0  0.70809  0.18691  0.99444  1.0000
  H   H454      1.0  0.78290  0.24695  0.59996  1.0000
  H   H455      1.0  0.77683  0.31935  0.51111  1.0000
  H   H456      1.0  0.71447  0.13250  0.65224  1.0000
  H   H457      1.0  0.77348  0.47214  0.65824  1.0000
  H   H458      1.0  0.79021  0.36705  0.96416  1.0000
  Fe  Fe37      1.0  0.67476  0.26449  0.63327  1.0000
  S   S76       1.0  0.78444  0.47614  0.98296  1.0000
  H   H459      1.0  0.67980  0.19224  0.92617  1.0000
  C   C263      1.0  0.77162  0.15599  0.97153  1.0000
  H   H460      1.0  0.76310  0.48693  0.83773  1.0000
  C   C264      1.0  0.69116  0.38394  0.87846  1.0000
  C   C265      1.0  0.75574  0.46464  0.68586  1.0000
  H   H461      1.0  0.67686  0.34434  0.82810  1.0000
  Fe  Fe38      1.0  0.73442  0.48018  0.96671  1.0000
  H   H462      1.0  0.73247  0.12367  0.97148  1.0000
  C   C266      1.0  0.76397  0.29762  0.50031  1.0000
  H   H463      1.0  0.71353  0.49787  0.75891  1.0000
  H   H464      1.0  0.75642  0.32952  0.99070  1.0000
  H   H465      1.0  0.81089  0.39932  0.99471  1.0000
  H   H466      1.0  0.77527  0.61878  0.31904  1.0000
  S   S77       1.0  0.70168  0.76285  0.27954  1.0000
  H   H467      1.0  0.71933  0.57870  0.12898  1.0000
  S   S78       1.0  0.71308  0.83210  0.18533  1.0000
  H   H468      1.0  0.77996  0.73462  0.03991  1.0000
  H   H469      1.0  0.81613  0.68378  0.44180  1.0000
  S   S79       1.0  0.69705  0.96724  0.05971  1.0000
  C   C267      1.0  0.75313  0.82504  0.04147  1.0000
  S   S80       1.0  0.77975  0.54957  0.03725  1.0000
  S   S81       1.0  0.70200  0.59655  0.02463  1.0000
  H   H470      1.0  0.69083  0.70665  0.37429  1.0000
  H   H471      1.0  0.79298  0.72068  0.31969  1.0000
  H   H472      1.0  0.79289  0.71459  0.41168  1.0000
  H   H473      1.0  0.75687  0.68495  0.02016  1.0000
  C   C268      1.0  0.70031  0.61822  0.08341  1.0000
  H   H474      1.0  0.68081  0.69948  0.43950  1.0000
  C   C269      1.0  0.72590  0.68119  0.42121  1.0000
  H   H475      1.0  0.71104  0.64627  0.33649  1.0000
  H   H476      1.0  0.67563  0.69259  0.13130  1.0000
  H   H477      1.0  0.72112  0.86579  0.04022  1.0000
  C   C270      1.0  0.70195  0.93045  0.09649  1.0000
  C   C271      1.0  0.73059  0.91909  0.11155  1.0000
  C   C272      1.0  0.73348  0.88929  0.13966  1.0000
  C   C273      1.0  0.70780  0.87067  0.15341  1.0000
  C   C274      1.0  0.68520  0.66785  0.13093  1.0000
  H   H478      1.0  0.75049  0.93333  0.10170  1.0000
  C   C275      1.0  0.75183  0.62579  0.30834  1.0000
  H   H479      1.0  0.74688  0.82524  0.08274  1.0000
  C   C276      1.0  0.70962  0.77111  0.45252  1.0000
  C   C277      1.0  0.73679  0.77701  0.42664  1.0000
  C   C278      1.0  0.76479  0.77329  0.45235  1.0000
  H   H480      1.0  0.73622  0.78472  0.38686  1.0000
  H   H481      1.0  0.78898  0.67796  0.29948  1.0000
  H   H482      1.0  0.75575  0.88058  0.15080  1.0000
  H   H483      1.0  0.73039  0.62092  0.38207  1.0000
  H   H484      1.0  0.76146  0.87719  0.47812  1.0000
  H   H485      1.0  0.68045  0.66191  0.04902  1.0000
  H   H486      1.0  0.73402  0.70411  0.44047  1.0000
  H   H487      1.0  0.75160  0.64248  0.27440  1.0000
  H   H488      1.0  0.71316  0.60866  0.21132  1.0000
  H   H489      1.0  0.78561  0.77806  0.43186  1.0000
  C   C279      1.0  0.70995  0.60356  0.12928  1.0000
  H   H490      1.0  0.74331  0.91461  0.00758  1.0000
  Fe  Fe39      1.0  0.73054  0.54980  0.01589  1.0000
  H   H491      1.0  0.74799  0.72397  0.36127  1.0000
  H   H492      1.0  0.76967  0.71042  0.26682  1.0000
  C   C280      1.0  0.77688  0.70162  0.30545  1.0000
  C   C281      1.0  0.78190  0.72899  0.99832  1.0000
  S   S82       1.0  0.78338  0.99434  0.02134  1.0000
  C   C282      1.0  0.74865  0.69990  0.34042  1.0000
  H   H493      1.0  0.68017  0.66545  0.39617  1.0000
  H   H494      1.0  0.79386  0.65452  0.37334  1.0000
  S   S83       1.0  0.68783  0.67193  0.23701  1.0000
  H   H495      1.0  0.79954  0.65336  0.02633  1.0000
  H   H496      1.0  0.72555  0.66167  0.45161  1.0000
  C   C283      1.0  0.70652  0.62066  0.17591  1.0000
  C   C284      1.0  0.69401  0.65275  0.17699  1.0000
  N   N21       1.0  0.74690  0.67143  0.37806  1.0000
  H   H497      1.0  0.77733  0.83162  0.03982  1.0000
  H   H498      1.0  0.74043  0.60256  0.29602  1.0000
  H   H499      1.0  0.74084  0.91510  0.48455  1.0000
  Fe  Fe40      1.0  0.73262  0.99494  0.01299  1.0000
  C   C285      1.0  0.77709  0.66279  0.40203  1.0000
  C   C286      1.0  0.73378  0.64091  0.35301  1.0000
  C   C287      1.0  0.79231  0.69081  0.43300  1.0000
  H   H500      1.0  0.78303  0.88534  0.05553  1.0000
  C   C288      1.0  0.68804  0.65047  0.08437  1.0000
  H   H501      1.0  0.77465  0.64114  0.42843  1.0000
  H   H502      1.0  0.72835  0.70000  0.31505  1.0000
  C   C289      1.0  0.67912  0.88233  0.13914  1.0000
  H   H503      1.0  0.80620  0.88188  0.99762  1.0000
  H   H504      1.0  0.78101  0.69460  0.47051  1.0000
  C   C290      1.0  0.69266  0.68842  0.40607  1.0000
  H   H505      1.0  0.79728  0.92107  0.02410  1.0000
  H   H506      1.0  0.74994  0.79896  0.02894  1.0000
  C   C291      1.0  0.78800  0.89587  0.01720  1.0000
  Fe  Fe41      1.0  0.67856  0.79954  0.22683  1.0000
  S   S84       1.0  0.67369  0.77517  0.42169  1.0000
  Fe  Fe42      1.0  0.67057  0.72477  0.24599  1.0000
  C   C292      1.0  0.73132  0.84846  0.01194  1.0000
  C   C293      1.0  0.67626  0.91209  0.11087  1.0000
  H   H507      1.0  0.71230  0.83245  0.99870  1.0000
  Fe  Fe43      1.0  0.81276  0.79018  0.72407  1.0000
  S   S85       1.0  0.84142  0.79817  0.65428  1.0000
  S   S86       1.0  0.78110  0.82882  0.75902  1.0000
  Fe  Fe44      1.0  0.82154  0.71462  0.71964  1.0000
  S   S87       1.0  0.85093  0.71754  0.64863  1.0000
  S   S88       1.0  0.79579  0.67044  0.75326  1.0000
  Fe  Fe45      1.0  0.87384  0.76058  0.68902  1.0000
  S   S89       1.0  0.92353  0.77805  0.68086  1.0000
  Fe  Fe46      1.0  0.81693  0.75499  0.61868  1.0000
  S   S90       1.0  0.80233  0.75825  0.53380  1.0000
  S   S91       1.0  0.84608  0.75550  0.76210  1.0000
  S   S92       1.0  0.78653  0.74926  0.68630  1.0000
  Fe  Fe47      1.0  0.78343  0.98754  0.93547  1.0000
  S   S93       1.0  0.73292  0.98524  0.92807  1.0000
  S   S94       1.0  0.81678  0.95015  0.90238  1.0000
  Fe  Fe48      1.0  0.78653  0.52986  0.95752  1.0000
  S   S95       1.0  0.73748  0.53208  0.93471  1.0000
  S   S96       1.0  0.82426  0.55236  0.90941  1.0000
  H   H508      1.0  0.78909  0.51993  0.83478  1.0000
  C   C294      1.0  0.73896  0.75761  0.53010  1.0000
  H   H509      1.0  0.73953  0.74935  0.56959  1.0000
  H   H510      1.0  0.81656  0.90190  0.62065  1.0000
  C   C295      1.0  0.80509  0.63771  0.79598  1.0000
  C   C296      1.0  0.78147  0.61740  0.81365  1.0000
  C   C297      1.0  0.78709  0.59164  0.84893  1.0000
  C   C298      1.0  0.81655  0.58535  0.86618  1.0000
  C   C299      1.0  0.84036  0.60514  0.84764  1.0000
  C   C300      1.0  0.83464  0.63151  0.81310  1.0000
  H   H511      1.0  0.75857  0.62194  0.80045  1.0000
  H   H512      1.0  0.76857  0.57658  0.86254  1.0000
  H   H513      1.0  0.86330  0.60030  0.86045  1.0000
  H   H514      1.0  0.85306  0.64684  0.79952  1.0000
  C   C301      1.0  0.79231  0.86387  0.79506  1.0000
  C   C302      1.0  0.77068  0.88851  0.80609  1.0000
  C   C303      1.0  0.77806  0.91566  0.83770  1.0000
  C   C304      1.0  0.80711  0.91819  0.85890  1.0000
  C   C305      1.0  0.82890  0.89393  0.84687  1.0000
  C   C306      1.0  0.82159  0.86690  0.81500  1.0000
  H   H515      1.0  0.74799  0.88638  0.79068  1.0000
  H   H516      1.0  0.76120  0.93436  0.84628  1.0000
  H   H517      1.0  0.85147  0.89581  0.86292  1.0000
  H   H518      1.0  0.83843  0.84811  0.80672  1.0000
  H   H519      1.0  0.72856  0.83375  0.55405  1.0000
  C   C307      1.0  0.96122  0.76194  0.68788  1.0000
  C   C308      1.0  0.96752  0.73164  0.71213  1.0000
  H   H520      1.0  0.98125  0.80417  0.65018  1.0000
  H   H521      1.0  0.94907  0.71675  0.72665  1.0000
  C   C309      1.0  0.76647  0.84750  0.93614  1.0000
  H   H522      1.0  0.80341  0.51096  0.69184  1.0000
  N   N22       1.0  0.76777  0.67935  0.93905  1.0000
  C   C310      1.0  0.81764  0.85911  0.54396  1.0000
  H   H523      1.0  0.70914  0.67370  0.88819  1.0000
  H   H524      1.0  0.77264  0.80093  0.89525  1.0000
  C   C311      1.0  0.72458  0.52074  0.77311  1.0000
  H   H525      1.0  0.83320  0.53349  0.79331  1.0000
  C   C312      1.0  0.77574  0.87227  0.64002  1.0000
  C   C313      1.0  0.74515  0.65129  0.93691  1.0000
  H   H526      1.0  0.70189  0.92512  0.96288  1.0000
  C   C314      1.0  0.75909  0.89928  0.98447  1.0000
  N   N23       1.0  0.74415  0.86755  0.96711  1.0000
  H   H527      1.0  0.78804  0.85062  0.65676  1.0000
  H   H528      1.0  0.75555  0.79710  0.62013  1.0000
  H   H529      1.0  0.74039  0.82374  0.87434  1.0000
  C   C315      1.0  0.80796  0.50601  0.73314  1.0000
  C   C316      1.0  0.75357  0.81659  0.90903  1.0000
  H   H530      1.0  0.72713  0.89023  0.89703  1.0000
  C   C317      1.0  0.69357  0.89969  0.95529  1.0000
  H   H531      1.0  0.69809  0.63811  0.92417  1.0000
  H   H532      1.0  0.79345  0.82098  0.58192  1.0000
  N   N24       1.0  0.76451  0.86411  0.58666  1.0000
  H   H533      1.0  0.69006  0.75704  0.52501  1.0000
  H   H534      1.0  0.81710  0.68277  0.94348  1.0000
  C   C318      1.0  0.71837  0.87729  0.93179  1.0000
  C   C319      1.0  0.73689  0.81443  0.62920  1.0000
  H   H535      1.0  0.80606  0.72288  0.99282  1.0000
  C   C320      1.0  0.71192  0.66112  0.92577  1.0000
  H   H536      1.0  0.81571  0.88531  0.53189  1.0000
  H   H537      1.0  0.70218  0.67652  0.95680  1.0000
  H   H538      1.0  0.74538  0.71658  0.89166  1.0000
  C   C321      1.0  0.79274  0.71954  0.87283  1.0000
  H   H539      1.0  0.73921  0.90985  0.57907  1.0000
  C   C322      1.0  0.73567  0.84417  0.59175  1.0000
  H   H540      1.0  0.80118  0.73662  0.90264  1.0000
  H   H541      1.0  0.78398  0.92618  0.64027  1.0000
  H   H542      1.0  0.78599  0.83893  0.95935  1.0000
  C   C323      1.0  0.82570  0.53645  0.75296  1.0000
  H   H543      1.0  0.75636  0.87717  0.66631  1.0000
  H   H544      1.0  0.77622  0.91248  0.55468  1.0000
  C   C324      1.0  0.76495  0.69913  0.88983  1.0000
  H   H545      1.0  0.75172  0.63285  0.90729  1.0000
  H   H546      1.0  0.77693  0.86329  0.90614  1.0000
  C   C325      1.0  0.78724  0.84299  0.55850  1.0000
  H   H547      1.0  0.81267  0.55988  0.74880  1.0000
  C   C326      1.0  0.98577  0.78084  0.66940  1.0000
  H   H548      1.0  0.77735  0.83178  0.52327  1.0000
  H   H549      1.0  0.73892  0.82246  0.66972  1.0000
  H   H550      1.0  0.80540  0.90308  0.68620  1.0000
  C   C327      1.0  0.99782  0.72068  0.71817  1.0000
  H   H551      1.0  0.99464  0.86703  0.79530  1.0000
  H   H552      1.0  0.80357  0.64914  0.90799  1.0000
  H   H553      1.0  0.73940  0.80133  0.93490  1.0000
  H   H554      1.0  0.76011  0.68233  0.85682  1.0000
  H   H555      1.0  0.71659  0.86026  0.60469  1.0000
  H   H556      1.0  0.71545  0.80019  0.62606  1.0000
  H   H557      1.0  0.81146  0.70309  0.85995  1.0000
  H   H558      1.0  0.78636  0.73490  0.83895  1.0000
  C   C328      1.0  0.79666  0.90263  0.64613  1.0000
  H   H559      1.0  0.75425  0.53067  0.70903  1.0000
  H   H560      1.0  0.83429  0.85679  0.57581  1.0000
  C   C329      1.0  0.75660  0.52572  0.75089  1.0000
  H   H561      1.0  0.76488  0.54945  0.76740  1.0000
  H   H562      1.0  0.76509  0.91491  0.95069  1.0000
  H   H563      1.0  0.70620  0.85499  0.91753  1.0000
  H   H564      1.0  0.74477  0.63735  0.97376  1.0000
  H   H565      1.0  0.84656  0.53946  0.72972  1.0000
  C   C330      1.0  0.71091  0.76172  0.50455  1.0000
  H   H566      1.0  0.73765  0.71237  0.97974  1.0000
  H   H567      1.0  0.98146  0.84158  0.74393  1.0000
  H   H568      1.0  0.72481  0.52075  0.81564  1.0000
  C   C331      1.0  0.76614  0.76351  0.50419  1.0000
  C   C332      1.0  0.79888  0.66395  0.94294  1.0000
  H   H569      1.0  0.71003  0.54193  0.76105  1.0000
  H   H570      1.0  0.67467  0.90239  0.92736  1.0000
  C   C333      1.0  0.75666  0.89543  0.55769  1.0000
  H   H571      1.0  0.77607  0.75172  0.97621  1.0000
  H   H572      1.0  0.68388  0.88917  0.99096  1.0000
  C   C334      1.0  0.76015  0.70037  0.98505  1.0000
  H   H573      1.0  0.82699  0.84598  0.51004  1.0000
  H   H574      1.0  0.79136  0.61756  0.98621  1.0000
  C   C335      1.0  0.80446  0.64095  0.98940  1.0000
  H   H575      1.0  0.72279  0.87719  0.50159  1.0000
  C   C336      1.0  0.74480  0.89041  0.50248  1.0000
  H   H576      1.0  0.82872  0.63349  0.99005  1.0000
