data_image0
_chemical_formula_structural       HCSH2SH2SC7H9CHC2H2CH3FeHCHCN2H2CH3C2HC2HFeCH6SH5CHSHS2HSFeS2CHS2H2C6H2CHC6H8CNC8H21CFe2H2CH2SH6CHFeH2C2FeCH2C2FeH3NH2FeSHFeH2FeHSFeSCSHC8H3CHC2H2SHCHCH2C2H3CHCHCH4NH3SH4NHC2HC3H2CH2CH2SHC4H4NSCH3C2H2CH2CHCHSH5FeSHFeHSFeS2CSCHC5H3C3H3CHNC6H13CH2S2H2CHC2H2C2HSCH3CHCHSFeS2FeS2FeS2C6H6C6H5SHCHCHSCHCH12C2HC2H3NHSCH6CHCNC4FeH4FeHSH2CSH3C3H2C2SFeS2CH3C6H6NC3H2CH12FeH4C3H2SCH2FeCHCH2CHSH2CSHCH3S2HFeS2CFeHFeS2CHC3H3SC5HCHCH3C3H3NC3HC2H13SHSHCH3C3H6FeS2FeS2FeS2HCH2S2NH2C6H2CHC6H7CFe2H7CH5FeH3CHCH3CHCH2FeCHSCH3CSC2HCNC2H2CH4CHSCH2CHCSH7C3NHC2HCFeSHSC7H4FeH2CH2CH7CH2SH2CH2C2H2CH2NCSCSHCH5CH3CH4NC2H3S2HSC7H3CH10CHNCH2CH6CH2FeC2HFeH4CH2S2FeS2FeHSHNHCHCHS2FeSFeCSC6H4C6H5SH4C2H4CH3CNC8H20CHC2SHSH2CHNH3CFeH2C2H2FeHCH2NHCH2CHFeS2FeSHSC9H8C3HFeH2CSCHFeHNH5CH2CH2CHCNH4CHCH2FeSH2C2HCSCH5C2H2C2H2C2H2CH5CH3CH
_chemical_formula_sum              "H576 C336 S96 Fe48 N24"
_cell_length_a       36.9472
_cell_length_b       30.0064
_cell_length_c       43.9585
_cell_angle_alpha    90.2217
_cell_angle_beta     90.3976
_cell_angle_gamma    90.0795

_space_group_name_H-M_alt    "P 1"
_space_group_IT_number       1

loop_
  _space_group_symop_operation_xyz
  'x, y, z'

loop_
  _atom_site_type_symbol
  _atom_site_label
  _atom_site_symmetry_multiplicity
  _atom_site_fract_x
  _atom_site_fract_y
  _atom_site_fract_z
  _atom_site_occupancy
  H   H1        1.0  0.23692  0.23611  0.04348  1.0000
  C   C1        1.0  0.03777  0.05729  0.28123  1.0000
  S   S1        1.0  0.06270  0.17059  0.04103  1.0000
  H   H2        1.0  0.31378  0.26373  0.03546  1.0000
  H   H3        1.0  0.05062  0.08311  0.23643  1.0000
  S   S2        1.0  0.19339  0.03305  0.05141  1.0000
  H   H4        1.0  0.19443  0.16164  0.05632  1.0000
  H   H5        1.0  0.00375  0.07219  0.24066  1.0000
  S   S3        1.0  0.28945  0.03380  0.01035  1.0000
  C   C2        1.0  0.23390  0.17482  0.00122  1.0000
  C   C3        1.0  0.09817  0.13106  0.04345  1.0000
  C   C4        1.0  0.08871  0.27880  0.32218  1.0000
  C   C5        1.0  0.21935  0.15488  0.06954  1.0000
  C   C6        1.0  0.15657  0.07030  0.04726  1.0000
  C   C7        1.0  0.12970  0.07119  0.06968  1.0000
  C   C8        1.0  0.10037  0.10092  0.06757  1.0000
  H   H6        1.0  0.06875  0.26433  0.30570  1.0000
  H   H7        1.0  0.27478  0.13771  0.06614  1.0000
  H   H8        1.0  0.13152  0.04865  0.08879  1.0000
  H   H9        1.0  0.07999  0.10133  0.08510  1.0000
  H   H10       1.0  0.06647  0.04737  0.28386  1.0000
  H   H11       1.0  0.10885  0.33860  0.27679  1.0000
  H   H12       1.0  0.08836  0.99777  0.04607  1.0000
  H   H13       1.0  0.27311  0.29103  0.02519  1.0000
  H   H14       1.0  0.27679  0.21984  0.06345  1.0000
  C   C9        1.0  0.12525  0.13053  0.02113  1.0000
  H   H15       1.0  0.14809  0.33669  0.32485  1.0000
  C   C10       1.0  0.25239  0.14315  0.04961  1.0000
  C   C11       1.0  0.03096  0.05946  0.24657  1.0000
  H   H16       1.0  0.08343  0.38758  0.26925  1.0000
  H   H17       1.0  0.33274  0.18967  0.04954  1.0000
  C   C12       1.0  0.26473  0.22258  0.04021  1.0000
  H   H18       1.0  0.24713  0.10992  0.03898  1.0000
  H   H19       1.0  0.20657  0.18068  0.01071  1.0000
  H   H20       1.0  0.04292  0.33711  0.29481  1.0000
  Fe  Fe1       1.0  0.00786  0.15570  0.06197  1.0000
  H   H21       1.0  0.11506  0.38884  0.29985  1.0000
  C   C13       1.0  0.02384  0.02548  0.33199  1.0000
  H   H22       1.0  0.21321  0.12594  0.08437  1.0000
  C   C14       1.0  0.28740  0.25854  0.02368  1.0000
  N   N1        1.0  0.01254  0.02752  0.29887  1.0000
  N   N2        1.0  0.26273  0.17695  0.02572  1.0000
  H   H23       1.0  0.12375  0.15372  0.00238  1.0000
  H   H24       1.0  0.11361  0.28336  0.30875  1.0000
  C   C15       1.0  0.06450  0.35275  0.30921  1.0000
  H   H25       1.0  0.03852  0.19390  0.23543  1.0000
  H   H26       1.0  0.42332  0.43334  0.00803  1.0000
  H   H27       1.0  0.22505  0.18358  0.08482  1.0000
  C   C16       1.0  0.29825  0.16228  0.01225  1.0000
  C   C17       1.0  0.15407  0.09984  0.02277  1.0000
  H   H28       1.0  0.01389  0.17120  0.18488  1.0000
  C   C18       1.0  0.09521  0.36714  0.28787  1.0000
  C   C19       1.0  0.33085  0.16025  0.03436  1.0000
  H   H29       1.0  0.33027  0.12935  0.04815  1.0000
  Fe  Fe2       1.0  0.23024  0.01535  0.01214  1.0000
  C   C20       1.0  0.01230  0.17792  0.23398  1.0000
  H   H30       1.0  0.03679  0.09195  0.29040  1.0000
  H   H31       1.0  0.17453  0.09947  0.00535  1.0000
  H   H32       1.0  0.03522  0.02670  0.23541  1.0000
  H   H33       1.0  0.10197  0.04240  0.00316  1.0000
  H   H34       1.0  0.04656  0.06703  0.01986  1.0000
  H   H35       1.0  0.29538  0.12860  0.00189  1.0000
  S   S4        1.0  0.01270  0.18434  0.29643  1.0000
  H   H36       1.0  0.00525  0.04781  0.00380  1.0000
  H   H37       1.0  0.04362  0.01681  0.05673  1.0000
  H   H38       1.0  0.07915  0.99741  0.32717  1.0000
  H   H39       1.0  0.05296  0.38446  0.31799  1.0000
  H   H40       1.0  0.35622  0.15890  0.02092  1.0000
  C   C21       1.0  0.10088  0.34460  0.35673  1.0000
  H   H41       1.0  0.30696  0.44494  0.58974  1.0000
  S   S5        1.0  0.20923  0.45175  0.46572  1.0000
  H   H42       1.0  0.02172  0.04164  0.51856  1.0000
  S   S6        1.0  0.08022  0.22617  0.42542  1.0000
  S   S7        1.0  0.04030  0.13839  0.37366  1.0000
  H   H43       1.0  0.15505  0.31566  0.36300  1.0000
  S   S8        1.0  0.46477  0.30254  0.59602  1.0000
  Fe  Fe3       1.0  0.43614  0.34668  0.56155  1.0000
  S   S9        1.0  0.38288  0.33485  0.53680  1.0000
  S   S10       1.0  0.44813  0.41038  0.58653  1.0000
  C   C22       1.0  0.09707  0.24225  0.34577  1.0000
  H   H44       1.0  0.39216  0.48674  0.52398  1.0000
  S   S11       1.0  0.10052  0.43296  0.45323  1.0000
  S   S12       1.0  0.24552  0.46031  0.55093  1.0000
  H   H45       1.0  0.36030  0.46636  0.44592  1.0000
  H   H46       1.0  0.11323  0.25482  0.36531  1.0000
  C   C23       1.0  0.34665  0.37303  0.53996  1.0000
  C   C24       1.0  0.32110  0.37593  0.51622  1.0000
  C   C25       1.0  0.29091  0.40425  0.51868  1.0000
  C   C26       1.0  0.28540  0.42882  0.54537  1.0000
  C   C27       1.0  0.31107  0.42616  0.56900  1.0000
  C   C28       1.0  0.34189  0.39894  0.56614  1.0000
  H   H47       1.0  0.32463  0.35599  0.49590  1.0000
  H   H48       1.0  0.27138  0.40596  0.50031  1.0000
  C   C29       1.0  0.01422  0.01922  0.50024  1.0000
  H   H49       1.0  0.36125  0.39672  0.58464  1.0000
  C   C30       1.0  0.08542  0.28356  0.43348  1.0000
  C   C31       1.0  0.05563  0.31195  0.43577  1.0000
  C   C32       1.0  0.06087  0.35757  0.44192  1.0000
  C   C33       1.0  0.09585  0.37530  0.44565  1.0000
  C   C34       1.0  0.12572  0.34704  0.44290  1.0000
  C   C35       1.0  0.12048  0.30123  0.43717  1.0000
  H   H50       1.0  0.02853  0.29870  0.43310  1.0000
  H   H51       1.0  0.03762  0.37928  0.44394  1.0000
  H   H52       1.0  0.15278  0.36051  0.44503  1.0000
  H   H53       1.0  0.14367  0.27946  0.43517  1.0000
  H   H54       1.0  0.09389  0.38046  0.35972  1.0000
  H   H55       1.0  0.49903  0.04406  0.41767  1.0000
  H   H56       1.0  0.01311  0.06999  0.62104  1.0000
  H   H57       1.0  0.43083  0.48083  0.41396  1.0000
  C   C36       1.0  0.14166  0.34181  0.34909  1.0000
  N   N3        1.0  0.17221  0.34467  0.54435  1.0000
  C   C37       1.0  0.18012  0.36557  0.57506  1.0000
  C   C38       1.0  0.15336  0.37956  0.52544  1.0000
  C   C39       1.0  0.20796  0.33235  0.53013  1.0000
  C   C40       1.0  0.14911  0.30388  0.54944  1.0000
  C   C41       1.0  0.20550  0.33905  0.59639  1.0000
  C   C42       1.0  0.11620  0.39504  0.53724  1.0000
  C   C43       1.0  0.20860  0.32543  0.49536  1.0000
  C   C44       1.0  0.13225  0.28100  0.52118  1.0000
  H   H58       1.0  0.19259  0.39916  0.57236  1.0000
  H   H59       1.0  0.15474  0.37132  0.58797  1.0000
  H   H60       1.0  0.14887  0.36859  0.50170  1.0000
  H   H61       1.0  0.17099  0.40951  0.52336  1.0000
  H   H62       1.0  0.22841  0.35888  0.53482  1.0000
  H   H63       1.0  0.21909  0.30144  0.54054  1.0000
  H   H64       1.0  0.16507  0.27756  0.56115  1.0000
  H   H65       1.0  0.12676  0.31087  0.56565  1.0000
  H   H66       1.0  0.20747  0.35683  0.61857  1.0000
  H   H67       1.0  0.19519  0.30511  0.60108  1.0000
  H   H68       1.0  0.23347  0.33723  0.58739  1.0000
  H   H69       1.0  0.09688  0.36697  0.53946  1.0000
  H   H70       1.0  0.11858  0.41361  0.55900  1.0000
  H   H71       1.0  0.10412  0.41848  0.52050  1.0000
  H   H72       1.0  0.18796  0.30167  0.48701  1.0000
  H   H73       1.0  0.23547  0.31194  0.48885  1.0000
  H   H74       1.0  0.20561  0.35753  0.48323  1.0000
  H   H75       1.0  0.15035  0.25466  0.51212  1.0000
  H   H76       1.0  0.12473  0.30409  0.50274  1.0000
  H   H77       1.0  0.10626  0.26503  0.52762  1.0000
  H   H78       1.0  0.33503  0.47996  0.50031  1.0000
  C   C45       1.0  0.04036  0.31135  0.35200  1.0000
  Fe  Fe4       1.0  0.15079  0.47251  0.46679  1.0000
  Fe  Fe5       1.0  0.02880  0.19347  0.40703  1.0000
  H   H79       1.0  0.07178  0.22688  0.35427  1.0000
  H   H80       1.0  0.01764  0.07005  0.46563  1.0000
  C   C46       1.0  0.41668  0.48701  0.47777  1.0000
  H   H81       1.0  0.38733  0.43521  0.50275  1.0000
  H   H82       1.0  0.00724  0.02739  0.66469  1.0000
  S   S13       1.0  0.48407  0.35129  0.53018  1.0000
  H   H83       1.0  0.47589  0.09860  0.45185  1.0000
  H   H84       1.0  0.02135  0.29182  0.33727  1.0000
  H   H85       1.0  0.42080  0.45942  0.46122  1.0000
  H   H86       1.0  0.09830  0.32975  0.37971  1.0000
  H   H87       1.0  0.03639  0.37449  0.37822  1.0000
  H   H88       1.0  0.01353  0.05507  0.34460  1.0000
  C   C47       1.0  0.06469  0.02417  0.33935  1.0000
  H   H89       1.0  0.04638  0.28985  0.37196  1.0000
  Fe  Fe6       1.0  0.21334  0.48673  0.51083  1.0000
  H   H90       1.0  0.15491  0.37356  0.35608  1.0000
  H   H91       1.0  0.30299  0.47753  0.46980  1.0000
  C   C48       1.0  0.01904  0.35140  0.36481  1.0000
  C   C49       1.0  0.48785  0.06857  0.46265  1.0000
  Fe  Fe7       1.0  0.49759  0.41218  0.55737  1.0000
  C   C50       1.0  0.01188  0.03541  0.47022  1.0000
  H   H92       1.0  0.42990  0.45202  0.51958  1.0000
  H   H93       1.0  0.46525  0.04681  0.46959  1.0000
  C   C51       1.0  0.40528  0.46416  0.50754  1.0000
  C   C52       1.0  0.00276  0.00656  0.44625  1.0000
  Fe  Fe8       1.0  0.48034  0.36742  0.61888  1.0000
  H   H94       1.0  0.06826  0.01792  0.36412  1.0000
  H   H95       1.0  0.00464  0.36982  0.34657  1.0000
  H   H96       1.0  0.01142  0.99611  0.34336  1.0000
  N   N4        1.0  0.07467  0.32216  0.33501  1.0000
  H   H97       1.0  0.11268  0.21506  0.33478  1.0000
  H   H98       1.0  0.07765  0.05687  0.33477  1.0000
  Fe  Fe9       1.0  0.27748  0.05240  0.96169  1.0000
  S   S14       1.0  0.28954  0.11746  0.93691  1.0000
  H   H99       1.0  0.35187  0.16404  0.84942  1.0000
  Fe  Fe10      1.0  0.46942  0.31733  0.84175  1.0000
  H   H100      1.0  0.40749  0.37655  0.74859  1.0000
  H   H101      1.0  0.45913  0.10736  0.88023  1.0000
  Fe  Fe11      1.0  0.45828  0.38649  0.89136  1.0000
  H   H102      1.0  0.43543  0.27159  0.73207  1.0000
  S   S15       1.0  0.48485  0.34526  0.92746  1.0000
  Fe  Fe12      1.0  0.45381  0.28749  0.90733  1.0000
  S   S16       1.0  0.43507  0.23160  0.93854  1.0000
  C   C53       1.0  0.49545  0.37717  0.72997  1.0000
  S   S17       1.0  0.42327  0.33012  0.87397  1.0000
  H   H103      1.0  0.41541  0.10728  0.80198  1.0000
  C   C54       1.0  0.33053  0.14812  0.93720  1.0000
  C   C55       1.0  0.36117  0.13355  0.95307  1.0000
  C   C56       1.0  0.39284  0.15976  0.95345  1.0000
  C   C57       1.0  0.39426  0.20057  0.93787  1.0000
  C   C58       1.0  0.36352  0.21531  0.92222  1.0000
  C   C59       1.0  0.33185  0.18910  0.92181  1.0000
  C   C60       1.0  0.46189  0.17372  0.78334  1.0000
  C   C61       1.0  0.09234  0.01850  0.98555  1.0000
  H   H104      1.0  0.36408  0.24710  0.91073  1.0000
  H   H105      1.0  0.30811  0.20082  0.90973  1.0000
  H   H106      1.0  0.35998  0.39120  0.74506  1.0000
  C   C62       1.0  0.45987  0.32148  0.70346  1.0000
  H   H107      1.0  0.44856  0.30800  0.68260  1.0000
  C   C63       1.0  0.46182  0.17477  0.81850  1.0000
  C   C64       1.0  0.38038  0.37285  0.75874  1.0000
  H   H108      1.0  0.46015  0.15020  0.90829  1.0000
  H   H109      1.0  0.48901  0.15536  0.87639  1.0000
  S   S18       1.0  0.45353  0.29395  0.79398  1.0000
  H   H110      1.0  0.44554  0.09204  0.83078  1.0000
  C   C65       1.0  0.46652  0.31839  0.75898  1.0000
  H   H111      1.0  0.09738  0.03515  0.96338  1.0000
  C   C66       1.0  0.45682  0.47099  0.80664  1.0000
  H   H112      1.0  0.39307  0.45289  0.73610  1.0000
  H   H113      1.0  0.02600  0.12242  0.98597  1.0000
  C   C67       1.0  0.46180  0.14385  0.88342  1.0000
  C   C68       1.0  0.36270  0.19543  0.84008  1.0000
  H   H114      1.0  0.44719  0.40042  0.80503  1.0000
  H   H115      1.0  0.38506  0.09972  0.86671  1.0000
  H   H116      1.0  0.40659  0.22358  0.81594  1.0000
  C   C69       1.0  0.03626  0.09140  0.97521  1.0000
  H   H117      1.0  0.48475  0.15326  0.82583  1.0000
  C   C70       1.0  0.38883  0.08914  0.84283  1.0000
  H   H118      1.0  0.37333  0.33691  0.75692  1.0000
  C   C71       1.0  0.42874  0.45757  0.99046  1.0000
  H   H119      1.0  0.39444  0.05284  0.84437  1.0000
  H   H120      1.0  0.39993  0.47264  0.84116  1.0000
  H   H121      1.0  0.06433  0.09849  0.96794  1.0000
  H   H122      1.0  0.34097  0.21067  0.82598  1.0000
  N   N5        1.0  0.05241  0.00995  0.98964  1.0000
  H   H123      1.0  0.36837  0.21906  0.85897  1.0000
  H   H124      1.0  0.34153  0.40100  0.84743  1.0000
  H   H125      1.0  0.44129  0.19623  0.77328  1.0000
  S   S19       1.0  0.21779  0.03784  0.96483  1.0000
  H   H126      1.0  0.26319  0.20503  0.96252  1.0000
  H   H127      1.0  0.04034  0.01850  0.94165  1.0000
  H   H128      1.0  0.42865  0.40860  0.95442  1.0000
  H   H129      1.0  0.40627  0.16277  0.87993  1.0000
  N   N6        1.0  0.42696  0.16089  0.83358  1.0000
  H   H130      1.0  0.46942  0.20931  0.82548  1.0000
  C   C72       1.0  0.45253  0.30086  0.73157  1.0000
  C   C73       1.0  0.35082  0.43613  0.84605  1.0000
  H   H131      1.0  0.36315  0.09383  0.82995  1.0000
  C   C74       1.0  0.43133  0.16989  0.86720  1.0000
  C   C75       1.0  0.03505  0.99446  0.96028  1.0000
  C   C76       1.0  0.37897  0.38694  0.79242  1.0000
  H   H132      1.0  0.39256  0.36031  0.80598  1.0000
  H   H133      1.0  0.41648  0.14822  0.96576  1.0000
  C   C77       1.0  0.03439  0.05326  0.99861  1.0000
  H   H134      1.0  0.36046  0.10218  0.96513  1.0000
  H   H135      1.0  0.44096  0.42761  0.76990  1.0000
  C   C78       1.0  0.43184  0.44349  0.96009  1.0000
  H   H136      1.0  0.40639  0.41480  0.84725  1.0000
  H   H137      1.0  0.38766  0.17574  0.79804  1.0000
  S   S20       1.0  0.44032  0.45769  0.89878  1.0000
  H   H138      1.0  0.48386  0.47152  0.79574  1.0000
  C   C79       1.0  0.39678  0.18909  0.82049  1.0000
  C   C80       1.0  0.42070  0.11220  0.82670  1.0000
  C   C81       1.0  0.39065  0.48152  0.75183  1.0000
  C   C82       1.0  0.43501  0.43070  0.79449  1.0000
  H   H139      1.0  0.45845  0.13951  0.77418  1.0000
  H   H140      1.0  0.23270  0.24274  0.98250  1.0000
  H   H141      1.0  0.34984  0.38520  0.79837  1.0000
  H   H142      1.0  0.43625  0.20608  0.87128  1.0000
  N   N7        1.0  0.39485  0.43192  0.80036  1.0000
  S   S21       1.0  0.48856  0.38999  0.66832  1.0000
  C   C83       1.0  0.48871  0.35609  0.75794  1.0000
  H   H143      1.0  0.48856  0.18602  0.77533  1.0000
  H   H144      1.0  0.50030  0.36942  0.77874  1.0000
  H   H145      1.0  0.01857  0.08480  0.95520  1.0000
  C   C84       1.0  0.37570  0.46887  0.78342  1.0000
  C   C85       1.0  0.38991  0.43911  0.83410  1.0000
  H   H146      1.0  0.34650  0.46062  0.78030  1.0000
  H   H147      1.0  0.46164  0.46804  0.83154  1.0000
  C   C86       1.0  0.48102  0.36015  0.70256  1.0000
  H   H148      1.0  0.33157  0.45607  0.83228  1.0000
  H   H149      1.0  0.35029  0.44946  0.86969  1.0000
  C   C87       1.0  0.43783  0.47467  0.93715  1.0000
  H   H150      1.0  0.30654  0.18359  0.99307  1.0000
  C   C88       1.0  0.23722  0.20799  0.97477  1.0000
  H   H151      1.0  0.21566  0.20042  0.95775  1.0000
  S   S22       1.0  0.49772  0.27071  0.87410  1.0000
  H   H152      1.0  0.23290  0.14075  0.99093  1.0000
  H   H153      1.0  0.29238  0.25246  0.99929  1.0000
  H   H154      1.0  0.48783  0.69334  0.18113  1.0000
  H   H155      1.0  0.43834  0.77263  0.12060  1.0000
  H   H156      1.0  0.44760  0.57996  0.22976  1.0000
  Fe  Fe13      1.0  0.44295  0.58640  0.05479  1.0000
  S   S23       1.0  0.45748  0.64932  0.03017  1.0000
  H   H157      1.0  0.05476  0.94316  0.00924  1.0000
  Fe  Fe14      1.0  0.45895  0.62742  0.11818  1.0000
  H   H158      1.0  0.34094  0.77072  0.14152  1.0000
  S   S24       1.0  0.45500  0.60624  0.16773  1.0000
  Fe  Fe15      1.0  0.42705  0.68602  0.06721  1.0000
  S   S25       1.0  0.37902  0.73468  0.06658  1.0000
  S   S26       1.0  0.40905  0.62199  0.08914  1.0000
  C   C89       1.0  0.46835  0.63361  0.25769  1.0000
  S   S27       1.0  0.47593  0.69281  0.09824  1.0000
  C   C90       1.0  0.48406  0.67598  0.25805  1.0000
  H   H159      1.0  0.39297  0.79108  0.12314  1.0000
  C   C91       1.0  0.39680  0.80571  0.02860  1.0000
  C   C92       1.0  0.37106  0.78604  0.04749  1.0000
  C   C93       1.0  0.33770  0.80783  0.05169  1.0000
  C   C94       1.0  0.33011  0.84877  0.03725  1.0000
  C   C95       1.0  0.41546  0.77657  0.13660  1.0000
  H   H160      1.0  0.43055  0.71758  0.16145  1.0000
  H   H161      1.0  0.31759  0.79298  0.06628  1.0000
  H   H162      1.0  0.30455  0.86534  0.04101  1.0000
  C   C96       1.0  0.49082  0.69742  0.23024  1.0000
  C   C97       1.0  0.45967  0.61285  0.22978  1.0000
  C   C98       1.0  0.46655  0.63418  0.20200  1.0000
  H   H163      1.0  0.35300  0.76320  0.21084  1.0000
  H   H164      1.0  0.42454  0.80061  0.15427  1.0000
  H   H165      1.0  0.40139  0.70768  0.13035  1.0000
  C   C99       1.0  0.35602  0.86867  0.01862  1.0000
  H   H166      1.0  0.33839  0.71429  0.13234  1.0000
  N   N8        1.0  0.37373  0.72936  0.17105  1.0000
  C   C100      1.0  0.37280  0.68452  0.18651  1.0000
  C   C101      1.0  0.37647  0.76507  0.19514  1.0000
  C   C102      1.0  0.34006  0.73730  0.15231  1.0000
  C   C103      1.0  0.36101  0.64489  0.16642  1.0000
  C   C104      1.0  0.41075  0.76317  0.21541  1.0000
  C   C105      1.0  0.30387  0.73581  0.16970  1.0000
  H   H167      1.0  0.35514  0.68488  0.20689  1.0000
  H   H168      1.0  0.39998  0.67586  0.19574  1.0000
  H   H169      1.0  0.37470  0.79888  0.18490  1.0000
  H   H170      1.0  0.37790  0.64214  0.14589  1.0000
  H   H171      1.0  0.36472  0.61348  0.17939  1.0000
  H   H172      1.0  0.33205  0.64692  0.15979  1.0000
  H   H173      1.0  0.43604  0.76570  0.20213  1.0000
  H   H174      1.0  0.06872  0.97633  0.27546  1.0000
  H   H175      1.0  0.41054  0.79177  0.23154  1.0000
  H   H176      1.0  0.29646  0.76956  0.17806  1.0000
  H   H177      1.0  0.30414  0.71274  0.18924  1.0000
  H   H178      1.0  0.28216  0.72343  0.15420  1.0000
  H   H179      1.0  0.41157  0.73245  0.22940  1.0000
  C   C106      1.0  0.40582  0.73052  0.15004  1.0000
  H   H180      1.0  0.01477  0.97215  0.01677  1.0000
  H   H181      1.0  0.46305  0.61675  0.27893  1.0000
  S   S28       1.0  0.42695  0.51857  0.03659  1.0000
  S   S29       1.0  0.49134  0.58611  0.08564  1.0000
  H   H182      1.0  0.05600  0.96006  0.06167  1.0000
  H   H183      1.0  0.24925  0.83474  0.01249  1.0000
  C   C107      1.0  0.48215  0.67665  0.20231  1.0000
  H   H184      1.0  0.05196  0.93652  0.30281  1.0000
  C   C108      1.0  0.04540  0.95529  0.28175  1.0000
  C   C109      1.0  0.05923  0.98915  0.04637  1.0000
  H   H185      1.0  0.04238  0.93120  0.26263  1.0000
  H   H186      1.0  0.42260  0.78950  0.02517  1.0000
  C   C110      1.0  0.38933  0.84683  0.01438  1.0000
  C   C111      1.0  0.04449  0.97686  0.01450  1.0000
  H   H187      1.0  0.13453  0.97948  0.00880  1.0000
  S   S30       1.0  0.49608  0.70340  0.29242  1.0000
  C   C112      1.0  0.00978  0.98141  0.28537  1.0000
  H   H188      1.0  0.18200  0.59740  0.39246  1.0000
  H   H189      1.0  0.20775  0.71077  0.48862  1.0000
  H   H190      1.0  0.42535  0.52821  0.39023  1.0000
  C   C113      1.0  0.18202  0.63440  0.39348  1.0000
  H   H191      1.0  0.05277  0.64246  0.65169  1.0000
  C   C114      1.0  0.04722  0.75897  0.63953  1.0000
  H   H192      1.0  0.38619  0.49735  0.40048  1.0000
  S   S31       1.0  0.46538  0.72967  0.37412  1.0000
  Fe  Fe16      1.0  0.43248  0.67315  0.39290  1.0000
  S   S32       1.0  0.37639  0.68266  0.41217  1.0000
  S   S33       1.0  0.45006  0.62375  0.35749  1.0000
  Fe  Fe17      1.0  0.21996  0.51992  0.44647  1.0000
  S   S34       1.0  0.22777  0.55336  0.49154  1.0000
  S   S35       1.0  0.25833  0.52953  0.40708  1.0000
  Fe  Fe18      1.0  0.16787  0.56712  0.48983  1.0000
  S   S36       1.0  0.15071  0.63938  0.49674  1.0000
  S   S37       1.0  0.16109  0.53760  0.44311  1.0000
  C   C115      1.0  0.34601  0.63755  0.41126  1.0000
  C   C116      1.0  0.34351  0.60901  0.38610  1.0000
  C   C117      1.0  0.31662  0.57576  0.38510  1.0000
  C   C118      1.0  0.29253  0.57053  0.40939  1.0000
  C   C119      1.0  0.29617  0.59798  0.43500  1.0000
  C   C120      1.0  0.32251  0.63166  0.43575  1.0000
  H   H193      1.0  0.36159  0.61340  0.36708  1.0000
  H   H194      1.0  0.31426  0.55434  0.36532  1.0000
  H   H195      1.0  0.27818  0.59410  0.45396  1.0000
  H   H196      1.0  0.32466  0.65341  0.45538  1.0000
  H   H197      1.0  0.15363  0.64494  0.39724  1.0000
  H   H198      1.0  0.09273  0.59619  0.53105  1.0000
  C   C121      1.0  0.04914  0.69536  0.54346  1.0000
  C   C122      1.0  0.07273  0.72342  0.52777  1.0000
  C   C123      1.0  0.10363  0.70564  0.51353  1.0000
  C   C124      1.0  0.11106  0.65968  0.51459  1.0000
  C   C125      1.0  0.08733  0.63158  0.53008  1.0000
  C   C126      1.0  0.05664  0.64943  0.54458  1.0000
  H   H199      1.0  0.06733  0.75881  0.52682  1.0000
  H   H200      1.0  0.12188  0.72766  0.50169  1.0000
  H   H201      1.0  0.25477  0.70087  0.49510  1.0000
  H   H202      1.0  0.05118  0.76040  0.61451  1.0000
  H   H203      1.0  0.43849  0.56191  0.51003  1.0000
  S   S38       1.0  0.47498  0.65417  0.42691  1.0000
  H   H204      1.0  0.19504  0.63541  0.44087  1.0000
  C   C127      1.0  0.03358  0.65220  0.63345  1.0000
  H   H205      1.0  0.37076  0.54865  0.50737  1.0000
  C   C128      1.0  0.20704  0.64944  0.41985  1.0000
  H   H206      1.0  0.06638  0.73389  0.64821  1.0000
  S   S39       1.0  0.00420  0.84146  0.59316  1.0000
  C   C129      1.0  0.23170  0.69296  0.47967  1.0000
  H   H207      1.0  0.15073  0.78144  0.44508  1.0000
  C   C130      1.0  0.25960  0.69702  0.37942  1.0000
  H   H208      1.0  0.41121  0.61043  0.51456  1.0000
  H   H209      1.0  0.02782  0.94226  0.66314  1.0000
  H   H210      1.0  0.23313  0.63177  0.41722  1.0000
  H   H211      1.0  0.03850  0.62745  0.55660  1.0000
  H   H212      1.0  0.44659  0.98184  0.44409  1.0000
  H   H213      1.0  0.28400  0.70105  0.39402  1.0000
  H   H214      1.0  0.16459  0.70242  0.45082  1.0000
  H   H215      1.0  0.26668  0.68977  0.44145  1.0000
  H   H216      1.0  0.03515  0.97781  0.63042  1.0000
  H   H217      1.0  0.19145  0.64586  0.37098  1.0000
  H   H218      1.0  0.22711  0.65656  0.48115  1.0000
  H   H219      1.0  0.03117  0.91930  0.62578  1.0000
  C   C131      1.0  0.41272  0.50938  0.40913  1.0000
  C   C132      1.0  0.24131  0.70748  0.44711  1.0000
  H   H220      1.0  0.43706  0.55277  0.44198  1.0000
  C   C133      1.0  0.22580  0.71901  0.39361  1.0000
  C   C134      1.0  0.41940  0.58435  0.49799  1.0000
  H   H221      1.0  0.19535  0.77682  0.46017  1.0000
  H   H222      1.0  0.43348  0.60193  0.47934  1.0000
  H   H223      1.0  0.18814  0.79075  0.42043  1.0000
  N   N9        1.0  0.21284  0.69899  0.42302  1.0000
  H   H224      1.0  0.23294  0.75475  0.39689  1.0000
  S   S40       1.0  0.01068  0.71600  0.56288  1.0000
  C   C135      1.0  0.17727  0.72011  0.43143  1.0000
  H   H225      1.0  0.15738  0.71677  0.41243  1.0000
  H   H226      1.0  0.44426  0.50074  0.48106  1.0000
  H   H227      1.0  0.02870  0.62178  0.61951  1.0000
  H   H228      1.0  0.34340  0.51964  0.43628  1.0000
  H   H229      1.0  0.25558  0.66120  0.37410  1.0000
  H   H230      1.0  0.24884  0.74339  0.44798  1.0000
  C   C136      1.0  0.02066  0.94803  0.63897  1.0000
  H   H231      1.0  0.20388  0.71902  0.37612  1.0000
  C   C137      1.0  0.40914  0.54090  0.43683  1.0000
  N   N10       1.0  0.39148  0.52152  0.46478  1.0000
  C   C138      1.0  0.00670  0.75054  0.64648  1.0000
  C   C139      1.0  0.17860  0.77013  0.43964  1.0000
  C   C140      1.0  0.46726  0.96014  0.45495  1.0000
  C   C141      1.0  0.38520  0.55953  0.48668  1.0000
  Fe  Fe19      1.0  0.49516  0.60822  0.39072  1.0000
  H   H232      1.0  0.36706  0.58474  0.47604  1.0000
  H   H233      1.0  0.04607  0.67652  0.61783  1.0000
  H   H234      1.0  0.39410  0.57081  0.42884  1.0000
  H   H235      1.0  0.46895  0.96771  0.47953  1.0000
  Fe  Fe20      1.0  0.48677  0.67856  0.34092  1.0000
  H   H236      1.0  0.05565  0.79197  0.64872  1.0000
  S   S41       1.0  0.15384  0.50338  0.51370  1.0000
  H   H237      1.0  0.31502  0.53038  0.48529  1.0000
  H   H238      1.0  0.46491  0.52471  0.62125  1.0000
  C   C142      1.0  0.00695  0.97425  0.50666  1.0000
  S   S42       1.0  0.01004  0.95492  0.54469  1.0000
  H   H239      1.0  0.45772  0.92502  0.45374  1.0000
  H   H240      1.0  0.26574  0.71378  0.35757  1.0000
  H   H241      1.0  0.49669  0.96748  0.41391  1.0000
  C   C143      1.0  0.35592  0.50052  0.45520  1.0000
  C   C144      1.0  0.49440  0.53096  0.61878  1.0000
  C   C145      1.0  0.32599  0.49705  0.47940  1.0000
  H   H242      1.0  0.50010  0.56437  0.62844  1.0000
  H   H243      1.0  0.49971  0.53114  0.59401  1.0000
  C   C146      1.0  0.44160  0.51993  0.94485  1.0000
  C   C147      1.0  0.43926  0.53393  0.97539  1.0000
  S   S43       1.0  0.05868  0.82114  0.93360  1.0000
  Fe  Fe21      1.0  0.01357  0.82574  0.89861  1.0000
  S   S44       1.0  0.20307  0.93117  0.91321  1.0000
  S   S45       1.0  0.29008  0.98406  0.94404  1.0000
  C   C148      1.0  0.26515  0.84475  0.96524  1.0000
  H   H244      1.0  0.07581  0.94979  0.94020  1.0000
  H   H245      1.0  0.32557  0.89989  0.90095  1.0000
  H   H246      1.0  0.44630  0.54420  0.92718  1.0000
  C   C149      1.0  0.09784  0.85362  0.92797  1.0000
  C   C150      1.0  0.12115  0.86237  0.95266  1.0000
  C   C151      1.0  0.15283  0.88768  0.94867  1.0000
  C   C152      1.0  0.16185  0.90329  0.91976  1.0000
  C   C153      1.0  0.13862  0.89437  0.89509  1.0000
  C   C154      1.0  0.10644  0.87018  0.89924  1.0000
  H   H247      1.0  0.11457  0.84963  0.97494  1.0000
  H   H248      1.0  0.17061  0.89433  0.96779  1.0000
  H   H249      1.0  0.14554  0.90618  0.87263  1.0000
  H   H250      1.0  0.08872  0.86345  0.88006  1.0000
  H   H251      1.0  0.44193  0.56885  0.98119  1.0000
  H   H252      1.0  0.28697  0.86324  0.97751  1.0000
  N   N11       1.0  0.28112  0.81493  0.94110  1.0000
  C   C155      1.0  0.29199  0.84366  0.91444  1.0000
  C   C156      1.0  0.25451  0.78089  0.92902  1.0000
  C   C157      1.0  0.30995  0.75738  0.97822  1.0000
  H   H253      1.0  0.03093  0.94144  0.92685  1.0000
  H   H254      1.0  0.01313  0.67456  0.70592  1.0000
  C   C158      1.0  0.21926  0.80011  0.91532  1.0000
  H   H255      1.0  0.33687  0.74286  0.98376  1.0000
  H   H256      1.0  0.04232  0.92100  0.96336  1.0000
  H   H257      1.0  0.29913  0.82269  0.89437  1.0000
  H   H258      1.0  0.26902  0.86504  0.90681  1.0000
  H   H259      1.0  0.24620  0.75669  0.94653  1.0000
  H   H260      1.0  0.26743  0.75999  0.91111  1.0000
  H   H261      1.0  0.32885  0.77471  0.93367  1.0000
  H   H262      1.0  0.32120  0.89495  0.94120  1.0000
  H   H263      1.0  0.33441  0.81661  0.96220  1.0000
  H   H264      1.0  0.10509  0.94500  0.98587  1.0000
  H   H265      1.0  0.37188  0.50568  0.74093  1.0000
  H   H266      1.0  0.29227  0.72914  0.97151  1.0000
  Fe  Fe22      1.0  0.23158  0.96784  0.95140  1.0000
  H   H267      1.0  0.22412  0.81818  0.89376  1.0000
  H   H268      1.0  0.20032  0.77238  0.90986  1.0000
  H   H269      1.0  0.20519  0.82245  0.93144  1.0000
  H   H270      1.0  0.04630  0.73689  0.73167  1.0000
  C   C159      1.0  0.04719  0.94902  0.94758  1.0000
  C   C160      1.0  0.32416  0.87561  0.91993  1.0000
  C   C161      1.0  0.31476  0.79190  0.95274  1.0000
  H   H271      1.0  0.03209  0.86704  0.72435  1.0000
  H   H272      1.0  0.24816  0.87102  0.95442  1.0000
  S   S46       1.0  0.23963  0.94344  0.99914  1.0000
  C   C162      1.0  0.43229  0.50276  0.99822  1.0000
  H   H273      1.0  0.05004  0.69512  0.68562  1.0000
  H   H274      1.0  0.35031  0.85745  0.92043  1.0000
  Fe  Fe23      1.0  0.29785  0.96341  0.99294  1.0000
  C   C163      1.0  0.02530  0.74397  0.71414  1.0000
  H   H275      1.0  0.03376  0.77467  0.70222  1.0000
  C   C164      1.0  0.02213  0.70374  0.69227  1.0000
  H   H276      1.0  0.37597  0.50041  0.79692  1.0000
  H   H277      1.0  0.44324  0.50317  0.80197  1.0000
  C   C165      1.0  0.24093  0.82260  0.98957  1.0000
  H   H278      1.0  0.24164  0.78592  0.99045  1.0000
  S   S47       1.0  0.00353  0.88726  0.87119  1.0000
  H   H279      1.0  0.30052  0.77309  0.99954  1.0000
  H   H280      1.0  0.00128  0.86184  0.67396  1.0000
  C   C166      1.0  0.00371  0.85823  0.72309  1.0000
  S   S48       1.0  0.00838  0.85248  0.78541  1.0000
  H   H281      1.0  0.13795  0.97976  0.96864  1.0000
  C   C167      1.0  0.11814  0.97798  0.98751  1.0000
  H   H282      1.0  0.21234  0.83321  0.98654  1.0000
  H   H283      1.0  0.41732  0.49833  0.75366  1.0000
  H   H284      1.0  0.40965  0.86199  0.00012  1.0000
  S   S49       1.0  0.34860  0.92085  0.00044  1.0000
  S   S50       1.0  0.00084  0.77907  0.85974  1.0000
  H   H285      1.0  0.00510  0.99310  0.96271  1.0000
  Fe  Fe24      1.0  0.92802  0.18344  0.06224  1.0000
  S   S51       1.0  0.91354  0.12069  0.08753  1.0000
  S   S52       1.0  0.87840  0.22916  0.05685  1.0000
  C   C168      1.0  0.89583  0.30340  0.02160  1.0000
  Fe  Fe25      1.0  0.95117  0.08408  0.05651  1.0000
  H   H286      1.0  0.97690  0.08402  0.30502  1.0000
  Fe  Fe26      1.0  0.96155  0.13512  0.11776  1.0000
  S   S53       1.0  0.94671  0.12436  0.16787  1.0000
  S   S54       1.0  0.96199  0.14496  0.02851  1.0000
  C   C169      1.0  0.88216  0.32605  0.13433  1.0000
  H   H287      1.0  0.52614  0.46999  0.05292  1.0000
  C   C170      1.0  0.56029  0.47239  0.01275  1.0000
  C   C171      1.0  0.83769  0.30440  0.04634  1.0000
  C   C172      1.0  0.87074  0.28266  0.04058  1.0000
  H   H288      1.0  0.88635  0.34187  0.11178  1.0000
  H   H289      1.0  0.90585  0.23278  0.19936  1.0000
  H   H290      1.0  0.57936  0.49166  0.02740  1.0000
  S   S55       1.0  0.94446  0.01243  0.04032  1.0000
  C   C173      1.0  0.82970  0.34619  0.03325  1.0000
  C   C174      1.0  0.84112  0.25900  0.17362  1.0000
  C   C175      1.0  0.97542  0.04854  0.29748  1.0000
  C   C176      1.0  0.99291  0.16943  0.26081  1.0000
  C   C177      1.0  0.99840  0.16514  0.20525  1.0000
  H   H291      1.0  0.96468  0.04921  0.27380  1.0000
  C   C178      1.0  0.83274  0.23238  0.20280  1.0000
  H   H292      1.0  0.90441  0.29009  0.19036  1.0000
  C   C179      1.0  0.93854  0.99507  0.00211  1.0000
  H   H293      1.0  0.84341  0.19796  0.20249  1.0000
  H   H294      1.0  0.90551  0.33568  0.14887  1.0000
  H   H295      1.0  0.80423  0.36244  0.03803  1.0000
  C   C180      1.0  0.96490  0.14358  0.20307  1.0000
  C   C181      1.0  0.94519  0.13591  0.22985  1.0000
  C   C182      1.0  0.95897  0.14896  0.25854  1.0000
  H   H296      1.0  0.91914  0.11947  0.22839  1.0000
  H   H297      1.0  0.94332  0.14309  0.27885  1.0000
  H   H298      1.0  0.84119  0.29457  0.18080  1.0000
  N   N12       1.0  0.87604  0.24746  0.15800  1.0000
  C   C183      1.0  0.87924  0.27520  0.12961  1.0000
  C   C184      1.0  0.87698  0.19900  0.14870  1.0000
  C   C185      1.0  0.90683  0.25642  0.17987  1.0000
  H   H299      1.0  0.95052  0.27804  0.14895  1.0000
  C   C186      1.0  0.84260  0.18089  0.13280  1.0000
  C   C187      1.0  0.94515  0.25247  0.16648  1.0000
  H   H300      1.0  0.90294  0.26460  0.11584  1.0000
  H   H301      1.0  0.85539  0.26983  0.11446  1.0000
  H   H302      1.0  0.88269  0.17698  0.16843  1.0000
  H   H303      1.0  0.89979  0.19268  0.13288  1.0000
  H   H304      1.0  0.84392  0.24962  0.22323  1.0000
  H   H305      1.0  0.85686  0.34035  0.14359  1.0000
  H   H306      1.0  0.81804  0.28871  0.06098  1.0000
  H   H307      1.0  0.95005  0.21897  0.15680  1.0000
  H   H308      1.0  0.81752  0.25683  0.15776  1.0000
  H   H309      1.0  0.81912  0.18013  0.14835  1.0000
  H   H310      1.0  0.83566  0.19986  0.11199  1.0000
  H   H311      1.0  0.84755  0.14590  0.12561  1.0000
  H   H312      1.0  0.80295  0.22890  0.20527  1.0000
  S   S56       1.0  0.97482  0.19933  0.09367  1.0000
  H   H313      1.0  0.96541  0.25740  0.18499  1.0000
  S   S57       1.0  0.99825  0.09327  0.08858  1.0000
  H   H314      1.0  0.76346  0.29326  0.01292  1.0000
  C   C188      1.0  0.94571  0.02598  0.31671  1.0000
  H   H315      1.0  0.50331  0.45190  0.01936  1.0000
  H   H316      1.0  0.92053  0.04605  0.31494  1.0000
  H   H317      1.0  0.92130  0.28711  0.01686  1.0000
  C   C189      1.0  0.85445  0.36643  0.01369  1.0000
  C   C190      1.0  0.52301  0.47677  0.02821  1.0000
  C   C191      1.0  0.88761  0.34487  0.00813  1.0000
  H   H318      1.0  0.72658  0.33089  0.01620  1.0000
  H   H319      1.0  0.63594  0.48203  0.00911  1.0000
  H   H320      1.0  0.56880  0.43685  0.01469  1.0000
  H   H321      1.0  0.96598  0.45555  0.00104  1.0000
  H   H322      1.0  0.53587  0.07055  0.43645  1.0000
  H   H323      1.0  0.60181  0.46099  0.65377  1.0000
  Fe  Fe27      1.0  0.94716  0.17778  0.40087  1.0000
  S   S58       1.0  0.89338  0.19610  0.42180  1.0000
  S   S59       1.0  0.95346  0.12342  0.36608  1.0000
  Fe  Fe28      1.0  0.71725  0.04875  0.42801  1.0000
  S   S60       1.0  0.70802  0.07280  0.47584  1.0000
  S   S61       1.0  0.75760  0.07236  0.39301  1.0000
  Fe  Fe29      1.0  0.64837  0.06240  0.46602  1.0000
  S   S62       1.0  0.59704  0.10431  0.47162  1.0000
  S   S63       1.0  0.65801  0.04392  0.41702  1.0000
  H   H324      1.0  0.88313  0.11627  0.48795  1.0000
  C   C192      1.0  0.62978  0.26894  0.47779  1.0000
  H   H325      1.0  0.61798  0.30498  0.43640  1.0000
  H   H326      1.0  0.84515  0.05636  0.48585  1.0000
  S   S64       1.0  0.56336  0.26806  0.55999  1.0000
  S   S65       1.0  0.53078  0.37446  0.59120  1.0000
  N   N13       1.0  0.59560  0.34358  0.47367  1.0000
  H   H327      1.0  0.65156  0.24961  0.46650  1.0000
  H   H328      1.0  0.56335  0.26957  0.43961  1.0000
  C   C193      1.0  0.58799  0.14904  0.49695  1.0000
  C   C194      1.0  0.61342  0.16387  0.51840  1.0000
  C   C195      1.0  0.60504  0.19977  0.53789  1.0000
  C   C196      1.0  0.57126  0.22124  0.53616  1.0000
  C   C197      1.0  0.54572  0.20627  0.51480  1.0000
  C   C198      1.0  0.55413  0.17041  0.49527  1.0000
  H   H329      1.0  0.63954  0.14774  0.51996  1.0000
  H   H330      1.0  0.62498  0.21113  0.55432  1.0000
  C   C199      1.0  0.98719  0.05117  0.62077  1.0000
  H   H331      1.0  0.53432  0.15928  0.47868  1.0000
  C   C200      1.0  0.85544  0.16201  0.41374  1.0000
  C   C201      1.0  0.82623  0.16097  0.43403  1.0000
  C   C202      1.0  0.79601  0.13339  0.42820  1.0000
  C   C203      1.0  0.79466  0.10739  0.40172  1.0000
  C   C204      1.0  0.82356  0.10919  0.38122  1.0000
  C   C205      1.0  0.85399  0.13592  0.38735  1.0000
  H   H332      1.0  0.82708  0.18128  0.45441  1.0000
  H   H333      1.0  0.77371  0.13252  0.44401  1.0000
  H   H334      1.0  0.82245  0.08956  0.36053  1.0000
  H   H335      1.0  0.87587  0.13717  0.37125  1.0000
  H   H336      1.0  0.60455  0.33022  0.52163  1.0000
  H   H337      1.0  0.64097  0.40021  0.42841  1.0000
  H   H338      1.0  0.51889  0.28068  0.45281  1.0000
  C   C206      1.0  0.54524  0.29664  0.44742  1.0000
  Fe  Fe30      1.0  0.51376  0.31240  0.56618  1.0000
  Fe  Fe31      1.0  0.70870  0.99930  0.48696  1.0000
  H   H339      1.0  0.63850  0.27446  0.50170  1.0000
  H   H340      1.0  0.58307  0.37136  0.42948  1.0000
  H   H341      1.0  0.92342  0.13955  0.47284  1.0000
  H   H342      1.0  0.79997  0.00958  0.47189  1.0000
  H   H343      1.0  0.90205  0.09129  0.43431  1.0000
  H   H344      1.0  0.90706  0.04528  0.39443  1.0000
  H   H345      1.0  0.56808  0.40443  0.45955  1.0000
  C   C207      1.0  0.55959  0.32024  0.47635  1.0000
  H   H346      1.0  0.96476  0.07418  0.61469  1.0000
  H   H347      1.0  0.50294  0.08051  0.48309  1.0000
  H   H348      1.0  0.84445  0.07078  0.44680  1.0000
  H   H349      1.0  0.54001  0.32031  0.42862  1.0000
  H   H350      1.0  0.65079  0.33017  0.46024  1.0000
  Fe  Fe32      1.0  0.99737  0.09946  0.39780  1.0000
  H   H351      1.0  0.55714  0.39158  0.51948  1.0000
  H   H352      1.0  0.59571  0.40317  0.54271  1.0000
  H   H353      1.0  0.99789  0.33877  0.38047  1.0000
  C   C208      1.0  0.88783  0.01901  0.40168  1.0000
  H   H354      1.0  0.51965  0.22250  0.51320  1.0000
  C   C209      1.0  0.58662  0.39786  0.51883  1.0000
  H   H355      1.0  0.64296  0.41369  0.46829  1.0000
  H   H356      1.0  0.63676  0.36637  0.50600  1.0000
  H   H357      1.0  0.56270  0.42859  0.64509  1.0000
  C   C210      1.0  0.51363  0.04591  0.43989  1.0000
  H   H358      1.0  0.55791  0.02488  0.48821  1.0000
  C   C211      1.0  0.51000  0.46128  0.47863  1.0000
  H   H359      1.0  0.81034  0.01143  0.43278  1.0000
  H   H360      1.0  0.90006  0.03222  0.50861  1.0000
  Fe  Fe33      1.0  0.99569  0.16789  0.34511  1.0000
  C   C212      1.0  0.59107  0.38278  0.45267  1.0000
  H   H361      1.0  0.61637  0.44714  0.44387  1.0000
  S   S66       1.0  0.99891  0.02546  0.40816  1.0000
  C   C213      1.0  0.91107  0.10801  0.48090  1.0000
  H   H362      1.0  0.56022  0.29505  0.49481  1.0000
  H   H363      1.0  0.53827  0.34427  0.48313  1.0000
  H   H364      1.0  0.60529  0.24765  0.47732  1.0000
  C   C214      1.0  0.62400  0.31314  0.46064  1.0000
  S   S67       1.0  0.51806  0.47850  0.54026  1.0000
  C   C215      1.0  0.85094  0.04319  0.46267  1.0000
  C   C216      1.0  0.91190  0.07335  0.45484  1.0000
  H   H365      1.0  0.92751  0.09712  0.50072  1.0000
  C   C217      1.0  0.62496  0.41219  0.44812  1.0000
  N   N14       1.0  0.89044  0.03109  0.45985  1.0000
  C   C218      1.0  0.57182  0.46109  0.65495  1.0000
  C   C219      1.0  0.98087  0.03017  0.65240  1.0000
  H   H366      1.0  0.94084  0.06560  0.45034  1.0000
  H   H367      1.0  0.59190  0.42931  0.50643  1.0000
  C   C220      1.0  0.60742  0.35810  0.50515  1.0000
  H   H368      1.0  0.55061  0.03119  0.38917  1.0000
  H   H369      1.0  0.50677  0.42659  0.48456  1.0000
  H   H370      1.0  0.93435  0.00508  0.48726  1.0000
  H   H371      1.0  0.91061  0.02517  0.64896  1.0000
  C   C221      1.0  0.89796  0.00054  0.43329  1.0000
  H   H372      1.0  0.50368  0.44992  0.43028  1.0000
  S   S68       1.0  0.98588  0.22474  0.37770  1.0000
  C   C222      1.0  0.90454  0.01004  0.48870  1.0000
  H   H373      1.0  0.58441  0.01989  0.44003  1.0000
  H   H374      1.0  0.95281  0.02448  0.34125  1.0000
  C   C223      1.0  0.50815  0.47456  0.44795  1.0000
  H   H375      1.0  0.50835  0.46175  0.62338  1.0000
  C   C224      1.0  0.82274  0.00636  0.45562  1.0000
  S   S69       1.0  0.98933  0.15176  0.43340  1.0000
  H   H376      1.0  0.98987  0.02642  0.60218  1.0000
  H   H377      1.0  0.50287  0.48958  0.65784  1.0000
  H   H378      1.0  0.85985  0.03210  0.40092  1.0000
  H   H379      1.0  0.56033  0.46389  0.59406  1.0000
  H   H380      1.0  0.62449  0.46604  0.60813  1.0000
  H   H381      1.0  0.92549  0.00244  0.61412  1.0000
  H   H382      1.0  0.51356  0.00763  0.49621  1.0000
  C   C225      1.0  0.92334  0.99498  0.63887  1.0000
  C   C226      1.0  0.56415  0.99503  0.43185  1.0000
  C   C227      1.0  0.56226  0.99910  0.39682  1.0000
  N   N15       1.0  0.52884  0.00081  0.44848  1.0000
  H   H383      1.0  0.59019  0.99781  0.38767  1.0000
  C   C228      1.0  0.53730  0.99912  0.48213  1.0000
  C   C229      1.0  0.51561  0.49316  0.50151  1.0000
  H   H384      1.0  0.96610  0.05595  0.66566  1.0000
  C   C230      1.0  0.60006  0.47770  0.96906  1.0000
  Fe  Fe34      1.0  0.52665  0.33148  0.89199  1.0000
  S   S70       1.0  0.58432  0.32607  0.90938  1.0000
  H   H385      1.0  0.83761  0.28117  0.91842  1.0000
  S   S71       1.0  0.84479  0.41716  0.99432  1.0000
  C   C231      1.0  0.53370  0.46910  0.92751  1.0000
  C   C232      1.0  0.61391  0.37217  0.91095  1.0000
  C   C233      1.0  0.64146  0.37286  0.93308  1.0000
  C   C234      1.0  0.66678  0.40781  0.93407  1.0000
  C   C235      1.0  0.66560  0.44153  0.91226  1.0000
  C   C236      1.0  0.63797  0.44096  0.89015  1.0000
  C   C237      1.0  0.61189  0.40668  0.88971  1.0000
  H   H386      1.0  0.64310  0.34627  0.94959  1.0000
  H   H387      1.0  0.50753  0.46609  0.97014  1.0000
  H   H388      1.0  0.90947  0.03002  0.93242  1.0000
  H   H389      1.0  0.59098  0.40615  0.87237  1.0000
  Fe  Fe35      1.0  0.79623  0.46497  0.99405  1.0000
  H   H390      1.0  0.73786  0.24406  0.89295  1.0000
  H   H391      1.0  0.73732  0.37295  0.90589  1.0000
  C   C238      1.0  0.82397  0.25949  0.93515  1.0000
  H   H392      1.0  0.77717  0.27770  0.88971  1.0000
  H   H393      1.0  0.75574  0.41150  0.93360  1.0000
  C   C239      1.0  0.76261  0.38729  0.91545  1.0000
  H   H394      1.0  0.79127  0.26017  0.97449  1.0000
  H   H395      1.0  0.91810  0.46321  0.99972  1.0000
  H   H396      1.0  0.80688  0.23405  0.92364  1.0000
  H   H397      1.0  0.72216  0.28440  0.99093  1.0000
  H   H398      1.0  0.73265  0.30057  0.88270  1.0000
  H   H399      1.0  0.80261  0.33732  0.90705  1.0000
  H   H400      1.0  0.81123  0.36932  0.93979  1.0000
  C   C240      1.0  0.75666  0.33959  0.97433  1.0000
  H   H401      1.0  0.84581  0.24091  0.94714  1.0000
  H   H402      1.0  0.56008  0.46547  0.91608  1.0000
  S   S72       1.0  0.69891  0.48376  0.91141  1.0000
  H   H403      1.0  0.90190  0.47862  0.93645  1.0000
  H   H404      1.0  0.82228  0.30544  0.97267  1.0000
  C   C241      1.0  0.56370  0.46008  0.68925  1.0000
  H   H405      1.0  0.68747  0.40833  0.95140  1.0000
  H   H406      1.0  0.73368  0.36099  0.96717  1.0000
  C   C242      1.0  0.78914  0.35149  0.92726  1.0000
  C   C243      1.0  0.74883  0.27798  0.89744  1.0000
  H   H407      1.0  0.53447  0.46129  0.69432  1.0000
  H   H408      1.0  0.73803  0.25790  0.94374  1.0000
  C   C244      1.0  0.80234  0.28588  0.95894  1.0000
  H   H409      1.0  0.77573  0.40681  0.89714  1.0000
  H   H410      1.0  0.90944  0.00811  0.69948  1.0000
  N   N16       1.0  0.77274  0.31601  0.94719  1.0000
  C   C245      1.0  0.74315  0.28965  0.93143  1.0000
  S   S73       1.0  0.50226  0.37681  0.85674  1.0000
  C   C246      1.0  0.53552  0.46045  0.96196  1.0000
  S   S74       1.0  0.73612  0.45193  0.99345  1.0000
  H   H411      1.0  0.71710  0.30842  0.93229  1.0000
  C   C247      1.0  0.92609  0.02397  0.97946  1.0000
  H   H412      1.0  0.54096  0.42415  0.96503  1.0000
  H   H413      1.0  0.51199  0.40684  0.72965  1.0000
  H   H414      1.0  0.63691  0.46695  0.87317  1.0000
  H   H415      1.0  0.91996  0.05825  0.98512  1.0000
  H   H416      1.0  0.57823  0.48703  0.70160  1.0000
  C   C248      1.0  0.92026  0.00794  0.94963  1.0000
  H   H417      1.0  0.94227  0.44431  0.96644  1.0000
  H   H418      1.0  0.60489  0.44104  0.96924  1.0000
  H   H419      1.0  0.51565  0.44374  0.91695  1.0000
  C   C249      1.0  0.94324  0.46704  0.98639  1.0000
  H   H420      1.0  0.57376  0.42805  0.69869  1.0000
  H   H421      1.0  0.90700  0.36011  0.99305  1.0000
  H   H422      1.0  0.77686  0.36247  0.98504  1.0000
  H   H423      1.0  0.95237  0.03151  0.71211  1.0000
  N   N17       1.0  0.56235  0.48782  0.98011  1.0000
  C   C250      1.0  0.74151  0.30965  0.99976  1.0000
  C   C251      1.0  0.93730  0.00029  0.70722  1.0000
  H   H424      1.0  0.60404  0.48743  0.94508  1.0000
  H   H425      1.0  0.65907  0.64367  0.14158  1.0000
  H   H426      1.0  0.86517  0.81907  0.00203  1.0000
  S   S75       1.0  0.56227  0.66280  0.04762  1.0000
  S   S76       1.0  0.79091  0.52514  0.02453  1.0000
  H   H427      1.0  0.66300  0.59402  0.11965  1.0000
  S   S77       1.0  0.68810  0.51852  0.05697  1.0000
  C   C252      1.0  0.59604  0.62094  0.04889  1.0000
  C   C253      1.0  0.62984  0.62951  0.03574  1.0000
  C   C254      1.0  0.65801  0.59807  0.03761  1.0000
  C   C255      1.0  0.65280  0.55792  0.05304  1.0000
  C   C256      1.0  0.61901  0.54924  0.06616  1.0000
  C   C257      1.0  0.59060  0.58029  0.06373  1.0000
  C   C258      1.0  0.54375  0.55537  0.16337  1.0000
  H   H428      1.0  0.57302  0.72012  0.14742  1.0000
  H   H429      1.0  0.95579  0.92800  0.01187  1.0000
  H   H430      1.0  0.56486  0.57300  0.07391  1.0000
  C   C259      1.0  0.64332  0.61920  0.12800  1.0000
  H   H431      1.0  0.59698  0.70842  0.21705  1.0000
  H   H432      1.0  0.53497  0.65324  0.14839  1.0000
  H   H433      1.0  0.61477  0.51827  0.07816  1.0000
  H   H434      1.0  0.63180  0.63484  0.10734  1.0000
  H   H435      1.0  0.56294  0.52846  0.15719  1.0000
  H   H436      1.0  0.68405  0.60552  0.02779  1.0000
  H   H437      1.0  0.52960  0.56757  0.14276  1.0000
  H   H438      1.0  0.60375  0.69522  0.12067  1.0000
  H   H439      1.0  0.55820  0.70611  0.11004  1.0000
  H   H440      1.0  0.54070  0.61249  0.19215  1.0000
  C   C260      1.0  0.58131  0.68086  0.20630  1.0000
  H   H441      1.0  0.62235  0.67991  0.17197  1.0000
  N   N18       1.0  0.58642  0.62394  0.16233  1.0000
  C   C261      1.0  0.56288  0.64829  0.13951  1.0000
  H   H442      1.0  0.51152  0.51076  0.02620  1.0000
  H   H443      1.0  0.55905  0.62786  0.11853  1.0000
  C   C262      1.0  0.57571  0.69484  0.12915  1.0000
  H   H444      1.0  0.52285  0.54015  0.17817  1.0000
  H   H445      1.0  0.57169  0.65919  0.22504  1.0000
  H   H446      1.0  0.63443  0.66086  0.02429  1.0000
  H   H447      1.0  0.62556  0.63590  0.19836  1.0000
  H   H448      1.0  0.55760  0.69564  0.19463  1.0000
  H   H449      1.0  0.60058  0.57200  0.13001  1.0000
  C   C263      1.0  0.56277  0.59344  0.18097  1.0000
  H   H450      1.0  0.62825  0.57346  0.16324  1.0000
  H   H451      1.0  0.99542  0.98169  0.26298  1.0000
  Fe  Fe36      1.0  0.50471  0.65056  0.06318  1.0000
  C   C264      1.0  0.61396  0.59509  0.14644  1.0000
  C   C265      1.0  0.60581  0.65488  0.18415  1.0000
  H   H452      1.0  0.57862  0.57793  0.19983  1.0000
  Fe  Fe37      1.0  0.73050  0.51600  0.01990  1.0000
  H   H453      1.0  0.50300  0.73023  0.23039  1.0000
  H   H454      1.0  0.86690  0.57373  0.01959  1.0000
  H   H455      1.0  0.91386  0.56216  0.02128  1.0000
  H   H456      1.0  0.88122  0.51837  0.02672  1.0000
  C   C266      1.0  0.88770  0.54866  0.01332  1.0000
  H   H457      1.0  0.99227  0.95991  0.29967  1.0000
  H   H458      1.0  0.93898  0.99215  0.30816  1.0000
  S   S78       1.0  0.97298  0.83232  0.52261  1.0000
  S   S79       1.0  0.92966  0.78492  0.57840  1.0000
  Fe  Fe38      1.0  0.91723  0.83567  0.54269  1.0000
  S   S80       1.0  0.86937  0.83535  0.51037  1.0000
  S   S81       1.0  0.92873  0.89285  0.57392  1.0000
  Fe  Fe39      1.0  0.98515  0.88775  0.55575  1.0000
  H   H459      1.0  0.55461  0.95668  0.51939  1.0000
  S   S82       1.0  0.63523  0.92006  0.40258  1.0000
  H   H460      1.0  0.54743  0.97074  0.38631  1.0000
  N   N19       1.0  0.55595  0.49923  0.63701  1.0000
  H   H461      1.0  0.51976  0.58623  0.45720  1.0000
  C   C267      1.0  0.51120  0.51977  0.44008  1.0000
  H   H462      1.0  0.55871  0.52274  0.59041  1.0000
  C   C268      1.0  0.97938  0.95169  0.63380  1.0000
  H   H463      1.0  0.99196  0.91091  0.48720  1.0000
  S   S83       1.0  0.54042  0.75183  0.43873  1.0000
  S   S84       1.0  0.53371  0.65900  0.37137  1.0000
  Fe  Fe40      1.0  0.94649  0.84199  0.60854  1.0000
  S   S85       1.0  0.72093  0.97622  0.43969  1.0000
  Fe  Fe41      1.0  0.66077  0.97314  0.43306  1.0000
  C   C269      1.0  0.89600  0.95638  0.64174  1.0000
  S   S86       1.0  0.50750  0.53569  0.40156  1.0000
  C   C270      1.0  0.60565  0.87633  0.41295  1.0000
  C   C271      1.0  0.59167  0.84818  0.39010  1.0000
  C   C272      1.0  0.57070  0.81060  0.39756  1.0000
  C   C273      1.0  0.56380  0.80071  0.42802  1.0000
  C   C274      1.0  0.57726  0.82932  0.45085  1.0000
  C   C275      1.0  0.59800  0.86705  0.44336  1.0000
  H   H464      1.0  0.59766  0.85494  0.36650  1.0000
  H   H465      1.0  0.56056  0.78874  0.37980  1.0000
  H   H466      1.0  0.57211  0.82174  0.47448  1.0000
  H   H467      1.0  0.60910  0.88800  0.46111  1.0000
  C   C276      1.0  0.83507  0.87536  0.51549  1.0000
  C   C277      1.0  0.82783  0.89408  0.54400  1.0000
  C   C278      1.0  0.79889  0.92418  0.54737  1.0000
  C   C279      1.0  0.77743  0.93625  0.52223  1.0000
  C   C280      1.0  0.78544  0.91828  0.49368  1.0000
  C   C281      1.0  0.81390  0.88773  0.49037  1.0000
  H   H468      1.0  0.84389  0.88450  0.56356  1.0000
  H   H469      1.0  0.99641  0.78132  0.65755  1.0000
  H   H470      1.0  0.76954  0.92743  0.47411  1.0000
  H   H471      1.0  0.81965  0.87370  0.46822  1.0000
  H   H472      1.0  0.89095  0.93884  0.48033  1.0000
  S   S87       1.0  0.64824  0.99075  0.48151  1.0000
  H   H473      1.0  0.98469  0.64036  0.65839  1.0000
  H   H474      1.0  0.79290  0.93786  0.56958  1.0000
  H   H475      1.0  0.92358  0.68469  0.64354  1.0000
  H   H476      1.0  0.51742  0.93068  0.43915  1.0000
  C   C282      1.0  0.56759  0.54371  0.64991  1.0000
  C   C283      1.0  0.92846  0.71771  0.65426  1.0000
  H   H477      1.0  0.99213  0.74942  0.62424  1.0000
  H   H478      1.0  0.56527  0.57004  0.63216  1.0000
  H   H479      1.0  0.97492  0.95663  0.60899  1.0000
  H   H480      1.0  0.83270  0.97186  0.45743  1.0000
  C   C284      1.0  0.99748  0.94559  0.48270  1.0000
  H   H481      1.0  0.52381  0.56297  0.51110  1.0000
  H   H482      1.0  0.59687  0.54283  0.65610  1.0000
  H   H483      1.0  0.57777  0.94527  0.48506  1.0000
  C   C285      1.0  0.51680  0.55145  0.46302  1.0000
  N   N20       1.0  0.70415  0.80586  0.45768  1.0000
  C   C286      1.0  0.69452  0.75742  0.45294  1.0000
  C   C287      1.0  0.74409  0.80897  0.46484  1.0000
  C   C288      1.0  0.69636  0.83278  0.42956  1.0000
  C   C289      1.0  0.68159  0.82404  0.48330  1.0000
  C   C290      1.0  0.65562  0.74767  0.44146  1.0000
  C   C291      1.0  0.75560  0.79449  0.49712  1.0000
  C   C292      1.0  0.71523  0.81697  0.40030  1.0000
  C   C293      1.0  0.68829  0.87335  0.49181  1.0000
  H   H484      1.0  0.71342  0.74122  0.43669  1.0000
  H   H485      1.0  0.69788  0.73859  0.47452  1.0000
  H   H486      1.0  0.75441  0.84336  0.46130  1.0000
  H   H487      1.0  0.76004  0.78824  0.44871  1.0000
  H   H488      1.0  0.66692  0.83386  0.42480  1.0000
  H   H489      1.0  0.70433  0.86829  0.43296  1.0000
  H   H490      1.0  0.65235  0.82202  0.47744  1.0000
  H   H491      1.0  0.68389  0.80334  0.50419  1.0000
  H   H492      1.0  0.64973  0.76288  0.41903  1.0000
  H   H493      1.0  0.65233  0.71111  0.43841  1.0000
  H   H494      1.0  0.63475  0.75806  0.45802  1.0000
  H   H495      1.0  0.78567  0.79371  0.49852  1.0000
  H   H496      1.0  0.74651  0.81876  0.51459  1.0000
  H   H497      1.0  0.74571  0.76070  0.50280  1.0000
  H   H498      1.0  0.70728  0.83960  0.38143  1.0000
  H   H499      1.0  0.70670  0.78293  0.39347  1.0000
  H   H500      1.0  0.74512  0.81870  0.40242  1.0000
  H   H501      1.0  0.67124  0.89566  0.47769  1.0000
  H   H502      1.0  0.71671  0.88364  0.48910  1.0000
  H   H503      1.0  0.68215  0.87891  0.51624  1.0000
  C   C294      1.0  0.99577  0.96156  0.45265  1.0000
  H   H504      1.0  0.62386  0.52653  0.61170  1.0000
  C   C295      1.0  0.99694  0.66865  0.64570  1.0000
  C   C296      1.0  0.51932  0.53814  0.49356  1.0000
  S   S88       1.0  0.92599  0.84027  0.65747  1.0000
  H   H505      1.0  0.98873  0.93892  0.43433  1.0000
  S   S89       1.0  0.74031  0.97267  0.52742  1.0000
  H   H506      1.0  0.57622  0.96190  0.43649  1.0000
  H   H507      1.0  0.96785  0.91813  0.63830  1.0000
  C   C297      1.0  0.55100  0.95404  0.49433  1.0000
  H   H508      1.0  0.90668  0.92497  0.63226  1.0000
  N   N21       1.0  0.99732  0.71016  0.66521  1.0000
  H   H509      1.0  0.61687  0.49999  0.57578  1.0000
  H   H510      1.0  0.88415  0.96801  0.43539  1.0000
  H   H511      1.0  0.53153  0.92656  0.48999  1.0000
  C   C298      1.0  0.50378  0.96383  0.43841  1.0000
  Fe  Fe42      1.0  0.98693  0.78610  0.56131  1.0000
  H   H512      1.0  0.93317  0.74310  0.63659  1.0000
  H   H513      1.0  0.87107  0.96459  0.62864  1.0000
  C   C299      1.0  0.61119  0.49722  0.60051  1.0000
  C   C300      1.0  0.88780  0.96515  0.49785  1.0000
  H   H514      1.0  0.92721  0.99188  0.43267  1.0000
  H   H515      1.0  0.90211  0.95272  0.51845  1.0000
  Fe  Fe43      1.0  0.50981  0.70680  0.40537  1.0000
  H   H516      1.0  0.88961  0.99176  0.38459  1.0000
  C   C301      1.0  0.51535  0.49356  0.63523  1.0000
  H   H517      1.0  0.85904  0.96913  0.50429  1.0000
  H   H518      1.0  0.90307  0.72730  0.66600  1.0000
  N   N22       1.0  0.96032  0.98679  0.65244  1.0000
  H   H519      1.0  0.97974  0.67364  0.62507  1.0000
  C   C302      1.0  0.56976  0.49549  0.60481  1.0000
  H   H520      1.0  0.88775  0.95075  0.66563  1.0000
  H   H521      1.0  0.94816  0.64976  0.96812  1.0000
  C   C303      1.0  0.63116  0.49957  0.98728  1.0000
  H   H522      1.0  0.56406  0.55406  0.99966  1.0000
  Fe  Fe44      1.0  0.94672  0.88136  0.88823  1.0000
  S   S90       1.0  0.95743  0.82222  0.91792  1.0000
  S   S91       1.0  0.91768  0.94319  0.90512  1.0000
  Fe  Fe45      1.0  0.94343  0.78087  0.87683  1.0000
  S   S92       1.0  0.90873  0.71775  0.87503  1.0000
  H   H523      1.0  0.56670  0.56853  0.69686  1.0000
  S   S93       1.0  0.92784  0.84017  0.84803  1.0000
  C   C304      1.0  0.98631  0.85528  0.69450  1.0000
  C   C305      1.0  0.83311  0.93124  0.95194  1.0000
  C   C306      1.0  0.98482  0.84938  0.75013  1.0000
  C   C307      1.0  0.88365  0.69425  0.90523  1.0000
  C   C308      1.0  0.88710  0.70966  0.93516  1.0000
  C   C309      1.0  0.86639  0.69023  0.95844  1.0000
  C   C310      1.0  0.84238  0.65491  0.95210  1.0000
  C   C311      1.0  0.83914  0.63926  0.92222  1.0000
  C   C312      1.0  0.85972  0.65885  0.89893  1.0000
  H   H524      1.0  0.90595  0.73623  0.94038  1.0000
  H   H525      1.0  0.78712  0.88856  0.94703  1.0000
  H   H526      1.0  0.82045  0.61248  0.91698  1.0000
  H   H527      1.0  0.85684  0.64678  0.87580  1.0000
  H   H528      1.0  0.87713  0.80152  0.89823  1.0000
  H   H529      1.0  0.75749  0.82359  0.95053  1.0000
  H   H530      1.0  0.84713  0.81478  0.86780  1.0000
  H   H531      1.0  0.99981  0.75027  0.72664  1.0000
  C   C313      1.0  0.92816  0.96349  0.94200  1.0000
  C   C314      1.0  0.93068  0.83547  0.71970  1.0000
  C   C315      1.0  0.94964  0.84382  0.69269  1.0000
  H   H532      1.0  0.65661  0.49681  0.97411  1.0000
  Fe  Fe46      1.0  0.73413  0.49685  0.95287  1.0000
  H   H533      1.0  0.87100  0.50544  0.97695  1.0000
  H   H534      1.0  0.83081  0.77378  0.94847  1.0000
  C   C316      1.0  0.77611  0.79735  0.94224  1.0000
  S   S94       1.0  0.79454  0.50596  0.95106  1.0000
  C   C317      1.0  0.81500  0.80404  0.95447  1.0000
  H   H535      1.0  0.85996  0.93355  0.96316  1.0000
  Fe  Fe47      1.0  0.98599  0.84080  0.83326  1.0000
  H   H536      1.0  0.89709  0.56246  0.89688  1.0000
  N   N23       1.0  0.91914  0.53840  0.96063  1.0000
  H   H537      1.0  0.86919  0.70238  0.98155  1.0000
  H   H538      1.0  0.88900  0.87102  0.94461  1.0000
  H   H539      1.0  0.86990  0.87903  0.99955  1.0000
  H   H540      1.0  0.83220  0.77767  0.89664  1.0000
  H   H541      1.0  0.85958  0.54278  0.91956  1.0000
  C   C318      1.0  0.94817  0.83800  0.74827  1.0000
  H   H542      1.0  0.83587  0.93922  0.92747  1.0000
  H   H543      1.0  0.95758  0.74811  0.69078  1.0000
  C   C319      1.0  0.84840  0.80817  0.89264  1.0000
  H   H544      1.0  0.88582  0.81248  0.94773  1.0000
  H   H545      1.0  0.90227  0.82678  0.71857  1.0000
  C   C320      1.0  0.91250  0.51258  0.93149  1.0000
  H   H546      1.0  0.57234  0.54419  0.93072  1.0000
  C   C321      1.0  0.87280  0.84399  0.95514  1.0000
  N   N24       1.0  0.83410  0.84575  0.94418  1.0000
  H   H547      1.0  0.76563  0.76501  0.95080  1.0000
  H   H548      1.0  0.93483  0.98241  0.72923  1.0000
  H   H549      1.0  0.95387  0.58431  0.93652  1.0000
  H   H550      1.0  0.81614  0.95785  0.96214  1.0000
  C   C322      1.0  0.83408  0.84927  0.90995  1.0000
  H   H551      1.0  0.54720  0.58960  0.94557  1.0000
  C   C323      1.0  0.93921  0.61763  0.97814  1.0000
  H   H552      1.0  0.94853  0.90106  0.95889  1.0000
  H   H553      1.0  0.85125  0.87770  0.90250  1.0000
  Fe  Fe48      1.0  0.78628  0.56540  0.98143  1.0000
  S   S95       1.0  0.72554  0.56016  0.97921  1.0000
  H   H554      1.0  0.52317  0.54155  0.97981  1.0000
  H   H555      1.0  0.81042  0.88186  0.98201  1.0000
  C   C324      1.0  0.81471  0.88566  0.95710  1.0000
  C   C325      1.0  0.54710  0.56132  0.67818  1.0000
  H   H556      1.0  0.53361  0.59344  0.67280  1.0000
  C   C326      1.0  0.88464  0.53844  0.97880  1.0000
  S   S96       1.0  0.81729  0.63142  0.98228  1.0000
  C   C327      1.0  0.88535  0.53321  0.90868  1.0000
  H   H557      1.0  0.93330  0.83118  0.76886  1.0000
  H   H558      1.0  0.80652  0.85682  0.90101  1.0000
  H   H559      1.0  0.90809  0.60196  0.93912  1.0000
  H   H560      1.0  0.77489  0.79551  0.91707  1.0000
  H   H561      1.0  0.81290  0.80328  0.97969  1.0000
  C   C328      1.0  0.94196  0.93518  0.96444  1.0000
  C   C329      1.0  0.95776  0.97008  0.68469  1.0000
  H   H562      1.0  0.97480  0.51614  0.96247  1.0000
  H   H563      1.0  0.86504  0.56238  0.96886  1.0000
  C   C330      1.0  0.55308  0.53683  0.97902  1.0000
  C   C331      1.0  0.93010  0.58514  0.95200  1.0000
  H   H564      1.0  0.95289  0.68944  0.69422  1.0000
  H   H565      1.0  0.94470  0.93667  0.68532  1.0000
  C   C332      1.0  0.56743  0.56367  0.95162  1.0000
  C   C333      1.0  0.95012  0.51584  0.97694  1.0000
  H   H566      1.0  0.87871  0.50825  0.89076  1.0000
  H   H567      1.0  0.96170  0.60600  0.99283  1.0000
  C   C334      1.0  0.95961  0.71635  0.67776  1.0000
  H   H568      1.0  0.52145  0.50204  0.92258  1.0000
  H   H569      1.0  0.91489  0.62555  0.99177  1.0000
  H   H570      1.0  0.98515  0.96485  0.69469  1.0000
  H   H571      1.0  0.52647  0.53868  0.68751  1.0000
  H   H572      1.0  0.93831  0.50748  0.91893  1.0000
  C   C335      1.0  0.87871  0.84668  0.98990  1.0000
  H   H573      1.0  0.95853  0.53390  0.99778  1.0000
  H   H574      1.0  0.59233  0.58234  0.95811  1.0000
  H   H575      1.0  0.62635  0.53541  0.99168  1.0000
  C   C336      1.0  0.94619  0.95060  0.99448  1.0000
  H   H576      1.0  0.90818  0.84387  0.99479  1.0000
