data_image0
_chemical_formula_structural       SHCHFeSFeS2FeS2FeSFeCS3HCHFeHCH4CH3C3H3C6H6CH2NC8H6C2H4CH10CH4CH2C2H4NCHCHC2H2C2H4CHCHCHCH2NH4SH3C3H2CH2CHSCH2CH6CHCH2CHCH2SHSCHCSCSCFeSFeS2FeS2FeSFeHS3C2H3CH2CH2CH2C4H2C6H4CHCH4NC3H2C2H7CHCH8CHCNC5H2CH10CH4CH2CHC2FeHSH3CH2CSCHNH4CH2FeSFeS3FeSHCHFeSFeS3C2H3CHCH2C6H5CHC2S2FeSFeSFeS2FeS2HFeHS2HC2H2C2H2C7H4CSH3NC7H2CH11NC6H15SH6SH3CH2CH4CH2CHNH4CHCHCH2CH9CH4CH3C2HNHNHC2H3C2HCH6NH2CHCH3C2HFeHFeC2HSCH3C5SHC3H2CH4C2FeSFeS3FeSHCSFeSFeS3C3H3C2H2C6H4C3HCS2FeSFeSFeS2FeS2Fe2HS2FeCH3C3H2C6H5CNC2NC5H12NC4HC3H8CH13CHCH3CNH5CH2CH3C3H2CH3CH3CHCNH2CH3CH4CH6C2HCH6CH2CH3CH3CHCH3CHCH5FeS2HSFeSHFeS2FeSFeS3HC2H2C3H3CH5C2HC6H4CHC2H3C2HC2HCHCH5CH4CNHCHCH8CHCH3C2H4NFeCH5C2HCH2C2H2C2H5NC3HCH2CH5SCH2CH2C3HC2SNH5CHCSHC2FeS2HSFeSNFeS2FeSFeS3C3H4CH5CH2CH3C6H4CHCHFeHC3H3C2H2NC4H2C2H17C2HCHCHCH2C2H3C2HCNCHCH5CH5C2H2CHC4H3CHNHSH5SCH15C3FeSHCH2FeS2FeS2FeSFeS4C6H4CH4CHCH3CH3C6H5CH3NHC2H10SHNH3C2HCH5CHCH3CHC3HCHCSCH2C2HNC6H8CHCH2CH2C2H4C3H2CHFeH5SCH2C2H5NH4CH4CHSHCHCFeS2FeS2FeSFeS4C6H4CH2CHCH5CHFeC7H3CNH2NCH2CHCH2SH2CH2CHCHCNC2HC3HCH9C2NCH2C2H3CH7SCH2CH4CH4CH3CH2S2HCSFeSFeS2FeS2HFeS3C2H2C4H2CH2C8H4FeSFeS2HFeS2FeS2HFeS3C3H2CHSH2CH2CHC6H4NC4H8CHCH5CHCFeH2CHNC4H10C2H6C2H2CH2SH2C2H3CH2CFeH2CH3C2H4CHNH2FeH2CH5CH3CHCHCHCHSHCHFeSFeS2FeS2HFeS3C2SH2C3H2CH2CHC6H6FeS2CFeS2FeS2Fe2S3C3H2CHCH2CH2SHC6H12CH5NCHC4HCNC2HCH7CNC8H20CH3FeCH4C2H2NHCHC4FeH8CHCH3CH5CH2CH3CSNHSCHCHFeC2H3CH5CH2CSFeS2FeS2FeSFeS3C2H2C7H4SCH8C6H5SHC2HCHCH2NH5CH2CH3CH6C2H6NCFeHCH4CH3CHC4HFeHCHCNHCHSH2CH2C4H6C2H2NH3CHCSC2HCH6CHC2H2SC2HSFeS2FeS2FeSFeS3CHCH2C6H4C3H2C2HC8H4NC4HC4H9CH8NH2C3H8C2HC2H14CH3NHC2H3CSCH4CHFeHC3H6CHSH3CH3SH2CH2FeHFeC
_chemical_formula_sum              "S192 H1152 C672 Fe96 N48"
_cell_length_a       41.2738
_cell_length_b       47.688
_cell_length_c       42.3394
_cell_angle_alpha    89.94
_cell_angle_beta     89.8918
_cell_angle_gamma    90.1104

_space_group_name_H-M_alt    "P 1"
_space_group_IT_number       1

loop_
  _space_group_symop_operation_xyz
  'x, y, z'

loop_
  _atom_site_type_symbol
  _atom_site_label
  _atom_site_symmetry_multiplicity
  _atom_site_fract_x
  _atom_site_fract_y
  _atom_site_fract_z
  _atom_site_occupancy
  S   S1        1.0  0.07594  0.02292  0.22304  1.0000
  H   H1        1.0  0.47232  0.21856  0.00482  1.0000
  C   C1        1.0  0.36955  0.16220  0.41666  1.0000
  H   H2        1.0  0.35490  0.28518  0.08165  1.0000
  Fe  Fe1       1.0  0.13031  0.01676  0.22180  1.0000
  S   S2        1.0  0.16731  0.05199  0.21308  1.0000
  Fe  Fe2       1.0  0.30260  0.08756  0.07440  1.0000
  S   S3        1.0  0.30644  0.10275  0.02375  1.0000
  S   S4        1.0  0.25466  0.06628  0.08920  1.0000
  Fe  Fe3       1.0  0.37665  0.09237  0.08306  1.0000
  S   S5        1.0  0.38497  0.10573  0.03298  1.0000
  S   S6        1.0  0.41569  0.09001  0.12080  1.0000
  Fe  Fe4       1.0  0.34283  0.13512  0.04046  1.0000
  S   S7        1.0  0.35693  0.18119  0.02933  1.0000
  Fe  Fe5       1.0  0.34831  0.07270  0.02044  1.0000
  C   C2        1.0  0.34486  0.25137  0.46138  1.0000
  S   S8        1.0  0.33545  0.12239  0.09161  1.0000
  S   S9        1.0  0.34360  0.05673  0.06997  1.0000
  S   S10       1.0  0.36143  0.27884  0.43734  1.0000
  H   H3        1.0  0.39439  0.17983  0.12067  1.0000
  C   C3        1.0  0.41434  0.16803  0.10915  1.0000
  H   H4        1.0  0.37898  0.20637  0.40806  1.0000
  Fe  Fe6       1.0  0.07443  0.99392  0.26558  1.0000
  H   H5        1.0  0.37458  0.00726  0.02728  1.0000
  C   C4        1.0  0.34498  0.20763  0.00163  1.0000
  H   H6        1.0  0.08784  0.03660  0.14606  1.0000
  H   H7        1.0  0.38020  0.16499  0.44067  1.0000
  H   H8        1.0  0.46006  0.12272  0.01072  1.0000
  H   H9        1.0  0.11362  0.99974  0.12137  1.0000
  C   C5        1.0  0.35126  0.99642  0.44637  1.0000
  H   H10       1.0  0.39116  0.31335  0.00054  1.0000
  H   H11       1.0  0.43746  0.19906  0.01520  1.0000
  H   H12       1.0  0.14883  0.01946  0.11039  1.0000
  C   C6        1.0  0.34886  0.27753  0.05768  1.0000
  C   C7        1.0  0.47019  0.08508  0.08266  1.0000
  C   C8        1.0  0.45786  0.08865  0.11319  1.0000
  H   H13       1.0  0.38422  0.10112  0.38274  1.0000
  H   H14       1.0  0.45377  0.08167  0.06316  1.0000
  H   H15       1.0  0.47025  0.09525  0.16207  1.0000
  C   C9        1.0  0.19503  0.05391  0.18076  1.0000
  C   C10       1.0  0.21562  0.07736  0.17759  1.0000
  C   C11       1.0  0.23556  0.08081  0.15061  1.0000
  C   C12       1.0  0.23460  0.06109  0.12614  1.0000
  C   C13       1.0  0.21428  0.03757  0.12962  1.0000
  C   C14       1.0  0.19529  0.03362  0.15697  1.0000
  H   H16       1.0  0.21577  0.09319  0.19587  1.0000
  H   H17       1.0  0.25073  0.09922  0.14826  1.0000
  H   H18       1.0  0.21277  0.02246  0.11081  1.0000
  H   H19       1.0  0.18010  0.01525  0.15926  1.0000
  H   H20       1.0  0.34954  0.13467  0.36676  1.0000
  H   H21       1.0  0.26244  0.29511  0.01009  1.0000
  C   C15       1.0  0.36479  0.99453  0.00841  1.0000
  H   H22       1.0  0.35318  0.19116  0.37932  1.0000
  H   H23       1.0  0.21283  0.02354  0.46503  1.0000
  N   N1        1.0  0.10749  0.07286  0.12110  1.0000
  C   C16       1.0  0.08994  0.09069  0.14512  1.0000
  C   C17       1.0  0.08777  0.07358  0.09115  1.0000
  C   C18       1.0  0.14047  0.08589  0.11552  1.0000
  C   C19       1.0  0.36540  0.22954  0.47154  1.0000
  C   C20       1.0  0.10704  0.09444  0.17723  1.0000
  C   C21       1.0  0.38968  0.10238  0.40830  1.0000
  C   C22       1.0  0.15772  0.07897  0.08413  1.0000
  C   C23       1.0  0.12210  0.02025  0.11203  1.0000
  H   H24       1.0  0.08532  0.11208  0.13547  1.0000
  H   H25       1.0  0.06576  0.08166  0.15090  1.0000
  H   H26       1.0  0.28111  0.05014  0.47157  1.0000
  H   H27       1.0  0.08527  0.09560  0.08264  1.0000
  H   H28       1.0  0.13901  0.10923  0.11624  1.0000
  H   H29       1.0  0.15751  0.08015  0.13476  1.0000
  C   C24       1.0  0.11068  0.04369  0.13455  1.0000
  C   C25       1.0  0.31567  0.20656  0.98508  1.0000
  H   H30       1.0  0.09306  0.10949  0.19186  1.0000
  H   H31       1.0  0.10757  0.07446  0.19060  1.0000
  H   H32       1.0  0.13196  0.10296  0.17503  1.0000
  H   H33       1.0  0.03687  0.07428  0.10753  1.0000
  C   C26       1.0  0.36518  0.23121  0.99721  1.0000
  H   H34       1.0  0.10002  0.06250  0.07149  1.0000
  H   H35       1.0  0.18294  0.08716  0.08511  1.0000
  H   H36       1.0  0.14585  0.08956  0.06388  1.0000
  H   H37       1.0  0.33798  0.20004  0.41836  1.0000
  H   H38       1.0  0.30871  0.16745  0.43909  1.0000
  H   H39       1.0  0.44535  0.23149  0.03523  1.0000
  H   H40       1.0  0.15944  0.05625  0.07954  1.0000
  H   H41       1.0  0.40286  0.15053  0.09605  1.0000
  H   H42       1.0  0.42518  0.15861  0.03612  1.0000
  H   H43       1.0  0.13659  0.99167  0.34012  1.0000
  C   C27       1.0  0.43305  0.18792  0.08683  1.0000
  H   H44       1.0  0.34761  0.00711  0.42412  1.0000
  H   H45       1.0  0.24526  0.02653  0.02712  1.0000
  H   H46       1.0  0.42979  0.15943  0.12823  1.0000
  H   H47       1.0  0.44115  0.20641  0.10074  1.0000
  C   C28       1.0  0.44793  0.15207  0.04810  1.0000
  H   H48       1.0  0.29815  0.10470  0.45304  1.0000
  H   H49       1.0  0.31090  0.16476  0.35069  1.0000
  C   C29       1.0  0.47131  0.14114  0.02248  1.0000
  C   C30       1.0  0.05341  0.06087  0.09351  1.0000
  H   H50       1.0  0.29809  0.17270  0.38983  1.0000
  H   H51       1.0  0.36908  0.11441  0.45293  1.0000
  H   H52       1.0  0.28673  0.01051  0.08212  1.0000
  H   H53       1.0  0.02799  0.99738  0.08107  1.0000
  N   N2        1.0  0.34423  0.13934  0.41729  1.0000
  C   C31       1.0  0.36050  0.11257  0.42803  1.0000
  H   H54       1.0  0.27310  0.13384  0.46255  1.0000
  C   C32       1.0  0.32999  0.13451  0.38494  1.0000
  H   H55       1.0  0.49468  0.26884  0.31815  1.0000
  C   C33       1.0  0.26876  0.01957  0.01721  1.0000
  C   C34       1.0  0.30353  0.15525  0.37359  1.0000
  H   H56       1.0  0.28321  0.99353  0.45954  1.0000
  H   H57       1.0  0.34303  0.09480  0.42795  1.0000
  C   C35       1.0  0.47775  0.19746  0.05037  1.0000
  C   C36       1.0  0.31198  0.24991  0.46942  1.0000
  H   H58       1.0  0.28391  0.31589  0.98099  1.0000
  H   H59       1.0  0.31915  0.11311  0.38350  1.0000
  H   H60       1.0  0.47909  0.18860  0.13385  1.0000
  H   H61       1.0  0.29579  0.26638  0.46181  1.0000
  C   C37       1.0  0.31862  0.29177  0.04375  1.0000
  H   H62       1.0  0.33074  0.14725  0.46578  1.0000
  C   C38       1.0  0.35192  0.00744  0.98154  1.0000
  H   H63       1.0  0.05365  0.03939  0.10350  1.0000
  C   C39       1.0  0.01344  0.99763  0.33519  1.0000
  H   H64       1.0  0.28051  0.14383  0.36903  1.0000
  C   C40       1.0  0.29846  0.99163  0.07165  1.0000
  H   H65       1.0  0.37000  0.27905  0.04170  1.0000
  H   H66       1.0  0.39089  0.23043  0.46564  1.0000
  N   N3        1.0  0.46096  0.17490  0.06919  1.0000
  H   H67       1.0  0.27702  0.12349  0.42219  1.0000
  H   H68       1.0  0.26906  0.02582  0.99192  1.0000
  H   H69       1.0  0.41151  0.11547  0.41239  1.0000
  H   H70       1.0  0.49222  0.28770  0.35427  1.0000
  S   S11       1.0  0.12917  0.99241  0.26733  1.0000
  H   H71       1.0  0.31337  0.28026  0.02146  1.0000
  H   H72       1.0  0.41480  0.19636  0.06997  1.0000
  H   H73       1.0  0.11150  0.02137  0.08816  1.0000
  C   C41       1.0  0.29042  0.12565  0.44466  1.0000
  C   C42       1.0  0.45684  0.21241  0.02519  1.0000
  C   C43       1.0  0.31915  0.14628  0.44205  1.0000
  H   H74       1.0  0.34370  0.25473  0.06023  1.0000
  H   H75       1.0  0.38791  0.23236  0.00973  1.0000
  C   C44       1.0  0.01163  0.99197  0.36784  1.0000
  H   H76       1.0  0.28866  0.03147  0.02858  1.0000
  H   H77       1.0  0.12803  0.04361  0.15458  1.0000
  C   C45       1.0  0.35865  0.19131  0.40493  1.0000
  H   H78       1.0  0.38998  0.15655  0.40082  1.0000
  S   S12       1.0  0.35205  0.04917  0.47251  1.0000
  C   C46       1.0  0.47957  0.09258  0.13836  1.0000
  H   H79       1.0  0.04288  0.05931  0.06945  1.0000
  H   H80       1.0  0.39611  0.08083  0.41617  1.0000
  C   C47       1.0  0.48511  0.16188  0.09151  1.0000
  H   H81       1.0  0.29976  0.18871  0.98816  1.0000
  H   H82       1.0  0.23301  0.99926  0.06709  1.0000
  H   H83       1.0  0.44058  0.13358  0.06242  1.0000
  H   H84       1.0  0.29815  0.28687  0.06010  1.0000
  H   H85       1.0  0.31833  0.99982  0.05640  1.0000
  H   H86       1.0  0.32939  0.99170  0.11322  1.0000
  C   C48       1.0  0.27342  0.98742  0.01939  1.0000
  H   H87       1.0  0.49469  0.13405  0.03246  1.0000
  C   C49       1.0  0.00840  0.98649  0.09283  1.0000
  H   H88       1.0  0.26420  0.03349  0.43686  1.0000
  H   H89       1.0  0.47460  0.14320  0.10334  1.0000
  C   C50       1.0  0.35495  0.01210  0.47421  1.0000
  H   H90       1.0  0.24732  0.06531  0.45163  1.0000
  C   C51       1.0  0.25842  0.04509  0.45886  1.0000
  H   H91       1.0  0.47571  0.15711  0.00388  1.0000
  H   H92       1.0  0.33762  0.31487  0.99027  1.0000
  S   S13       1.0  0.04849  0.98759  0.14493  1.0000
  H   H93       1.0  0.48657  0.21438  0.06623  1.0000
  S   S14       1.0  0.05160  0.99390  0.31552  1.0000
  C   C52       1.0  0.26092  0.98420  0.47005  1.0000
  H   H94       1.0  0.03317  0.98541  0.38026  1.0000
  C   C53       1.0  0.26924  0.31671  0.00281  1.0000
  S   S15       1.0  0.06804  0.01753  0.72902  1.0000
  C   C54       1.0  0.16506  0.11773  0.79967  1.0000
  S   S16       1.0  0.05596  0.01184  0.82375  1.0000
  C   C55       1.0  0.38392  0.06747  0.69234  1.0000
  Fe  Fe7       1.0  0.12184  0.01137  0.72072  1.0000
  S   S17       1.0  0.15556  0.04777  0.70649  1.0000
  Fe  Fe8       1.0  0.29836  0.08120  0.57343  1.0000
  S   S18       1.0  0.29621  0.09503  0.52270  1.0000
  S   S19       1.0  0.25786  0.05250  0.59234  1.0000
  Fe  Fe9       1.0  0.36973  0.10014  0.57844  1.0000
  S   S20       1.0  0.37256  0.11499  0.52778  1.0000
  S   S21       1.0  0.40784  0.10007  0.61747  1.0000
  Fe  Fe10      1.0  0.32349  0.13409  0.53691  1.0000
  S   S22       1.0  0.30333  0.17592  0.51808  1.0000
  Fe  Fe11      1.0  0.34502  0.07512  0.51698  1.0000
  H   H95       1.0  0.22548  0.04422  0.49777  1.0000
  S   S23       1.0  0.32198  0.12165  0.58858  1.0000
  S   S24       1.0  0.34596  0.05901  0.56657  1.0000
  S   S25       1.0  0.31333  0.28043  0.93555  1.0000
  C   C56       1.0  0.35966  0.99797  0.50282  1.0000
  C   C57       1.0  0.35332  0.20650  0.48910  1.0000
  H   H96       1.0  0.18465  0.99283  0.55043  1.0000
  H   H97       1.0  0.32979  0.00051  0.93614  1.0000
  H   H98       1.0  0.36282  0.00976  0.52437  1.0000
  C   C58       1.0  0.32038  0.20493  0.49686  1.0000
  H   H99       1.0  0.39610  0.05357  0.67506  1.0000
  H   H100      1.0  0.21504  0.01972  0.55013  1.0000
  C   C59       1.0  0.28026  0.99234  0.54719  1.0000
  H   H101      1.0  0.12731  0.03423  0.82085  1.0000
  H   H102      1.0  0.17496  0.09669  0.79413  1.0000
  C   C60       1.0  0.27364  0.01165  0.51863  1.0000
  H   H103      1.0  0.03446  0.10495  0.82492  1.0000
  H   H104      1.0  0.09254  0.07270  0.72726  1.0000
  C   C61       1.0  0.33852  0.02368  0.66116  1.0000
  C   C62       1.0  0.46431  0.10050  0.58142  1.0000
  C   C63       1.0  0.45041  0.09791  0.61144  1.0000
  C   C64       1.0  0.47089  0.09438  0.63769  1.0000
  H   H105      1.0  0.44892  0.10323  0.56101  1.0000
  H   H106      1.0  0.46042  0.09230  0.66101  1.0000
  C   C65       1.0  0.18449  0.04849  0.67509  1.0000
  C   C66       1.0  0.20351  0.07275  0.67040  1.0000
  C   C67       1.0  0.22621  0.07443  0.64540  1.0000
  C   C68       1.0  0.23018  0.05179  0.62474  1.0000
  C   C69       1.0  0.21149  0.02744  0.62969  1.0000
  C   C70       1.0  0.18884  0.02576  0.65467  1.0000
  H   H107      1.0  0.20034  0.09052  0.68594  1.0000
  H   H108      1.0  0.24015  0.09339  0.64178  1.0000
  H   H109      1.0  0.21434  0.00975  0.61399  1.0000
  H   H110      1.0  0.17450  0.00695  0.65793  1.0000
  C   C71       1.0  0.33984  0.99067  0.95697  1.0000
  H   H111      1.0  0.38047  0.08849  0.68167  1.0000
  C   C72       1.0  0.47441  0.16892  0.63844  1.0000
  H   H112      1.0  0.10857  0.06312  0.83970  1.0000
  H   H113      1.0  0.40549  0.01482  0.92707  1.0000
  H   H114      1.0  0.28576  0.09727  0.68670  1.0000
  H   H115      1.0  0.40100  0.07029  0.71234  1.0000
  N   N4        1.0  0.32650  0.04801  0.68058  1.0000
  C   C73       1.0  0.35183  0.05504  0.70501  1.0000
  C   C74       1.0  0.42912  0.00718  0.93614  1.0000
  C   C75       1.0  0.32063  0.07241  0.65875  1.0000
  H   H116      1.0  0.36043  0.02984  0.64740  1.0000
  H   H117      1.0  0.36953  0.19004  0.49670  1.0000
  C   C76       1.0  0.29460  0.01255  0.71491  1.0000
  C   C77       1.0  0.30962  0.09978  0.67494  1.0000
  H   H118      1.0  0.29572  0.99466  0.69823  1.0000
  H   H119      1.0  0.34223  0.07008  0.72281  1.0000
  H   H120      1.0  0.04377  0.98895  0.62174  1.0000
  H   H121      1.0  0.27439  0.22597  0.49280  1.0000
  H   H122      1.0  0.47794  0.15320  0.65741  1.0000
  H   H123      1.0  0.34252  0.07715  0.64424  1.0000
  H   H124      1.0  0.34726  0.00616  0.67632  1.0000
  C   C78       1.0  0.32677  0.25248  0.96057  1.0000
  H   H125      1.0  0.07345  0.10760  0.84252  1.0000
  C   C79       1.0  0.05982  0.09729  0.82327  1.0000
  H   H126      1.0  0.28957  0.05720  0.71563  1.0000
  H   H127      1.0  0.07072  0.10557  0.72425  1.0000
  H   H128      1.0  0.44922  0.17681  0.64080  1.0000
  H   H129      1.0  0.15053  0.06494  0.82791  1.0000
  H   H130      1.0  0.35846  0.03603  0.71881  1.0000
  H   H131      1.0  0.30163  0.06707  0.64121  1.0000
  H   H132      1.0  0.30658  0.11630  0.65672  1.0000
  H   H133      1.0  0.05846  0.07431  0.82710  1.0000
  C   C80       1.0  0.29990  0.22685  0.48694  1.0000
  H   H134      1.0  0.37240  0.27100  0.97332  1.0000
  C   C81       1.0  0.02039  0.00231  0.84554  1.0000
  N   N5        1.0  0.10865  0.09882  0.78447  1.0000
  C   C82       1.0  0.11641  0.10811  0.75113  1.0000
  C   C83       1.0  0.12827  0.11698  0.80648  1.0000
  C   C84       1.0  0.07305  0.10413  0.79012  1.0000
  C   C85       1.0  0.11635  0.06795  0.78782  1.0000
  C   C86       1.0  0.09501  0.09566  0.72483  1.0000
  H   H135      1.0  0.17058  0.13206  0.77966  1.0000
  H   H136      1.0  0.29696  0.01471  0.50608  1.0000
  C   C87       1.0  0.12611  0.05746  0.82106  1.0000
  H   H137      1.0  0.11485  0.13138  0.74894  1.0000
  H   H138      1.0  0.14179  0.10252  0.74466  1.0000
  H   H139      1.0  0.12520  0.11059  0.83150  1.0000
  H   H140      1.0  0.11951  0.13908  0.80563  1.0000
  H   H141      1.0  0.06711  0.12648  0.78499  1.0000
  H   H142      1.0  0.05789  0.09135  0.77382  1.0000
  H   H143      1.0  0.09543  0.05492  0.78004  1.0000
  H   H144      1.0  0.13659  0.06170  0.77189  1.0000
  H   H145      1.0  0.10656  0.09972  0.70151  1.0000
  H   H146      1.0  0.27415  0.04162  0.68129  1.0000
  C   C88       1.0  0.35633  0.25334  0.97671  1.0000
  H   H147      1.0  0.17809  0.12596  0.82067  1.0000
  H   H148      1.0  0.32772  0.10772  0.69203  1.0000
  H   H149      1.0  0.26832  0.03263  0.52891  1.0000
  H   H150      1.0  0.18253  0.02024  0.52170  1.0000
  C   C89       1.0  0.31457  0.01168  0.63656  1.0000
  H   H151      1.0  0.44905  0.01386  0.92023  1.0000
  H   H152      1.0  0.49084  0.20934  0.62303  1.0000
  C   C90       1.0  0.19954  0.00650  0.53482  1.0000
  H   H153      1.0  0.03256  0.02904  0.88484  1.0000
  C   C91       1.0  0.29530  0.04100  0.69755  1.0000
  C   C92       1.0  0.21954  0.98818  0.51191  1.0000
  Fe  Fe12      1.0  0.07467  0.99573  0.77582  1.0000
  H   H154      1.0  0.28376  0.22781  0.95249  1.0000
  S   S26       1.0  0.12895  0.99359  0.76950  1.0000
  H   H155      1.0  0.30215  0.00018  0.55964  1.0000
  H   H156      1.0  0.31817  0.02187  0.61330  1.0000
  H   H157      1.0  0.27126  0.01057  0.72789  1.0000
  C   C93       1.0  0.01515  0.01421  0.87559  1.0000
  H   H158      1.0  0.49375  0.20437  0.66421  1.0000
  H   H159      1.0  0.47603  0.15847  0.61510  1.0000
  C   C94       1.0  0.23425  0.02882  0.47993  1.0000
  S   S27       1.0  0.35118  0.04427  0.97744  1.0000
  C   C95       1.0  0.30663  0.22887  0.96487  1.0000
  H   H160      1.0  0.28879  0.01399  0.64310  1.0000
  N   N6        1.0  0.24744  0.00282  0.49579  1.0000
  H   H161      1.0  0.40591  0.98829  0.88358  1.0000
  H   H162      1.0  0.43273  0.01786  0.95920  1.0000
  H   H163      1.0  0.26015  0.99298  0.56457  1.0000
  H   H164      1.0  0.31432  0.01077  0.73252  1.0000
  C   C96       1.0  0.00582  0.98681  0.58639  1.0000
  H   H165      1.0  0.02079  0.99584  0.56799  1.0000
  H   H166      1.0  0.31862  0.98878  0.63392  1.0000
  Fe  Fe13      1.0  0.08349  0.46176  0.19257  1.0000
  S   S28       1.0  0.05929  0.44854  0.14596  1.0000
  Fe  Fe14      1.0  0.14122  0.44349  0.23586  1.0000
  S   S29       1.0  0.18120  0.41100  0.24384  1.0000
  S   S30       1.0  0.08780  0.43383  0.23544  1.0000
  S   S31       1.0  0.13777  0.46723  0.19003  1.0000
  Fe  Fe15      1.0  0.36153  0.38636  0.43409  1.0000
  S   S32       1.0  0.35497  0.39979  0.38398  1.0000
  H   H167      1.0  0.07856  0.48460  0.09628  1.0000
  C   C97       1.0  0.43925  0.42746  0.40037  1.0000
  H   H168      1.0  0.27036  0.33181  0.05051  1.0000
  Fe  Fe16      1.0  0.38511  0.36218  0.37138  1.0000
  S   S33       1.0  0.42462  0.36707  0.33402  1.0000
  Fe  Fe17      1.0  0.31206  0.37070  0.38357  1.0000
  S   S34       1.0  0.26442  0.39232  0.36901  1.0000
  S   S35       1.0  0.39484  0.35083  0.42165  1.0000
  S   S36       1.0  0.31743  0.35860  0.43525  1.0000
  C   C98       1.0  0.11963  0.37322  0.28729  1.0000
  C   C99       1.0  0.46648  0.36262  0.34178  1.0000
  H   H169      1.0  0.49001  0.41171  0.36927  1.0000
  H   H170      1.0  0.39015  0.34978  0.00968  1.0000
  H   H171      1.0  0.46031  0.34612  0.38870  1.0000
  C   C100      1.0  0.35664  0.46569  0.44364  1.0000
  H   H172      1.0  0.05378  0.56084  0.09382  1.0000
  C   C101      1.0  0.36688  0.46170  0.01247  1.0000
  H   H173      1.0  0.35052  0.45291  0.42344  1.0000
  H   H174      1.0  0.37635  0.45172  0.03345  1.0000
  C   C102      1.0  0.24622  0.39946  0.33171  1.0000
  C   C103      1.0  0.24674  0.38004  0.30696  1.0000
  C   C104      1.0  0.22741  0.38433  0.27987  1.0000
  C   C105      1.0  0.20744  0.40809  0.27706  1.0000
  C   C106      1.0  0.20817  0.42825  0.30105  1.0000
  C   C107      1.0  0.22724  0.42381  0.32828  1.0000
  H   H175      1.0  0.26093  0.36110  0.30929  1.0000
  H   H176      1.0  0.22726  0.36867  0.26140  1.0000
  H   H177      1.0  0.19329  0.44680  0.29914  1.0000
  H   H178      1.0  0.22662  0.43897  0.34727  1.0000
  H   H179      1.0  0.24637  0.32772  0.99679  1.0000
  C   C108      1.0  0.08295  0.55371  0.15427  1.0000
  H   H180      1.0  0.02814  0.44809  0.37131  1.0000
  C   C109      1.0  0.35756  0.44519  0.98654  1.0000
  C   C110      1.0  0.02512  0.46057  0.12379  1.0000
  S   S37       1.0  0.07496  0.50091  0.22123  1.0000
  S   S38       1.0  0.13588  0.48150  0.26609  1.0000
  Fe  Fe18      1.0  0.08195  0.47325  0.26447  1.0000
  S   S39       1.0  0.05605  0.46434  0.31182  1.0000
  Fe  Fe19      1.0  0.12984  0.50494  0.22011  1.0000
  S   S40       1.0  0.16046  0.54395  0.20969  1.0000
  Fe  Fe20      1.0  0.30045  0.58466  0.07627  1.0000
  S   S41       1.0  0.30534  0.59959  0.02577  1.0000
  S   S42       1.0  0.24863  0.57101  0.08945  1.0000
  Fe  Fe21      1.0  0.37437  0.58916  0.08591  1.0000
  S   S43       1.0  0.38371  0.60330  0.03619  1.0000
  S   S44       1.0  0.41348  0.58688  0.12366  1.0000
  H   H181      1.0  0.13747  0.45184  0.33018  1.0000
  Fe  Fe22      1.0  0.34750  0.56970  0.02328  1.0000
  H   H182      1.0  0.44755  0.48369  0.99850  1.0000
  S   S45       1.0  0.33305  0.61923  0.09376  1.0000
  S   S46       1.0  0.34115  0.55342  0.07261  1.0000
  H   H183      1.0  0.25238  0.63485  0.00325  1.0000
  C   C111      1.0  0.35129  0.49486  0.44281  1.0000
  C   C112      1.0  0.36437  0.49118  0.01130  1.0000
  H   H184      1.0  0.34115  0.50434  0.42183  1.0000
  H   H185      1.0  0.37200  0.50370  0.03125  1.0000
  C   C113      1.0  0.46719  0.58776  0.08399  1.0000
  C   C114      1.0  0.45553  0.58897  0.11501  1.0000
  H   H186      1.0  0.10396  0.36821  0.40416  1.0000
  H   H187      1.0  0.45050  0.58436  0.06472  1.0000
  C   C115      1.0  0.35286  0.50440  0.98400  1.0000
  C   C116      1.0  0.18801  0.54891  0.17764  1.0000
  C   C117      1.0  0.20940  0.57193  0.17815  1.0000
  C   C118      1.0  0.23019  0.57766  0.15237  1.0000
  C   C119      1.0  0.22934  0.56075  0.12536  1.0000
  C   C120      1.0  0.20846  0.53736  0.12518  1.0000
  C   C121      1.0  0.18843  0.53114  0.15135  1.0000
  H   H188      1.0  0.20943  0.58579  0.19837  1.0000
  H   H189      1.0  0.24565  0.59599  0.15280  1.0000
  H   H190      1.0  0.20735  0.52429  0.10434  1.0000
  H   H191      1.0  0.17267  0.51307  0.15075  1.0000
  C   C122      1.0  0.02387  0.47924  0.33459  1.0000
  S   S47       1.0  0.34172  0.33353  0.36680  1.0000
  H   H192      1.0  0.43203  0.46933  0.37866  1.0000
  H   H193      1.0  0.30934  0.38042  0.06013  1.0000
  H   H194      1.0  0.38715  0.32445  0.04048  1.0000
  N   N7        1.0  0.09028  0.52853  0.10052  1.0000
  C   C123      1.0  0.09168  0.52664  0.13613  1.0000
  C   C124      1.0  0.09710  0.49965  0.08763  1.0000
  C   C125      1.0  0.05639  0.53769  0.09163  1.0000
  C   C126      1.0  0.11510  0.54983  0.08995  1.0000
  C   C127      1.0  0.13060  0.48726  0.09549  1.0000
  C   C128      1.0  0.04404  0.52954  0.05849  1.0000
  C   C129      1.0  0.12087  0.55293  0.05413  1.0000
  H   H195      1.0  0.11631  0.52085  0.14433  1.0000
  H   H196      1.0  0.09473  0.49872  0.06161  1.0000
  C   C130      1.0  0.34953  0.63727  0.38651  1.0000
  H   H197      1.0  0.10815  0.57115  0.09809  1.0000
  H   H198      1.0  0.13896  0.54643  0.10162  1.0000
  H   H199      1.0  0.10061  0.57081  0.14978  1.0000
  H   H200      1.0  0.13258  0.48179  0.12085  1.0000
  H   H201      1.0  0.13363  0.46729  0.08233  1.0000
  H   H202      1.0  0.15074  0.50131  0.08834  1.0000
  H   H203      1.0  0.48404  0.38930  0.42148  1.0000
  H   H204      1.0  0.41467  0.62490  0.45534  1.0000
  H   H205      1.0  0.06069  0.53599  0.03934  1.0000
  H   H206      1.0  0.12035  0.53292  0.04105  1.0000
  H   H207      1.0  0.48647  0.64828  0.08703  1.0000
  N   N8        1.0  0.25463  0.48058  0.20714  1.0000
  C   C131      1.0  0.24638  0.46637  0.17627  1.0000
  C   C132      1.0  0.26995  0.50845  0.19898  1.0000
  C   C133      1.0  0.22324  0.48552  0.22456  1.0000
  C   C134      1.0  0.27666  0.46155  0.22589  1.0000
  C   C135      1.0  0.22784  0.43831  0.17876  1.0000
  C   C136      1.0  0.30056  0.50707  0.17804  1.0000
  H   H208      1.0  0.23174  0.48057  0.16096  1.0000
  H   H209      1.0  0.26873  0.46154  0.16258  1.0000
  H   H210      1.0  0.27670  0.52064  0.22017  1.0000
  H   H211      1.0  0.25217  0.52206  0.18647  1.0000
  H   H212      1.0  0.20582  0.49685  0.20912  1.0000
  H   H213      1.0  0.21131  0.46534  0.23074  1.0000
  H   H214      1.0  0.26229  0.44477  0.23786  1.0000
  H   H215      1.0  0.29357  0.45040  0.20966  1.0000
  H   H216      1.0  0.22701  0.42829  0.15510  1.0000
  H   H217      1.0  0.23958  0.42325  0.19507  1.0000
  H   H218      1.0  0.46895  0.59370  0.16390  1.0000
  H   H219      1.0  0.31293  0.52780  0.17832  1.0000
  H   H220      1.0  0.31812  0.49120  0.18645  1.0000
  H   H221      1.0  0.29421  0.50286  0.15301  1.0000
  H   H222      1.0  0.01302  0.51312  0.30278  1.0000
  S   S48       1.0  0.36256  0.40831  0.98812  1.0000
  H   H223      1.0  0.33682  0.35058  0.00034  1.0000
  H   H224      1.0  0.43737  0.39289  0.45420  1.0000
  H   H225      1.0  0.03470  0.43230  0.08518  1.0000
  H   H226      1.0  0.07129  0.37673  0.33937  1.0000
  H   H227      1.0  0.10117  0.35054  0.34591  1.0000
  H   H228      1.0  0.43220  0.63735  0.08756  1.0000
  S   S49       1.0  0.35198  0.54140  0.98031  1.0000
  H   H229      1.0  0.14377  0.36309  0.28844  1.0000
  H   H230      1.0  0.40047  0.44465  0.37132  1.0000
  H   H231      1.0  0.46144  0.64890  0.00175  1.0000
  C   C137      1.0  0.33000  0.33806  0.06762  1.0000
  H   H232      1.0  0.43774  0.44087  0.35059  1.0000
  H   H233      1.0  0.23662  0.52277  0.25324  1.0000
  C   C138      1.0  0.48929  0.37038  0.31861  1.0000
  H   H234      1.0  0.06918  0.38966  0.39449  1.0000
  H   H235      1.0  0.14576  0.56119  0.05017  1.0000
  H   H236      1.0  0.09420  0.40986  0.30394  1.0000
  H   H237      1.0  0.03924  0.50664  0.05698  1.0000
  C   C139      1.0  0.08339  0.37081  0.38778  1.0000
  H   H238      1.0  0.49496  0.45495  0.47418  1.0000
  H   H239      1.0  0.34195  0.37885  0.08755  1.0000
  C   C140      1.0  0.42710  0.44692  0.37372  1.0000
  H   H240      1.0  0.40830  0.58875  0.44688  1.0000
  N   N9        1.0  0.32041  0.32295  0.03774  1.0000
  H   H241      1.0  0.32354  0.47796  0.24234  1.0000
  H   H242      1.0  0.11664  0.38033  0.26248  1.0000
  H   H243      1.0  0.07526  0.50971  0.14491  1.0000
  H   H244      1.0  0.08421  0.54946  0.18002  1.0000
  C   C141      1.0  0.29836  0.47545  0.25126  1.0000
  H   H245      1.0  0.03818  0.52862  0.10827  1.0000
  C   C142      1.0  0.01904  0.44874  0.09387  1.0000
  H   H246      1.0  0.05796  0.56093  0.14928  1.0000
  C   C143      1.0  0.22532  0.50183  0.25585  1.0000
  H   H247      1.0  0.35335  0.33066  0.07721  1.0000
  H   H248      1.0  0.20038  0.50584  0.26452  1.0000
  C   C144      1.0  0.09391  0.37218  0.35283  1.0000
  H   H249      1.0  0.30022  0.46106  0.27187  1.0000
  H   H250      1.0  0.28965  0.49567  0.26061  1.0000
  H   H251      1.0  0.40121  0.64570  0.37450  1.0000
  H   H252      1.0  0.15727  0.35657  0.39434  1.0000
  H   H253      1.0  0.30356  0.60395  0.44299  1.0000
  H   H254      1.0  0.48096  0.37819  0.29604  1.0000
  H   H255      1.0  0.02040  0.54002  0.05421  1.0000
  H   H256      1.0  0.42162  0.42976  0.42014  1.0000
  H   H257      1.0  0.28687  0.35520  0.02192  1.0000
  C   C145      1.0  0.47756  0.35249  0.37082  1.0000
  H   H258      1.0  0.39004  0.64657  0.12388  1.0000
  H   H259      1.0  0.11388  0.41775  0.38727  1.0000
  H   H260      1.0  0.19221  0.64317  0.08979  1.0000
  H   H261      1.0  0.13692  0.41348  0.30128  1.0000
  C   C146      1.0  0.15330  0.38092  0.35039  1.0000
  H   H262      1.0  0.10021  0.35766  0.29186  1.0000
  H   H263      1.0  0.48758  0.64217  0.03436  1.0000
  H   H264      1.0  0.23744  0.48927  0.27444  1.0000
  C   C147      1.0  0.45900  0.47062  0.97983  1.0000
  C   C148      1.0  0.47493  0.46158  0.42642  1.0000
  H   H265      1.0  0.35068  0.37654  0.04641  1.0000
  N   N10       1.0  0.12014  0.39303  0.34429  1.0000
  H   H266      1.0  0.15542  0.35967  0.33978  1.0000
  N   N11       1.0  0.47350  0.43280  0.41147  1.0000
  H   H267      1.0  0.16450  0.43702  0.35966  1.0000
  C   C149      1.0  0.48237  0.40967  0.43414  1.0000
  C   C150      1.0  0.40335  0.61032  0.43812  1.0000
  H   H268      1.0  0.10325  0.56777  0.04353  1.0000
  H   H269      1.0  0.47864  0.47803  0.40808  1.0000
  H   H270      1.0  0.09007  0.42878  0.35535  1.0000
  C   C151      1.0  0.29537  0.62425  0.43302  1.0000
  C   C152      1.0  0.11450  0.42039  0.36130  1.0000
  H   H271      1.0  0.13410  0.46191  0.37036  1.0000
  C   C153      1.0  0.47769  0.59287  0.13981  1.0000
  H   H272      1.0  0.35601  0.59581  0.42482  1.0000
  H   H273      1.0  0.20234  0.44156  0.18601  1.0000
  H   H274      1.0  0.25807  0.63198  0.11000  1.0000
  H   H275      1.0  0.43645  0.40543  0.39190  1.0000
  H   H276      1.0  0.31226  0.33345  0.08684  1.0000
  H   H277      1.0  0.41525  0.61239  0.41485  1.0000
  N   N12       1.0  0.35396  0.64126  0.42152  1.0000
  H   H278      1.0  0.15525  0.39403  0.40107  1.0000
  H   H279      1.0  0.17238  0.39292  0.33779  1.0000
  C   C154      1.0  0.11745  0.39897  0.30932  1.0000
  H   H280      1.0  0.27361  0.63058  0.44674  1.0000
  C   C155      1.0  0.16415  0.37753  0.38502  1.0000
  H   H281      1.0  0.38755  0.61032  0.36660  1.0000
  H   H282      1.0  0.28741  0.62127  0.40826  1.0000
  H   H283      1.0  0.33425  0.61848  0.38183  1.0000
  C   C156      1.0  0.33298  0.37024  0.06481  1.0000
  C   C157      1.0  0.13938  0.44382  0.35467  1.0000
  H   H284      1.0  0.45136  0.46703  0.43782  1.0000
  Fe  Fe23      1.0  0.34097  0.63210  0.04288  1.0000
  H   H285      1.0  0.19101  0.37938  0.38609  1.0000
  Fe  Fe24      1.0  0.35017  0.32347  0.41863  1.0000
  C   C158      1.0  0.01514  0.46646  0.36345  1.0000
  C   C159      1.0  0.36635  0.61462  0.43671  1.0000
  H   H286      1.0  0.24839  0.63222  0.05727  1.0000
  S   S50       1.0  0.37531  0.41651  0.47353  1.0000
  C   C160      1.0  0.28663  0.33282  0.02948  1.0000
  H   H287      1.0  0.35808  0.61312  0.46171  1.0000
  H   H288      1.0  0.49019  0.44873  0.36609  1.0000
  H   H289      1.0  0.06712  0.35245  0.39118  1.0000
  C   C161      1.0  0.00672  0.50300  0.32484  1.0000
  C   C162      1.0  0.36944  0.45317  0.47077  1.0000
  C   C163      1.0  0.35836  0.51168  0.46916  1.0000
  C   C164      1.0  0.00461  0.48185  0.13458  1.0000
  C   C165      1.0  0.34245  0.32948  0.01019  1.0000
  S   S51       1.0  0.35014  0.54806  0.46762  1.0000
  H   H290      1.0  0.37584  0.63958  0.34203  1.0000
  C   C166      1.0  0.38047  0.63279  0.36673  1.0000
  C   C167      1.0  0.46247  0.64818  0.02795  1.0000
  C   C168      1.0  0.37949  0.32911  0.01613  1.0000
  H   H291      1.0  0.45013  0.42527  0.47229  1.0000
  H   H292      1.0  0.44552  0.63155  0.03563  1.0000
  C   C169      1.0  0.32122  0.64762  0.43585  1.0000
  H   H293      1.0  0.00884  0.49123  0.15745  1.0000
  H   H294      1.0  0.30130  0.42499  0.47417  1.0000
  H   H295      1.0  0.19923  0.64641  0.03308  1.0000
  H   H296      1.0  0.45954  0.44892  0.98886  1.0000
  C   C170      1.0  0.45870  0.40526  0.46194  1.0000
  C   C171      1.0  0.49520  0.43120  0.38274  1.0000
  Fe  Fe25      1.0  0.08230  0.46679  0.69036  1.0000
  S   S52       1.0  0.05808  0.45271  0.64411  1.0000
  Fe  Fe26      1.0  0.13786  0.44881  0.73637  1.0000
  S   S53       1.0  0.17266  0.41298  0.74889  1.0000
  S   S54       1.0  0.08394  0.44141  0.73529  1.0000
  S   S55       1.0  0.13686  0.46983  0.68872  1.0000
  Fe  Fe27      1.0  0.35138  0.38261  0.94445  1.0000
  S   S56       1.0  0.35248  0.40068  0.89593  1.0000
  H   H297      1.0  0.43268  0.40976  0.97462  1.0000
  C   C172      1.0  0.48029  0.58750  0.62960  1.0000
  S   S57       1.0  0.33073  0.33890  0.87010  1.0000
  Fe  Fe28      1.0  0.37764  0.36105  0.88180  1.0000
  S   S58       1.0  0.41670  0.36768  0.84445  1.0000
  Fe  Fe29      1.0  0.30566  0.37782  0.88764  1.0000
  S   S59       1.0  0.26637  0.40707  0.86847  1.0000
  S   S60       1.0  0.38036  0.34417  0.93149  1.0000
  S   S61       1.0  0.30309  0.36196  0.93771  1.0000
  C   C173      1.0  0.48083  0.37172  0.82710  1.0000
  C   C174      1.0  0.45898  0.36480  0.85145  1.0000
  C   C175      1.0  0.47122  0.35621  0.88067  1.0000
  H   H298      1.0  0.47163  0.37832  0.80438  1.0000
  H   H299      1.0  0.45474  0.35053  0.89950  1.0000
  H   H300      1.0  0.43746  0.45292  0.87167  1.0000
  C   C176      1.0  0.09005  0.55904  0.65033  1.0000
  C   C177      1.0  0.00666  0.48891  0.63030  1.0000
  H   H301      1.0  0.33745  0.44601  0.93969  1.0000
  H   H302      1.0  0.38716  0.46061  0.51789  1.0000
  C   C178      1.0  0.24320  0.40861  0.83320  1.0000
  C   C179      1.0  0.23779  0.38511  0.81417  1.0000
  C   C180      1.0  0.21681  0.38699  0.78794  1.0000
  C   C181      1.0  0.20109  0.41232  0.78042  1.0000
  C   C182      1.0  0.20737  0.43599  0.79891  1.0000
  C   C183      1.0  0.22816  0.43407  0.82519  1.0000
  H   H303      1.0  0.24894  0.36530  0.82019  1.0000
  H   H304      1.0  0.21212  0.36855  0.77378  1.0000
  H   H305      1.0  0.19568  0.45567  0.79333  1.0000
  H   H306      1.0  0.23223  0.45241  0.83970  1.0000
  C   C184      1.0  0.30417  0.47562  0.55077  1.0000
  C   C185      1.0  0.25659  0.50009  0.52659  1.0000
  C   C186      1.0  0.01183  0.47382  0.86171  1.0000
  H   H307      1.0  0.08178  0.38925  0.86721  1.0000
  C   C187      1.0  0.02501  0.46563  0.62117  1.0000
  S   S62       1.0  0.07489  0.50756  0.71612  1.0000
  S   S63       1.0  0.13401  0.48897  0.76346  1.0000
  Fe  Fe30      1.0  0.07955  0.48242  0.76160  1.0000
  S   S64       1.0  0.05079  0.47644  0.80842  1.0000
  Fe  Fe31      1.0  0.12996  0.50974  0.71547  1.0000
  S   S65       1.0  0.15945  0.54845  0.70031  1.0000
  Fe  Fe32      1.0  0.30200  0.58731  0.56733  1.0000
  S   S66       1.0  0.30503  0.60280  0.51673  1.0000
  S   S67       1.0  0.25507  0.56386  0.58159  1.0000
  Fe  Fe33      1.0  0.37618  0.59377  0.57547  1.0000
  S   S68       1.0  0.38364  0.60797  0.52553  1.0000
  S   S69       1.0  0.41613  0.58764  0.61196  1.0000
  Fe  Fe34      1.0  0.34021  0.63586  0.53351  1.0000
  Fe  Fe35      1.0  0.34804  0.57423  0.51248  1.0000
  H   H308      1.0  0.11908  0.40459  0.92693  1.0000
  S   S70       1.0  0.33406  0.62283  0.58481  1.0000
  S   S71       1.0  0.34400  0.55760  0.56174  1.0000
  Fe  Fe36      1.0  0.33179  0.32434  0.92121  1.0000
  C   C188      1.0  0.01749  0.45230  0.59241  1.0000
  H   H309      1.0  0.47149  0.40750  0.95486  1.0000
  H   H310      1.0  0.33426  0.49787  0.93708  1.0000
  H   H311      1.0  0.37750  0.51200  0.51639  1.0000
  C   C189      1.0  0.47020  0.60101  0.57549  1.0000
  C   C190      1.0  0.45825  0.59233  0.60487  1.0000
  C   C191      1.0  0.34338  0.48784  0.95820  1.0000
  H   H312      1.0  0.45356  0.60484  0.55628  1.0000
  H   H313      1.0  0.47130  0.58072  0.65238  1.0000
  C   C192      1.0  0.18816  0.55139  0.66870  1.0000
  C   C193      1.0  0.20681  0.57604  0.66560  1.0000
  C   C194      1.0  0.22857  0.57979  0.64002  1.0000
  C   C195      1.0  0.23139  0.55916  0.61667  1.0000
  C   C196      1.0  0.21275  0.53454  0.61982  1.0000
  C   C197      1.0  0.19185  0.53039  0.64589  1.0000
  H   H314      1.0  0.20431  0.59246  0.68304  1.0000
  H   H315      1.0  0.24241  0.59899  0.63792  1.0000
  H   H316      1.0  0.21445  0.51857  0.60189  1.0000
  H   H317      1.0  0.17823  0.51114  0.64810  1.0000
  H   H318      1.0  0.41760  0.43164  0.76572  1.0000
  C   C198      1.0  0.06265  0.54202  0.58814  1.0000
  N   N13       1.0  0.44763  0.45444  0.92204  1.0000
  C   C199      1.0  0.28248  0.46100  0.49976  1.0000
  C   C200      1.0  0.32286  0.35047  0.78171  1.0000
  N   N14       1.0  0.12548  0.41404  0.86325  1.0000
  C   C201      1.0  0.13103  0.40711  0.82892  1.0000
  C   C202      1.0  0.15815  0.41755  0.87875  1.0000
  C   C203      1.0  0.10666  0.44089  0.86685  1.0000
  C   C204      1.0  0.10053  0.40409  0.80826  1.0000
  C   C205      1.0  0.12169  0.46691  0.85090  1.0000
  H   H319      1.0  0.14651  0.42322  0.81750  1.0000
  H   H320      1.0  0.14468  0.38716  0.82637  1.0000
  H   H321      1.0  0.15622  0.42892  0.90161  1.0000
  H   H322      1.0  0.17415  0.43116  0.86411  1.0000
  H   H323      1.0  0.08154  0.43850  0.85773  1.0000
  H   H324      1.0  0.10365  0.44630  0.89225  1.0000
  H   H325      1.0  0.08511  0.38616  0.81548  1.0000
  H   H326      1.0  0.08610  0.42362  0.80752  1.0000
  H   H327      1.0  0.10833  0.39975  0.78361  1.0000
  H   H328      1.0  0.14628  0.47174  0.85986  1.0000
  H   H329      1.0  0.10622  0.48543  0.85600  1.0000
  H   H330      1.0  0.12229  0.46466  0.82491  1.0000
  N   N15       1.0  0.34016  0.40270  0.77709  1.0000
  C   C206      1.0  0.34903  0.37220  0.77247  1.0000
  C   C207      1.0  0.36667  0.41994  0.76196  1.0000
  C   C208      1.0  0.30861  0.40780  0.76003  1.0000
  C   C209      1.0  0.33671  0.40813  0.81204  1.0000
  H   H331      1.0  0.23390  0.49681  0.51284  1.0000
  C   C210      1.0  0.40093  0.41558  0.77571  1.0000
  C   C211      1.0  0.29486  0.43777  0.76108  1.0000
  C   C212      1.0  0.33994  0.43890  0.82340  1.0000
  H   H332      1.0  0.35564  0.36801  0.74736  1.0000
  H   H333      1.0  0.35534  0.39608  0.82532  1.0000
  H   H334      1.0  0.36169  0.44270  0.76306  1.0000
  H   H335      1.0  0.36810  0.41536  0.73617  1.0000
  H   H336      1.0  0.31091  0.40175  0.73470  1.0000
  H   H337      1.0  0.28893  0.39451  0.76996  1.0000
  H   H338      1.0  0.31309  0.39999  0.82068  1.0000
  H   H339      1.0  0.30361  0.34914  0.76349  1.0000
  C   C213      1.0  0.30152  0.48905  0.58378  1.0000
  H   H340      1.0  0.31566  0.45486  0.55473  1.0000
  H   H341      1.0  0.37090  0.36665  0.78655  1.0000
  H   H342      1.0  0.32301  0.48730  0.53739  1.0000
  H   H343      1.0  0.33414  0.32937  0.78325  1.0000
  H   H344      1.0  0.32499  0.49920  0.58972  1.0000
  H   H345      1.0  0.27249  0.43845  0.74648  1.0000
  H   H346      1.0  0.31161  0.45364  0.75110  1.0000
  H   H347      1.0  0.28717  0.44356  0.78532  1.0000
  H   H348      1.0  0.32127  0.44297  0.84179  1.0000
  H   H349      1.0  0.33668  0.45518  0.80517  1.0000
  H   H350      1.0  0.36361  0.44215  0.83529  1.0000
  H   H351      1.0  0.14888  0.56743  0.54689  1.0000
  H   H352      1.0  0.13746  0.53168  0.54231  1.0000
  C   C214      1.0  0.37158  0.49922  0.49609  1.0000
  H   H353      1.0  0.03153  0.43432  0.58503  1.0000
  C   C215      1.0  0.43151  0.42620  0.92606  1.0000
  H   H354      1.0  0.13334  0.48267  0.62135  1.0000
  H   H355      1.0  0.07867  0.51517  0.64281  1.0000
  H   H356      1.0  0.20119  0.39585  0.89513  1.0000
  C   C216      1.0  0.01844  0.48838  0.83335  1.0000
  N   N16       1.0  0.09584  0.53158  0.59801  1.0000
  H   H357      1.0  0.14543  0.54663  0.59914  1.0000
  H   H358      1.0  0.02625  0.45574  0.86781  1.0000
  H   H359      1.0  0.04156  0.50807  0.55947  1.0000
  H   H360      1.0  0.16504  0.37638  0.90200  1.0000
  H   H361      1.0  0.06677  0.56868  0.64325  1.0000
  C   C217      1.0  0.37713  0.47009  0.49685  1.0000
  H   H362      1.0  0.09803  0.37236  0.92483  1.0000
  H   H363      1.0  0.07648  0.40487  0.91831  1.0000
  C   C218      1.0  0.34536  0.45840  0.95957  1.0000
  H   H364      1.0  0.18230  0.37873  0.86260  1.0000
  H   H365      1.0  0.31175  0.35495  0.80497  1.0000
  H   H366      1.0  0.01209  0.49943  0.65229  1.0000
  C   C219      1.0  0.10127  0.50213  0.58614  1.0000
  C   C220      1.0  0.13331  0.48804  0.59590  1.0000
  C   C221      1.0  0.10619  0.39070  0.87820  1.0000
  H   H367      1.0  0.11710  0.36979  0.87333  1.0000
  H   H368      1.0  0.23393  0.44246  0.52952  1.0000
  C   C222      1.0  0.12213  0.55140  0.58710  1.0000
  H   H369      1.0  0.04400  0.53659  0.60627  1.0000
  H   H370      1.0  0.10042  0.50115  0.55998  1.0000
  H   H371      1.0  0.20945  0.47730  0.56393  1.0000
  C   C223      1.0  0.27651  0.52271  0.50913  1.0000
  H   H372      1.0  0.06468  0.53307  0.53652  1.0000
  H   H373      1.0  0.10771  0.55958  0.53796  1.0000
  H   H374      1.0  0.08884  0.55555  0.67621  1.0000
  C   C224      1.0  0.04832  0.53053  0.55701  1.0000
  H   H375      1.0  0.26263  0.54266  0.50900  1.0000
  C   C225      1.0  0.43472  0.46749  0.89205  1.0000
  N   N17       1.0  0.27342  0.47243  0.53189  1.0000
  H   H376      1.0  0.31617  0.42692  0.51353  1.0000
  H   H377      1.0  0.41101  0.39482  0.76915  1.0000
  C   C226      1.0  0.25059  0.45174  0.54742  1.0000
  H   H378      1.0  0.24846  0.50975  0.54901  1.0000
  H   H379      1.0  0.40548  0.42893  0.93208  1.0000
  H   H380      1.0  0.11641  0.57336  0.59398  1.0000
  C   C227      1.0  0.22807  0.46293  0.57366  1.0000
  H   H381      1.0  0.11026  0.57407  0.64657  1.0000
  H   H382      1.0  0.43075  0.41428  0.90341  1.0000
  H   H383      1.0  0.29617  0.47300  0.60207  1.0000
  H   H384      1.0  0.12053  0.52372  0.64255  1.0000
  C   C228      1.0  0.17731  0.39032  0.88475  1.0000
  H   H385      1.0  0.28370  0.50623  0.58533  1.0000
  H   H386      1.0  0.26435  0.43380  0.55762  1.0000
  H   H387      1.0  0.44042  0.38433  0.94434  1.0000
  H   H388      1.0  0.40148  0.41780  0.80175  1.0000
  H   H389      1.0  0.27518  0.41514  0.50575  1.0000
  H   H390      1.0  0.28113  0.51711  0.48411  1.0000
  C   C229      1.0  0.44501  0.40635  0.95163  1.0000
  C   C230      1.0  0.09960  0.39357  0.91402  1.0000
  H   H391      1.0  0.06225  0.56533  0.58661  1.0000
  C   C231      1.0  0.12899  0.55218  0.55141  1.0000
  H   H392      1.0  0.21479  0.44502  0.58443  1.0000
  H   H393      1.0  0.38241  0.45832  0.89791  1.0000
  H   H394      1.0  0.24126  0.47343  0.59298  1.0000
  H   H395      1.0  0.15482  0.50090  0.58991  1.0000
  H   H396      1.0  0.08132  0.48820  0.59431  1.0000
  H   H397      1.0  0.02554  0.54194  0.55157  1.0000
  C   C232      1.0  0.09658  0.53075  0.63366  1.0000
  H   H398      1.0  0.13566  0.46782  0.58309  1.0000
  H   H399      1.0  0.29973  0.52717  0.52111  1.0000
  C   C233      1.0  0.29434  0.43028  0.49884  1.0000
  H   H400      1.0  0.30213  0.47375  0.48881  1.0000
  H   H401      1.0  0.47072  0.39297  0.48086  1.0000
  H   H402      1.0  0.00385  0.52312  0.80431  1.0000
  C   C234      1.0  0.48392  0.45235  0.91838  1.0000
  H   H403      1.0  0.48563  0.41201  0.89303  1.0000
  H   H404      1.0  0.49581  0.44462  0.94013  1.0000
  H   H405      1.0  0.44884  0.48668  0.88575  1.0000
  C   C235      1.0  0.39867  0.47618  0.89256  1.0000
  H   H406      1.0  0.39405  0.49351  0.90945  1.0000
  C   C236      1.0  0.99925  0.51163  0.82591  1.0000
  H   H407      1.0  0.39183  0.48413  0.86883  1.0000
  H   H408      1.0  0.41332  0.47149  0.95584  1.0000
  H   H409      1.0  0.26157  0.46235  0.48319  1.0000
  C   C237      1.0  0.43927  0.47376  0.94915  1.0000
  H   H410      1.0  0.44227  0.49613  0.94197  1.0000
  C   C238      1.0  0.49584  0.43340  0.89126  1.0000
  H   H411      1.0  0.49034  0.44235  0.86770  1.0000
  H   H412      1.0  0.49459  0.47360  0.91460  1.0000
  H   H413      1.0  0.48411  0.47859  0.97679  1.0000
  H   H414      1.0  0.44964  0.95493  0.30505  1.0000
  H   H415      1.0  0.34322  0.70197  0.42138  1.0000
  Fe  Fe37      1.0  0.12483  0.95431  0.23712  1.0000
  S   S72       1.0  0.15328  0.91496  0.25135  1.0000
  S   S73       1.0  0.06993  0.95485  0.23594  1.0000
  H   H416      1.0  0.23572  0.66353  0.11298  1.0000
  S   S74       1.0  0.34585  0.68015  0.03642  1.0000
  Fe  Fe38      1.0  0.34759  0.88817  0.43502  1.0000
  S   S75       1.0  0.35234  0.90210  0.38475  1.0000
  H   H417      1.0  0.27135  0.73551  0.08270  1.0000
  Fe  Fe39      1.0  0.32451  0.82884  0.41700  1.0000
  S   S76       1.0  0.32644  0.83946  0.36482  1.0000
  S   S77       1.0  0.30267  0.78745  0.43617  1.0000
  Fe  Fe40      1.0  0.37468  0.85973  0.37644  1.0000
  S   S78       1.0  0.41710  0.85368  0.34223  1.0000
  Fe  Fe41      1.0  0.30382  0.88122  0.37706  1.0000
  S   S79       1.0  0.26569  0.91088  0.35561  1.0000
  S   S80       1.0  0.37370  0.84698  0.42776  1.0000
  S   S81       1.0  0.29832  0.86924  0.42829  1.0000
  H   H418      1.0  0.42203  0.66810  0.13780  1.0000
  C   C239      1.0  0.45871  0.85809  0.35126  1.0000
  C   C240      1.0  0.46935  0.86485  0.38164  1.0000
  H   H419      1.0  0.47372  0.84918  0.30355  1.0000
  H   H420      1.0  0.45186  0.86769  0.40044  1.0000
  C   C241      1.0  0.35171  0.96687  0.44715  1.0000
  C   C242      1.0  0.16660  0.91263  0.37357  1.0000
  C   C243      1.0  0.37595  0.66569  0.42903  1.0000
  H   H421      1.0  0.34841  0.95505  0.42561  1.0000
  H   H422      1.0  0.37583  0.95525  0.03135  1.0000
  H   H423      1.0  0.07581  0.94624  0.38296  1.0000
  C   C244      1.0  0.48473  0.67424  0.12750  1.0000
  H   H424      1.0  0.34549  0.77777  0.99743  1.0000
  H   H425      1.0  0.10422  0.95439  0.31663  1.0000
  H   H426      1.0  0.24984  0.97744  0.11710  1.0000
  H   H427      1.0  0.48792  0.76682  0.36018  1.0000
  H   H428      1.0  0.35597  0.73988  0.03655  1.0000
  C   C245      1.0  0.34628  0.73455  0.01361  1.0000
  C   C246      1.0  0.10876  0.89829  0.33078  1.0000
  H   H429      1.0  0.23748  0.69848  0.00389  1.0000
  C   C247      1.0  0.23684  0.91115  0.32424  1.0000
  C   C248      1.0  0.22423  0.93711  0.31430  1.0000
  C   C249      1.0  0.19960  0.93865  0.29130  1.0000
  C   C250      1.0  0.18658  0.91415  0.27828  1.0000
  C   C251      1.0  0.19950  0.88815  0.28782  1.0000
  C   C252      1.0  0.22457  0.88662  0.31053  1.0000
  H   H430      1.0  0.23355  0.95625  0.32459  1.0000
  H   H431      1.0  0.19038  0.95884  0.28401  1.0000
  H   H432      1.0  0.18985  0.86902  0.27780  1.0000
  H   H433      1.0  0.23389  0.86647  0.31791  1.0000
  C   C253      1.0  0.45342  0.67730  0.04120  1.0000
  H   H434      1.0  0.08762  0.88104  0.28803  1.0000
  C   C254      1.0  0.23784  0.70393  0.06476  1.0000
  C   C255      1.0  0.49558  0.78636  0.34810  1.0000
  H   H435      1.0  0.33531  0.65469  0.37582  1.0000
  H   H436      1.0  0.21967  0.65334  0.98383  1.0000
  H   H437      1.0  0.27533  0.68461  0.01585  1.0000
  C   C256      1.0  0.01195  0.97850  0.12472  1.0000
  C   C257      1.0  0.26601  0.92610  0.02650  1.0000
  H   H438      1.0  0.27945  0.72566  0.04289  1.0000
  C   C258      1.0  0.36552  0.96507  0.01064  1.0000
  C   C259      1.0  0.35629  0.95275  0.47578  1.0000
  H   H439      1.0  0.12760  0.93187  0.39991  1.0000
  C   C260      1.0  0.31645  0.97605  0.09841  1.0000
  H   H440      1.0  0.12249  0.89577  0.39187  1.0000
  C   C261      1.0  0.34962  0.75460  0.46648  1.0000
  H   H441      1.0  0.38881  0.68317  0.11553  1.0000
  H   H442      1.0  0.36682  0.77103  0.46090  1.0000
  H   H443      1.0  0.48252  0.92341  0.26530  1.0000
  H   H444      1.0  0.10379  0.98308  0.36560  1.0000
  H   H445      1.0  0.27072  0.73678  0.45615  1.0000
  C   C262      1.0  0.48147  0.67084  0.09147  1.0000
  H   H446      1.0  0.38518  0.70996  0.42065  1.0000
  H   H447      1.0  0.10377  0.87834  0.34358  1.0000
  H   H448      1.0  0.46795  0.73464  0.05031  1.0000
  H   H449      1.0  0.26933  0.93261  0.00151  1.0000
  C   C263      1.0  0.23602  0.96518  0.09943  1.0000
  N   N18       1.0  0.44968  0.67914  0.07665  1.0000
  H   H450      1.0  0.22861  0.70312  0.08927  1.0000
  C   C264      1.0  0.27186  0.71736  0.06628  1.0000
  H   H451      1.0  0.18721  0.68228  0.03184  1.0000
  C   C265      1.0  0.05679  0.90459  0.38034  1.0000
  H   H452      1.0  0.17133  0.89531  0.35676  1.0000
  H   H453      1.0  0.28555  0.93407  0.07247  1.0000
  H   H454      1.0  0.28203  0.65548  0.05723  1.0000
  H   H455      1.0  0.03272  0.91214  0.38846  1.0000
  H   H456      1.0  0.05931  0.90125  0.31038  1.0000
  H   H457      1.0  0.17766  0.93221  0.36445  1.0000
  H   H458      1.0  0.29048  0.70256  0.07500  1.0000
  H   H459      1.0  0.13314  0.89544  0.31997  1.0000
  C   C266      1.0  0.31747  0.75704  0.45633  1.0000
  H   H460      1.0  0.44795  0.91682  0.30699  1.0000
  C   C267      1.0  0.33944  0.70625  0.00656  1.0000
  H   H461      1.0  0.30034  0.96390  0.11417  1.0000
  H   H462      1.0  0.47367  0.79441  0.33586  1.0000
  H   H463      1.0  0.43064  0.68405  0.02921  1.0000
  C   C268      1.0  0.40536  0.66494  0.11777  1.0000
  C   C269      1.0  0.07515  0.92930  0.36493  1.0000
  H   H464      1.0  0.05230  0.88728  0.36346  1.0000
  H   H465      1.0  0.45643  0.75216  0.08558  1.0000
  H   H466      1.0  0.22171  0.71926  0.05264  1.0000
  H   H467      1.0  0.06957  0.89633  0.40136  1.0000
  N   N19       1.0  0.23613  0.67578  0.04854  1.0000
  Fe  Fe42      1.0  0.07396  0.98352  0.19337  1.0000
  C   C270      1.0  0.34032  0.75618  0.99143  1.0000
  H   H468      1.0  0.24215  0.94262  0.10108  1.0000
  H   H469      1.0  0.05974  0.93769  0.34553  1.0000
  H   H470      1.0  0.27554  0.90435  0.02808  1.0000
  H   H471      1.0  0.47554  0.65531  0.13998  1.0000
  H   H472      1.0  0.48899  0.72765  0.08719  1.0000
  C   C271      1.0  0.28547  0.94490  0.04928  1.0000
  C   C272      1.0  0.08496  0.90014  0.30281  1.0000
  H   H473      1.0  0.49566  0.95123  0.34671  1.0000
  C   C273      1.0  0.45570  0.93622  0.31942  1.0000
  H   H474      1.0  0.21006  0.96712  0.10606  1.0000
  H   H475      1.0  0.31106  0.94422  0.04102  1.0000
  C   C274      1.0  0.48178  0.85448  0.32710  1.0000
  C   C275      1.0  0.35307  0.94829  0.98622  1.0000
  H   H476      1.0  0.23993  0.92519  0.03261  1.0000
  H   H477      1.0  0.17969  0.90731  0.39567  1.0000
  C   C276      1.0  0.13013  0.91592  0.38089  1.0000
  C   C277      1.0  0.12129  0.94828  0.33564  1.0000
  H   H478      1.0  0.32375  0.65238  0.46150  1.0000
  H   H479      1.0  0.24323  0.98241  0.45025  1.0000
  H   H480      1.0  0.09065  0.91814  0.28725  1.0000
  H   H481      1.0  0.49257  0.97077  0.27137  1.0000
  H   H482      1.0  0.14424  0.94349  0.32315  1.0000
  N   N20       1.0  0.10882  0.92292  0.35310  1.0000
  C   C278      1.0  0.20121  0.66669  0.04592  1.0000
  C   C279      1.0  0.43998  0.70887  0.08429  1.0000
  C   C280      1.0  0.46513  0.73177  0.07615  1.0000
  H   H483      1.0  0.27943  0.66409  0.10999  1.0000
  C   C281      1.0  0.29566  0.73520  0.46378  1.0000
  H   H484      1.0  0.43435  0.71161  0.10968  1.0000
  H   H485      1.0  0.47276  0.69165  0.03259  1.0000
  C   C282      1.0  0.24082  0.97702  0.06593  1.0000
  H   H486      1.0  0.47281  0.69316  0.13695  1.0000
  H   H487      1.0  0.41696  0.71424  0.07186  1.0000
  H   H488      1.0  0.22294  0.96649  0.05030  1.0000
  H   H489      1.0  0.36774  0.69278  0.38734  1.0000
  H   H490      1.0  0.27759  0.94266  0.45735  1.0000
  S   S82       1.0  0.35452  0.91137  0.98985  1.0000
  C   C283      1.0  0.12678  0.97490  0.35568  1.0000
  H   H491      1.0  0.14469  0.97174  0.37477  1.0000
  H   H492      1.0  0.44111  0.93715  0.34150  1.0000
  C   C284      1.0  0.42297  0.65912  0.08627  1.0000
  H   H493      1.0  0.40140  0.66166  0.42212  1.0000
  H   H494      1.0  0.31021  0.66659  0.42506  1.0000
  C   C285      1.0  0.49200  0.93513  0.32801  1.0000
  C   C286      1.0  0.36704  0.69394  0.41348  1.0000
  C   C287      1.0  0.24897  0.67994  0.01537  1.0000
  H   H495      1.0  0.18255  0.68046  0.09261  1.0000
  C   C288      1.0  0.24496  0.65499  0.99251  1.0000
  C   C289      1.0  0.18275  0.66180  0.07708  1.0000
  S   S83       1.0  0.12856  0.97848  0.19134  1.0000
  N   N21       1.0  0.27444  0.97497  0.05221  1.0000
  H   H496      1.0  0.15703  0.65703  0.07149  1.0000
  H   H497      1.0  0.33518  0.96180  0.08856  1.0000
  H   H498      1.0  0.40349  0.65856  0.06811  1.0000
  H   H499      1.0  0.37708  0.66898  0.45503  1.0000
  H   H500      1.0  0.25351  0.97800  0.00519  1.0000
  C   C290      1.0  0.25688  0.65395  0.10133  1.0000
  H   H501      1.0  0.49625  0.91463  0.33986  1.0000
  C   C291      1.0  0.25624  0.65358  0.06474  1.0000
  S   S84       1.0  0.35555  0.91565  0.47825  1.0000
  H   H502      1.0  0.29608  0.98245  0.00648  1.0000
  C   C292      1.0  0.12155  0.96503  0.85586  1.0000
  C   C293      1.0  0.42888  0.72179  0.87449  1.0000
  Fe  Fe43      1.0  0.12051  0.95185  0.74715  1.0000
  S   S85       1.0  0.15221  0.91419  0.76063  1.0000
  S   S86       1.0  0.06647  0.95284  0.75584  1.0000
  H   H503      1.0  0.39469  0.80538  0.80269  1.0000
  S   S87       1.0  0.35145  0.68081  0.51591  1.0000
  Fe  Fe44      1.0  0.34181  0.88369  0.94796  1.0000
  S   S88       1.0  0.34051  0.90136  0.89910  1.0000
  N   N22       1.0  0.43000  0.95692  0.91239  1.0000
  Fe  Fe45      1.0  0.32565  0.82392  0.92586  1.0000
  S   S89       1.0  0.32208  0.83860  0.87490  1.0000
  S   S90       1.0  0.31758  0.77626  0.93312  1.0000
  Fe  Fe46      1.0  0.36790  0.86270  0.88529  1.0000
  S   S91       1.0  0.40853  0.86543  0.84890  1.0000
  Fe  Fe47      1.0  0.29463  0.87630  0.89286  1.0000
  S   S92       1.0  0.25196  0.90363  0.87596  1.0000
  S   S93       1.0  0.37288  0.84652  0.93479  1.0000
  S   S94       1.0  0.29478  0.86007  0.94315  1.0000
  C   C294      1.0  0.47250  0.86900  0.83179  1.0000
  C   C295      1.0  0.45063  0.86527  0.85693  1.0000
  C   C296      1.0  0.46275  0.86136  0.88744  1.0000
  H   H504      1.0  0.46337  0.87206  0.80809  1.0000
  H   H505      1.0  0.44617  0.85818  0.90692  1.0000
  H   H506      1.0  0.44932  0.97064  0.95760  1.0000
  H   H507      1.0  0.40510  0.75538  0.81041  1.0000
  C   C297      1.0  0.30159  0.77987  0.53317  1.0000
  H   H508      1.0  0.32976  0.94864  0.94079  1.0000
  H   H509      1.0  0.36391  0.95774  0.52581  1.0000
  H   H510      1.0  0.14254  0.90052  0.84098  1.0000
  H   H511      1.0  0.34723  0.80009  0.53973  1.0000
  H   H512      1.0  0.47079  0.74694  0.86883  1.0000
  C   C298      1.0  0.07201  0.89774  0.83959  1.0000
  H   H513      1.0  0.38492  0.83152  0.52177  1.0000
  H   H514      1.0  0.09761  0.93381  0.90492  1.0000
  C   C299      1.0  0.35937  0.73122  0.48469  1.0000
  H   H515      1.0  0.06500  0.87299  0.79692  1.0000
  H   H516      1.0  0.44311  0.81108  0.82665  1.0000
  H   H517      1.0  0.07905  0.95128  0.83131  1.0000
  C   C300      1.0  0.22686  0.90661  0.84179  1.0000
  C   C301      1.0  0.21030  0.93200  0.83650  1.0000
  C   C302      1.0  0.18855  0.93505  0.81102  1.0000
  C   C303      1.0  0.18226  0.91244  0.79088  1.0000
  C   C304      1.0  0.19893  0.88708  0.79602  1.0000
  C   C305      1.0  0.22126  0.88422  0.82113  1.0000
  H   H518      1.0  0.21438  0.94946  0.85228  1.0000
  H   H519      1.0  0.17626  0.95475  0.80728  1.0000
  H   H520      1.0  0.19429  0.86941  0.78067  1.0000
  H   H521      1.0  0.23352  0.86448  0.82495  1.0000
  C   C306      1.0  0.04873  0.93799  0.88922  1.0000
  H   H522      1.0  0.31031  0.71629  0.93194  1.0000
  C   C307      1.0  0.08423  0.88623  0.80761  1.0000
  H   H523      1.0  0.17104  0.89270  0.88884  1.0000
  Fe  Fe48      1.0  0.06212  0.97436  0.70813  1.0000
  H   H524      1.0  0.48179  0.96328  0.91530  1.0000
  C   C308      1.0  0.44770  0.74419  0.85567  1.0000
  C   C309      1.0  0.39937  0.94994  0.85938  1.0000
  C   C310      1.0  0.46271  0.96086  0.89690  1.0000
  H   H525      1.0  0.42404  0.81004  0.87732  1.0000
  H   H526      1.0  0.38544  0.75784  0.89673  1.0000
  H   H527      1.0  0.44709  0.78424  0.89744  1.0000
  C   C311      1.0  0.33996  0.96123  0.95949  1.0000
  C   C312      1.0  0.33746  0.70956  0.49247  1.0000
  H   H528      1.0  0.38243  0.75470  0.84561  1.0000
  H   H529      1.0  0.37540  0.79450  0.89562  1.0000
  N   N23       1.0  0.31271  0.83334  0.52972  1.0000
  C   C313      1.0  0.32532  0.80392  0.52506  1.0000
  C   C314      1.0  0.47480  0.93703  0.87507  1.0000
  C   C315      1.0  0.28232  0.83610  0.51019  1.0000
  C   C316      1.0  0.30572  0.83768  0.56441  1.0000
  H   H530      1.0  0.15349  0.92626  0.89516  1.0000
  H   H531      1.0  0.26055  0.65847  0.97142  1.0000
  C   C317      1.0  0.30595  0.86827  0.57667  1.0000
  C   C318      1.0  0.42863  0.97516  0.94157  1.0000
  H   H532      1.0  0.04133  0.94280  0.91387  1.0000
  H   H533      1.0  0.31504  0.75969  0.53311  1.0000
  H   H534      1.0  0.28190  0.82822  0.57085  1.0000
  H   H535      1.0  0.32413  0.82642  0.57888  1.0000
  H   H536      1.0  0.24961  0.94187  0.48928  1.0000
  H   H537      1.0  0.38702  0.86875  0.52470  1.0000
  H   H538      1.0  0.44324  0.89272  0.95076  1.0000
  H   H539      1.0  0.28509  0.97039  0.54070  1.0000
  H   H540      1.0  0.41979  0.95451  0.84310  1.0000
  H   H541      1.0  0.39648  0.92705  0.86261  1.0000
  H   H542      1.0  0.28815  0.87010  0.59628  1.0000
  H   H543      1.0  0.29941  0.88447  0.55918  1.0000
  H   H544      1.0  0.32981  0.87347  0.58731  1.0000
  H   H545      1.0  0.29140  0.95336  0.49476  1.0000
  H   H546      1.0  0.48845  0.80253  0.86689  1.0000
  H   H547      1.0  0.40006  0.78115  0.92611  1.0000
  H   H548      1.0  0.42655  0.72774  0.89971  1.0000
  C   C319      1.0  0.12660  0.89832  0.86199  1.0000
  C   C320      1.0  0.42587  0.78706  0.88156  1.0000
  H   H549      1.0  0.08927  0.90329  0.79056  1.0000
  C   C321      1.0  0.39500  0.77920  0.90043  1.0000
  H   H550      1.0  0.37923  0.96467  0.90326  1.0000
  C   C322      1.0  0.33813  0.85314  0.51703  1.0000
  H   H551      1.0  0.44299  0.70197  0.87413  1.0000
  C   C323      1.0  0.37224  0.85015  0.53144  1.0000
  H   H552      1.0  0.45435  0.73469  0.83248  1.0000
  H   H553      1.0  0.02862  0.92575  0.87867  1.0000
  C   C324      1.0  0.40020  0.76757  0.83236  1.0000
  C   C325      1.0  0.48810  0.79425  0.84245  1.0000
  H   H554      1.0  0.10609  0.87290  0.80989  1.0000
  H   H555      1.0  0.37163  0.84901  0.55756  1.0000
  H   H556      1.0  0.32152  0.67832  0.97074  1.0000
  C   C326      1.0  0.44740  0.91561  0.94799  1.0000
  C   C327      1.0  0.45329  0.78971  0.83009  1.0000
  H   H557      1.0  0.06391  0.87938  0.85392  1.0000
  C   C328      1.0  0.14759  0.90394  0.89150  1.0000
  N   N24       1.0  0.43119  0.77204  0.85060  1.0000
  C   C329      1.0  0.40296  0.96599  0.89072  1.0000
  H   H558      1.0  0.28235  0.77780  0.51503  1.0000
  C   C330      1.0  0.42380  0.92713  0.92296  1.0000
  H   H559      1.0  0.33325  0.80096  0.50015  1.0000
  H   H560      1.0  0.10938  0.97266  0.87754  1.0000
  H   H561      1.0  0.11571  0.93689  0.81708  1.0000
  H   H562      1.0  0.37914  0.80927  0.84235  1.0000
  H   H563      1.0  0.04973  0.90988  0.83397  1.0000
  C   C331      1.0  0.32709  0.74987  0.96183  1.0000
  H   H564      1.0  0.14667  0.95855  0.86094  1.0000
  H   H565      1.0  0.29062  0.78220  0.55692  1.0000
  H   H566      1.0  0.49030  0.65301  0.61787  1.0000
  H   H567      1.0  0.39896  0.92522  0.93315  1.0000
  H   H568      1.0  0.46315  0.98069  0.88297  1.0000
  C   C332      1.0  0.32680  0.69989  0.97675  1.0000
  C   C333      1.0  0.49647  0.86135  0.89269  1.0000
  H   H569      1.0  0.12095  0.87547  0.86336  1.0000
  H   H570      1.0  0.25547  0.87067  0.53244  1.0000
  C   C334      1.0  0.08091  0.92153  0.88974  1.0000
  H   H571      1.0  0.33115  0.87530  0.52010  1.0000
  C   C335      1.0  0.00024  0.97087  0.64097  1.0000
  C   C336      1.0  0.38218  0.79449  0.82245  1.0000
  C   C337      1.0  0.26624  0.86520  0.50926  1.0000
  C   C338      1.0  0.36031  0.96846  0.50357  1.0000
  H   H572      1.0  0.37703  0.95725  0.84732  1.0000
  H   H573      1.0  0.13577  0.89554  0.91311  1.0000
  H   H574      1.0  0.38415  0.72992  0.49287  1.0000
  C   C339      1.0  0.10228  0.94172  0.83920  1.0000
  H   H575      1.0  0.07639  0.90160  0.90283  1.0000
  N   N25       1.0  0.09590  0.91535  0.85798  1.0000
  H   H576      1.0  0.42394  0.91212  0.90307  1.0000
  S   S95       1.0  0.11572  0.96919  0.69744  1.0000
  H   H577      1.0  0.05126  0.95834  0.87689  1.0000
  H   H578      1.0  0.45543  0.78055  0.80595  1.0000
  H   H579      1.0  0.26312  0.82156  0.51874  1.0000
  H   H580      1.0  0.35755  0.78892  0.81393  1.0000
  H   H581      1.0  0.40492  0.71679  0.86420  1.0000
  S   S96       1.0  0.01578  0.96418  0.67976  1.0000
  C   C340      1.0  0.32049  0.72154  0.95472  1.0000
  H   H582      1.0  0.34072  0.85053  0.49098  1.0000
  H   H583      1.0  0.45571  0.92389  0.86449  1.0000
  H   H584      1.0  0.00120  0.97363  0.81111  1.0000
  H   H585      1.0  0.47308  0.91874  0.94120  1.0000
  H   H586      1.0  0.12329  0.98333  0.83975  1.0000
  H   H587      1.0  0.48854  0.94632  0.85502  1.0000
  H   H588      1.0  0.28279  0.88194  0.50081  1.0000
  H   H589      1.0  0.22787  0.96967  0.52556  1.0000
  H   H590      1.0  0.40660  0.97044  0.95566  1.0000
  H   H591      1.0  0.49245  0.92346  0.88760  1.0000
  H   H592      1.0  0.28830  0.69527  0.48737  1.0000
  H   H593      1.0  0.20238  0.97963  0.49401  1.0000
  H   H594      1.0  0.44271  0.92506  0.97151  1.0000
  H   H595      1.0  0.24588  0.86447  0.49213  1.0000
  H   H596      1.0  0.28728  0.82990  0.48525  1.0000
  C   C341      1.0  0.30555  0.71158  0.48154  1.0000
  C   C342      1.0  0.27006  0.95396  0.47913  1.0000
  C   C343      1.0  0.01896  0.98298  0.61694  1.0000
  Fe  Fe49      1.0  0.84872  0.01164  0.99462  1.0000
  S   S97       1.0  0.81925  0.05082  0.00777  1.0000
  H   H597      1.0  0.71340  0.14125  0.14789  1.0000
  C   C344      1.0  0.70378  0.18735  0.11402  1.0000
  H   H598      1.0  0.70084  0.21033  0.11064  1.0000
  H   H599      1.0  0.77476  0.00629  0.21852  1.0000
  Fe  Fe50      1.0  0.67952  0.09017  0.14210  1.0000
  S   S98       1.0  0.67626  0.10711  0.19191  1.0000
  S   S99       1.0  0.72816  0.06977  0.12839  1.0000
  Fe  Fe51      1.0  0.60575  0.09752  0.13268  1.0000
  S   S100      1.0  0.59765  0.11399  0.18175  1.0000
  S   S101      1.0  0.56757  0.09322  0.09427  1.0000
  Fe  Fe52      1.0  0.64233  0.14040  0.17342  1.0000
  S   S102      1.0  0.64053  0.18864  0.17990  1.0000
  Fe  Fe53      1.0  0.63204  0.07954  0.19634  1.0000
  S   S103      1.0  0.62723  0.05245  0.24035  1.0000
  S   S104      1.0  0.64883  0.12536  0.12297  1.0000
  S   S105      1.0  0.63685  0.06117  0.14792  1.0000
  S   S106      1.0  0.67309  0.28672  0.27960  1.0000
  C   C345      1.0  0.64848  0.21524  0.20882  1.0000
  C   C346      1.0  0.66432  0.20969  0.23736  1.0000
  C   C347      1.0  0.67145  0.23178  0.25859  1.0000
  C   C348      1.0  0.66274  0.25975  0.25188  1.0000
  C   C349      1.0  0.64655  0.26524  0.22351  1.0000
  C   C350      1.0  0.63965  0.24319  0.20216  1.0000
  H   H600      1.0  0.67140  0.18844  0.24297  1.0000
  H   H601      1.0  0.68399  0.22716  0.28040  1.0000
  H   H602      1.0  0.63970  0.28654  0.21781  1.0000
  H   H603      1.0  0.62749  0.24789  0.18017  1.0000
  C   C351      1.0  0.62363  0.01551  0.23799  1.0000
  H   H604      1.0  0.61218  0.30556  0.34392  1.0000
  H   H605      1.0  0.51539  0.16852  0.13259  1.0000
  H   H606      1.0  0.63804  0.00937  0.28639  1.0000
  H   H607      1.0  0.60818  0.01442  0.18950  1.0000
  C   C352      1.0  0.52555  0.09063  0.10241  1.0000
  H   H608      1.0  0.71994  0.18474  0.06452  1.0000
  C   C353      1.0  0.76400  0.13985  0.15965  1.0000
  H   H609      1.0  0.71632  0.99044  0.11526  1.0000
  H   H610      1.0  0.52966  0.09698  0.15255  1.0000
  H   H611      1.0  0.84938  0.98469  0.37608  1.0000
  C   C354      1.0  0.98531  0.00642  0.31966  1.0000
  H   H612      1.0  0.50655  0.15378  0.07842  1.0000
  H   H613      1.0  0.93482  0.01759  0.32455  1.0000
  H   H614      1.0  0.70924  0.18300  0.17857  1.0000
  C   C355      1.0  0.79081  0.05442  0.03938  1.0000
  C   C356      1.0  0.77310  0.07950  0.04255  1.0000
  C   C357      1.0  0.75203  0.08387  0.06849  1.0000
  C   C358      1.0  0.74895  0.06340  0.09205  1.0000
  C   C359      1.0  0.76642  0.03825  0.08863  1.0000
  C   C360      1.0  0.78664  0.03353  0.06225  1.0000
  H   H615      1.0  0.77590  0.09576  0.02490  1.0000
  H   H616      1.0  0.73901  0.10341  0.07066  1.0000
  H   H617      1.0  0.76453  0.02233  0.10660  1.0000
  H   H618      1.0  0.79955  0.01395  0.05992  1.0000
  H   H619      1.0  0.73212  0.03980  0.21804  1.0000
  C   C361      1.0  0.70812  0.02974  0.22116  1.0000
  H   H620      1.0  0.66736  0.99171  0.17084  1.0000
  H   H621      1.0  0.76474  0.16101  0.07928  1.0000
  H   H622      1.0  0.69691  0.23010  0.15798  1.0000
  N   N26       1.0  0.88911  0.03440  0.11257  1.0000
  H   H623      1.0  0.73970  0.23799  0.15269  1.0000
  C   C362      1.0  0.76348  0.19363  0.11799  1.0000
  C   C363      1.0  0.95614  0.01013  0.33674  1.0000
  H   H624      1.0  0.88711  0.07888  0.12261  1.0000
  H   H625      1.0  0.52960  0.24966  0.28579  1.0000
  H   H626      1.0  0.61602  0.25948  0.31176  1.0000
  H   H627      1.0  0.72276  0.23287  0.19123  1.0000
  H   H628      1.0  0.78242  0.19735  0.13624  1.0000
  H   H629      1.0  0.93393  0.01073  0.15861  1.0000
  H   H630      1.0  0.59906  0.28382  0.37661  1.0000
  H   H631      1.0  0.56181  0.98718  0.29181  1.0000
  H   H632      1.0  0.91915  0.06229  0.05743  1.0000
  H   H633      1.0  0.63753  0.27819  0.35834  1.0000
  S   S107      1.0  0.90370  0.00962  0.99554  1.0000
  H   H634      1.0  0.87947  0.05726  0.15580  1.0000
  N   N27       1.0  0.73371  0.18092  0.13311  1.0000
  H   H635      1.0  0.76725  0.11685  0.15695  1.0000
  H   H636      1.0  0.75777  0.21469  0.10805  1.0000
  H   H637      1.0  0.74323  0.01636  0.42804  1.0000
  C   C364      1.0  0.87492  0.05909  0.13001  1.0000
  C   C365      1.0  0.54575  0.30260  0.26868  1.0000
  H   H638      1.0  0.73920  0.13810  0.11534  1.0000
  C   C366      1.0  0.61426  0.00208  0.21009  1.0000
  H   H639      1.0  0.75784  0.14357  0.18484  1.0000
  H   H640      1.0  0.59806  0.22531  0.27958  1.0000
  H   H641      1.0  0.75115  0.19090  0.18026  1.0000
  H   H642      1.0  0.93186  0.04824  0.16547  1.0000
  H   H643      1.0  0.96660  0.03284  0.14728  1.0000
  C   C367      1.0  0.88101  0.03503  0.07783  1.0000
  H   H644      1.0  0.69038  0.03994  0.20527  1.0000
  C   C368      1.0  0.89239  0.06126  0.05947  1.0000
  H   H645      1.0  0.77875  0.01619  0.45333  1.0000
  H   H646      1.0  0.54002  0.25875  0.35818  1.0000
  H   H647      1.0  0.70722  0.02468  0.47341  1.0000
  C   C369      1.0  0.92557  0.03614  0.11535  1.0000
  H   H648      1.0  0.83111  0.06738  0.10142  1.0000
  C   C370      1.0  0.69350  0.98469  0.12747  1.0000
  C   C371      1.0  0.75381  0.02424  0.45041  1.0000
  C   C372      1.0  0.83823  0.06385  0.12634  1.0000
  H   H649      1.0  0.52201  0.29217  0.27118  1.0000
  C   C373      1.0  0.98234  0.99525  0.38482  1.0000
  H   H650      1.0  0.51322  0.08359  0.05362  1.0000
  C   C374      1.0  0.93972  0.03171  0.14877  1.0000
  S   S108      1.0  0.91681  0.00986  0.38967  1.0000
  C   C375      1.0  0.73635  0.14963  0.13781  1.0000
  H   H651      1.0  0.68172  0.18028  0.12695  1.0000
  H   H652      1.0  0.82633  0.00710  0.11261  1.0000
  C   C376      1.0  0.70930  0.99766  0.21634  1.0000
  C   C377      1.0  0.51325  0.09364  0.13302  1.0000
  H   H653      1.0  0.67772  0.17970  0.07053  1.0000
  N   N28       1.0  0.56519  0.27099  0.31541  1.0000
  C   C378      1.0  0.59714  0.26277  0.33020  1.0000
  C   C379      1.0  0.55351  0.24601  0.29675  1.0000
  C   C380      1.0  0.54171  0.27708  0.34190  1.0000
  C   C381      1.0  0.57059  0.29669  0.29525  1.0000
  C   C382      1.0  0.61193  0.28401  0.35358  1.0000
  C   C383      1.0  0.95444  0.00473  0.36946  1.0000
  H   H654      1.0  0.80197  0.16546  0.10105  1.0000
  H   H655      1.0  0.56355  0.22065  0.25498  1.0000
  H   H656      1.0  0.59492  0.24239  0.34296  1.0000
  H   H657      1.0  0.82391  0.04656  0.13678  1.0000
  H   H658      1.0  0.93476  0.05691  0.10734  1.0000
  H   H659      1.0  0.54948  0.22774  0.31275  1.0000
  H   H660      1.0  0.51256  0.19889  0.10828  1.0000
  H   H661      1.0  0.78953  0.19094  0.07324  1.0000
  C   C384      1.0  0.77892  0.99717  0.19480  1.0000
  H   H662      1.0  0.59469  0.29541  0.28336  1.0000
  C   C385      1.0  0.57638  0.23614  0.27006  1.0000
  H   H663      1.0  0.83132  0.08312  0.13942  1.0000
  H   H664      1.0  0.55033  0.29502  0.35648  1.0000
  C   C386      1.0  0.84739  0.99298  0.11380  1.0000
  H   H665      1.0  0.89165  0.01640  0.06583  1.0000
  H   H666      1.0  0.70414  0.15173  0.08021  1.0000
  C   C387      1.0  0.70196  0.17487  0.08055  1.0000
  C   C388      1.0  0.78025  0.17634  0.09165  1.0000
  H   H667      1.0  0.85458  0.03333  0.07372  1.0000
  H   H668      1.0  0.69165  0.02003  0.15821  1.0000
  H   H669      1.0  0.88267  0.08092  0.06962  1.0000
  H   H670      1.0  0.88307  0.06004  0.03493  1.0000
  C   C389      1.0  0.63082  0.99917  0.26469  1.0000
  C   C390      1.0  0.87817  0.00696  0.12725  1.0000
  C   C391      1.0  0.72182  0.22552  0.16632  1.0000
  H   H671      1.0  0.74661  0.02383  0.16837  1.0000
  H   H672      1.0  0.58427  0.25359  0.25456  1.0000
  C   C392      1.0  0.72915  0.19378  0.16547  1.0000
  H   H673      1.0  0.50629  0.30575  0.32036  1.0000
  Fe  Fe54      1.0  0.89989  0.99985  0.44033  1.0000
  H   H674      1.0  0.93722  0.02048  0.09956  1.0000
  H   H675      1.0  0.98623  0.01100  0.29465  1.0000
  H   H676      1.0  0.70004  0.03419  0.24571  1.0000
  H   H677      1.0  0.78741  0.15003  0.15392  1.0000
  H   H678      1.0  0.97770  0.98646  0.05129  1.0000
  S   S109      1.0  0.84571  0.99681  0.44681  1.0000
  C   C393      1.0  0.50693  0.28512  0.33244  1.0000
  H   H679      1.0  0.75579  0.04740  0.44806  1.0000
  H   H680      1.0  0.50033  0.18955  0.03901  1.0000
  C   C394      1.0  0.69170  0.99686  0.16117  1.0000
  C   C395      1.0  0.50387  0.08618  0.07732  1.0000
  H   H681      1.0  0.83534  0.99487  0.33806  1.0000
  H   H682      1.0  0.87472  0.00923  0.15321  1.0000
  H   H683      1.0  0.89719  0.99059  0.12451  1.0000
  H   H684      1.0  0.85215  0.98431  0.08993  1.0000
  H   H685      1.0  0.53619  0.00313  0.26326  1.0000
  N   N29       1.0  0.71816  0.98797  0.18358  1.0000
  H   H686      1.0  0.98157  0.99104  0.40993  1.0000
  H   H687      1.0  0.67343  0.99376  0.11329  1.0000
  H   H688      1.0  0.55632  0.29744  0.24524  1.0000
  H   H689      1.0  0.75701  0.99199  0.14957  1.0000
  C   C396      1.0  0.74957  0.00096  0.17267  1.0000
  H   H690      1.0  0.80001  0.00842  0.18443  1.0000
  H   H691      1.0  0.72601  0.98871  0.23429  1.0000
  H   H692      1.0  0.68494  0.98968  0.22306  1.0000
  H   H693      1.0  0.57156  0.31574  0.31040  1.0000
  C   C397      1.0  0.49843  0.18100  0.11782  1.0000
  H   H694      1.0  0.74090  0.03114  0.49845  1.0000
  S   S110      1.0  0.81469  0.05098  0.50873  1.0000
  H   H695      1.0  0.55049  0.18700  0.70496  1.0000
  C   C398      1.0  0.49829  0.09990  0.57781  1.0000
  H   H696      1.0  0.85247  0.01712  0.60757  1.0000
  C   C399      1.0  0.91032  0.07751  0.55644  1.0000
  Fe  Fe55      1.0  0.67557  0.08933  0.64385  1.0000
  S   S111      1.0  0.67227  0.10373  0.69479  1.0000
  S   S112      1.0  0.72305  0.06666  0.62987  1.0000
  Fe  Fe56      1.0  0.60132  0.09687  0.63560  1.0000
  S   S113      1.0  0.59408  0.10919  0.68615  1.0000
  S   S114      1.0  0.56149  0.09764  0.59816  1.0000
  Fe  Fe57      1.0  0.63747  0.13760  0.67912  1.0000
  S   S115      1.0  0.62589  0.18398  0.69178  1.0000
  Fe  Fe58      1.0  0.62925  0.07464  0.69740  1.0000
  S   S116      1.0  0.62694  0.04509  0.73963  1.0000
  S   S117      1.0  0.64418  0.12557  0.62769  1.0000
  S   S118      1.0  0.63297  0.05985  0.64735  1.0000
  S   S119      1.0  0.67804  0.28652  0.77715  1.0000
  C   C400      1.0  0.64032  0.21140  0.71724  1.0000
  C   C401      1.0  0.62021  0.23474  0.72316  1.0000
  C   C402      1.0  0.63092  0.25758  0.74185  1.0000
  C   C403      1.0  0.66220  0.25765  0.75470  1.0000
  C   C404      1.0  0.68224  0.23430  0.74881  1.0000
  C   C405      1.0  0.67141  0.21133  0.73042  1.0000
  H   H697      1.0  0.59608  0.23512  0.71330  1.0000
  H   H698      1.0  0.61502  0.27515  0.74627  1.0000
  H   H699      1.0  0.70644  0.23396  0.75856  1.0000
  H   H700      1.0  0.68731  0.19373  0.72614  1.0000
  C   C406      1.0  0.61970  0.00848  0.73738  1.0000
  H   H701      1.0  0.95498  0.03441  0.59313  1.0000
  H   H702      1.0  0.57017  0.25000  0.61993  1.0000
  C   C407      1.0  0.49828  0.19376  0.64123  1.0000
  H   H703      1.0  0.59963  0.00871  0.69051  1.0000
  C   C408      1.0  0.51880  0.09657  0.60406  1.0000
  H   H704      1.0  0.86706  0.11881  0.57904  1.0000
  H   H705      1.0  0.76188  0.08850  0.52170  1.0000
  H   H706      1.0  0.91239  0.10025  0.56164  1.0000
  H   H707      1.0  0.52030  0.09080  0.65444  1.0000
  H   H708      1.0  0.69269  0.01660  0.65114  1.0000
  C   C409      1.0  0.70872  0.00463  0.71734  1.0000
  H   H709      1.0  0.52814  0.25130  0.63225  1.0000
  Fe  Fe59      1.0  0.85139  0.01723  0.49436  1.0000
  C   C410      1.0  0.68203  0.99967  0.66597  1.0000
  C   C411      1.0  0.78820  0.05385  0.54192  1.0000
  C   C412      1.0  0.79094  0.03642  0.56837  1.0000
  C   C413      1.0  0.77075  0.04067  0.59492  1.0000
  C   C414      1.0  0.74683  0.06175  0.59507  1.0000
  C   C415      1.0  0.74345  0.07858  0.56820  1.0000
  C   C416      1.0  0.76425  0.07484  0.54199  1.0000
  H   H710      1.0  0.80896  0.02001  0.56857  1.0000
  H   H711      1.0  0.77374  0.02757  0.61555  1.0000
  H   H712      1.0  0.72535  0.09498  0.56793  1.0000
  C   C417      1.0  0.71203  0.00317  0.54466  1.0000
  N   N30       1.0  0.70732  0.98713  0.68764  1.0000
  H   H713      1.0  0.57002  0.16010  0.65864  1.0000
  H   H714      1.0  0.71175  0.04710  0.73583  1.0000
  N   N31       1.0  0.73167  0.98697  0.48965  1.0000
  C   C418      1.0  0.98753  0.00717  0.89385  1.0000
  H   H715      1.0  0.73690  0.00112  0.55402  1.0000
  H   H716      1.0  0.98386  0.01665  0.91677  1.0000
  C   C419      1.0  0.71406  0.03645  0.71261  1.0000
  H   H717      1.0  0.58948  0.16140  0.61008  1.0000
  C   C420      1.0  0.62838  0.99150  0.76315  1.0000
  H   H718      1.0  0.89297  0.01261  0.62312  1.0000
  H   H719      1.0  0.94583  0.02991  0.63427  1.0000
  S   S120      1.0  0.90455  0.02497  0.48521  1.0000
  H   H720      1.0  0.58574  0.19502  0.59051  1.0000
  H   H721      1.0  0.52577  0.18849  0.58652  1.0000
  C   C421      1.0  0.53906  0.17579  0.60431  1.0000
  H   H722      1.0  0.64083  0.27275  0.67602  1.0000
  H   H723      1.0  0.58000  0.20747  0.64436  1.0000
  C   C422      1.0  0.50488  0.09360  0.63405  1.0000
  H   H724      1.0  0.54050  0.23172  0.59801  1.0000
  C   C423      1.0  0.66535  0.28018  0.66944  1.0000
  H   H725      1.0  0.63836  0.00109  0.78414  1.0000
  C   C424      1.0  0.74038  0.98808  0.67249  1.0000
  N   N32       1.0  0.89693  0.06171  0.58450  1.0000
  C   C425      1.0  0.86401  0.07395  0.59194  1.0000
  C   C426      1.0  0.89132  0.03155  0.57527  1.0000
  H   H726      1.0  0.96331  0.07489  0.56211  1.0000
  C   C427      1.0  0.91848  0.06488  0.61306  1.0000
  C   C428      1.0  0.86299  0.10547  0.60017  1.0000
  C   C429      1.0  0.87794  0.01219  0.60150  1.0000
  H   H727      1.0  0.54894  0.21992  0.66849  1.0000
  C   C430      1.0  0.94866  0.04561  0.61503  1.0000
  H   H728      1.0  0.84717  0.07087  0.57169  1.0000
  H   H729      1.0  0.85266  0.06305  0.61240  1.0000
  H   H730      1.0  0.91350  0.02146  0.56631  1.0000
  H   H731      1.0  0.87417  0.03041  0.55500  1.0000
  H   H732      1.0  0.88020  0.11118  0.61917  1.0000
  H   H733      1.0  0.50878  0.10215  0.55450  1.0000
  H   H734      1.0  0.92726  0.08691  0.61496  1.0000
  H   H735      1.0  0.90424  0.06095  0.63503  1.0000
  H   H736      1.0  0.89344  0.07568  0.53595  1.0000
  C   C431      1.0  0.60677  0.99585  0.71037  1.0000
  C   C432      1.0  0.96455  0.98818  0.88224  1.0000
  N   N33       1.0  0.53356  0.18646  0.63745  1.0000
  C   C433      1.0  0.55356  0.21222  0.64411  1.0000
  H   H737      1.0  0.69500  0.99682  0.56373  1.0000
  H   H738      1.0  0.70698  0.02559  0.53956  1.0000
  C   C434      1.0  0.54352  0.16378  0.66024  1.0000
  C   C435      1.0  0.70641  0.98456  0.51535  1.0000
  H   H739      1.0  0.77713  0.99712  0.51231  1.0000
  H   H740      1.0  0.83829  0.11068  0.60887  1.0000
  H   H741      1.0  0.67536  0.26474  0.65241  1.0000
  C   C436      1.0  0.57470  0.17397  0.59356  1.0000
  H   H742      1.0  0.57578  0.16322  0.57030  1.0000
  H   H743      1.0  0.52882  0.15436  0.60155  1.0000
  H   H744      1.0  0.94988  0.08107  0.52284  1.0000
  H   H745      1.0  0.73859  0.04132  0.70339  1.0000
  H   H746      1.0  0.64876  0.99219  0.62704  1.0000
  H   H747      1.0  0.69563  0.04598  0.69701  1.0000
  H   H748      1.0  0.87811  0.99023  0.59275  1.0000
  S   S121      1.0  0.84598  0.99007  0.94710  1.0000
  C   C437      1.0  0.73216  0.01728  0.47913  1.0000
  H   H749      1.0  0.68140  0.27977  0.69044  1.0000
  H   H750      1.0  0.72857  0.99758  0.73317  1.0000
  C   C438      1.0  0.94434  0.06914  0.54476  1.0000
  H   H751      1.0  0.66261  0.01008  0.67992  1.0000
  H   H752      1.0  0.97026  0.05830  0.62146  1.0000
  H   H753      1.0  0.68201  0.98997  0.50584  1.0000
  H   H754      1.0  0.68598  0.00214  0.73120  1.0000
  C   C439      1.0  0.54744  0.23766  0.62232  1.0000
  H   H755      1.0  0.94636  0.04671  0.53844  1.0000
  H   H756      1.0  0.60889  0.30873  0.69102  1.0000
  H   H757      1.0  0.74676  0.00995  0.66566  1.0000
  H   H758      1.0  0.65035  0.30674  0.63150  1.0000
  C   C440      1.0  0.66429  0.30937  0.65379  1.0000
  H   H759      1.0  0.53238  0.14333  0.65390  1.0000
  H   H760      1.0  0.68924  0.31462  0.64575  1.0000
  H   H761      1.0  0.65646  0.31422  0.72037  1.0000
  C   C441      1.0  0.53615  0.16923  0.69548  1.0000
  H   H762      1.0  0.54350  0.15050  0.70933  1.0000
  H   H763      1.0  0.51003  0.17243  0.70020  1.0000
  S   S122      1.0  0.95882  0.98415  0.54006  1.0000
  S   S123      1.0  0.85670  0.47862  0.01756  1.0000
  H   H764      1.0  0.96725  0.44286  0.31394  1.0000
  C   C442      1.0  0.53204  0.43180  0.38830  1.0000
  S   S124      1.0  0.83625  0.42080  0.45262  1.0000
  Fe  Fe60      1.0  0.91082  0.48697  0.01624  1.0000
  S   S125      1.0  0.93791  0.49103  0.06381  1.0000
  Fe  Fe61      1.0  0.68840  0.38683  0.32470  1.0000
  S   S126      1.0  0.69151  0.37288  0.27375  1.0000
  S   S127      1.0  0.72860  0.41574  0.34395  1.0000
  Fe  Fe62      1.0  0.61650  0.36749  0.32890  1.0000
  S   S128      1.0  0.61495  0.35422  0.27810  1.0000
  S   S129      1.0  0.57552  0.35857  0.36376  1.0000
  H   H765      1.0  0.98836  0.44833  0.05229  1.0000
  Fe  Fe63      1.0  0.64302  0.39406  0.26878  1.0000
  S   S130      1.0  0.63237  0.42224  0.22668  1.0000
  S   S131      1.0  0.66417  0.34642  0.33926  1.0000
  S   S132      1.0  0.64047  0.40896  0.31888  1.0000
  C   C443      1.0  0.53381  0.35945  0.35411  1.0000
  C   C444      1.0  0.52282  0.36884  0.32473  1.0000
  H   H766      1.0  0.54051  0.41509  0.40448  1.0000
  H   H767      1.0  0.68351  0.46946  0.19087  1.0000
  C   C445      1.0  0.51105  0.35098  0.37694  1.0000
  C   C446      1.0  0.63420  0.47267  0.25949  1.0000
  C   C447      1.0  0.62799  0.45903  0.23087  1.0000
  C   C448      1.0  0.61954  0.47514  0.20434  1.0000
  H   H768      1.0  0.64075  0.46061  0.28010  1.0000
  H   H769      1.0  0.61438  0.46479  0.18219  1.0000
  C   C449      1.0  0.97198  0.47887  0.08601  1.0000
  H   H770      1.0  0.54437  0.42771  0.36538  1.0000
  H   H771      1.0  0.75869  0.53305  0.44876  1.0000
  C   C450      1.0  0.77008  0.49124  0.46814  1.0000
  C   C451      1.0  0.70335  0.47901  0.17676  1.0000
  C   C452      1.0  0.80524  0.41998  0.42333  1.0000
  C   C453      1.0  0.79872  0.44313  0.40407  1.0000
  C   C454      1.0  0.77485  0.44143  0.38037  1.0000
  C   C455      1.0  0.75701  0.41663  0.37554  1.0000
  C   C456      1.0  0.76309  0.39357  0.39512  1.0000
  C   C457      1.0  0.78714  0.39526  0.41881  1.0000
  H   H772      1.0  0.81226  0.46231  0.40707  1.0000
  H   H773      1.0  0.77032  0.45942  0.36543  1.0000
  H   H774      1.0  0.74966  0.37431  0.39167  1.0000
  H   H775      1.0  0.79194  0.37715  0.43349  1.0000
  Fe  Fe64      1.0  0.66311  0.33396  0.28764  1.0000
  S   S133      1.0  0.80933  0.54912  0.99872  1.0000
  Fe  Fe65      1.0  0.91389  0.50221  0.44074  1.0000
  S   S134      1.0  0.93982  0.51540  0.39488  1.0000
  S   S135      1.0  0.85951  0.49823  0.43778  1.0000
  H   H776      1.0  0.73302  0.43310  0.25085  1.0000
  Fe  Fe66      1.0  0.67753  0.59120  0.13825  1.0000
  S   S136      1.0  0.67630  0.60763  0.18824  1.0000
  S   S137      1.0  0.72653  0.57133  0.12462  1.0000
  Fe  Fe67      1.0  0.60398  0.60223  0.13081  1.0000
  S   S138      1.0  0.59819  0.61889  0.18016  1.0000
  S   S139      1.0  0.56424  0.60039  0.09352  1.0000
  H   H777      1.0  0.71010  0.54544  0.18631  1.0000
  Fe  Fe68      1.0  0.63048  0.58239  0.19335  1.0000
  S   S140      1.0  0.62526  0.55535  0.23732  1.0000
  S   S141      1.0  0.64866  0.62800  0.12044  1.0000
  S   S142      1.0  0.63319  0.56423  0.14462  1.0000
  C   C458      1.0  0.62495  0.51827  0.23456  1.0000
  C   C459      1.0  0.63239  0.50214  0.26137  1.0000
  C   C460      1.0  0.61819  0.50460  0.20611  1.0000
  H   H778      1.0  0.63742  0.51251  0.28354  1.0000
  H   H779      1.0  0.61167  0.51669  0.18550  1.0000
  C   C461      1.0  0.52270  0.59511  0.10264  1.0000
  H   H780      1.0  0.70366  0.51078  0.13836  1.0000
  S   S143      1.0  0.90528  0.52819  0.99027  1.0000
  H   H781      1.0  0.93963  0.42901  0.40109  1.0000
  H   H782      1.0  0.52785  0.59912  0.15299  1.0000
  C   C462      1.0  0.97281  0.50117  0.37269  1.0000
  H   H783      1.0  0.78801  0.49261  0.99437  1.0000
  H   H784      1.0  0.50135  0.48906  0.45830  1.0000
  C   C463      1.0  0.69700  0.44090  0.46679  1.0000
  H   H785      1.0  0.54009  0.37543  0.30692  1.0000
  C   C464      1.0  0.78694  0.55536  0.03411  1.0000
  C   C465      1.0  0.75860  0.57176  0.03272  1.0000
  C   C466      1.0  0.73934  0.57635  0.05987  1.0000
  C   C467      1.0  0.74857  0.56506  0.08901  1.0000
  C   C468      1.0  0.77686  0.54862  0.09038  1.0000
  C   C469      1.0  0.79576  0.54356  0.06312  1.0000
  H   H786      1.0  0.75132  0.58078  0.01037  1.0000
  H   H787      1.0  0.71753  0.58877  0.05821  1.0000
  H   H788      1.0  0.78439  0.53983  0.11275  1.0000
  H   H789      1.0  0.81741  0.53086  0.06463  1.0000
  N   N34       1.0  0.88826  0.44205  0.34582  1.0000
  C   C470      1.0  0.86090  0.46187  0.33783  1.0000
  C   C471      1.0  0.89332  0.44294  0.38111  1.0000
  C   C472      1.0  0.86743  0.49337  0.34366  1.0000
  C   C473      1.0  0.91520  0.42030  0.39609  1.0000
  H   H790      1.0  0.83876  0.45669  0.35162  1.0000
  H   H791      1.0  0.92779  0.47146  0.33955  1.0000
  H   H792      1.0  0.90396  0.46340  0.38822  1.0000
  H   H793      1.0  0.86976  0.44243  0.39394  1.0000
  H   H794      1.0  0.84498  0.50536  0.33862  1.0000
  H   H795      1.0  0.87394  0.49780  0.36850  1.0000
  H   H796      1.0  0.88653  0.50182  0.32780  1.0000
  H   H797      1.0  0.54077  0.32550  0.26793  1.0000
  C   C474      1.0  0.98144  0.51385  0.34379  1.0000
  H   H798      1.0  0.91797  0.40093  0.38220  1.0000
  C   C475      1.0  0.78074  0.43225  0.03030  1.0000
  H   H799      1.0  0.96238  0.50712  0.12461  1.0000
  H   H800      1.0  0.98356  0.46726  0.40447  1.0000
  H   H801      1.0  0.74806  0.62838  0.19224  1.0000
  H   H802      1.0  0.74006  0.45171  0.44166  1.0000
  H   H803      1.0  0.51935  0.34348  0.39965  1.0000
  C   C476      1.0  0.70348  0.49503  0.04642  1.0000
  H   H804      1.0  0.74046  0.64970  0.06477  1.0000
  C   C477      1.0  0.99276  0.45782  0.07508  1.0000
  Fe  Fe69      1.0  0.64452  0.64287  0.17106  1.0000
  H   H805      1.0  0.96848  0.53230  0.33597  1.0000
  H   H806      1.0  0.80472  0.64135  0.08747  1.0000
  C   C478      1.0  0.98978  0.47727  0.38235  1.0000
  H   H807      1.0  0.76933  0.62583  0.10349  1.0000
  N   N35       1.0  0.72974  0.49008  0.19800  1.0000
  C   C479      1.0  0.74370  0.46528  0.21558  1.0000
  C   C480      1.0  0.71634  0.51063  0.22182  1.0000
  C   C481      1.0  0.71946  0.44781  0.23539  1.0000
  C   C482      1.0  0.78721  0.51145  0.19583  1.0000
  H   H808      1.0  0.75586  0.45056  0.19891  1.0000
  H   H809      1.0  0.76273  0.47217  0.23248  1.0000
  H   H810      1.0  0.69170  0.50406  0.22954  1.0000
  H   H811      1.0  0.73150  0.51054  0.24357  1.0000
  H   H812      1.0  0.73268  0.63125  0.13923  1.0000
  H   H813      1.0  0.90445  0.41351  0.41896  1.0000
  H   H814      1.0  0.70425  0.46096  0.25108  1.0000
  H   H815      1.0  0.80224  0.52501  0.18022  1.0000
  H   H816      1.0  0.78156  0.52357  0.21744  1.0000
  H   H817      1.0  0.80227  0.49302  0.20216  1.0000
  C   C483      1.0  0.72174  0.46335  0.45589  1.0000
  C   C484      1.0  0.76734  0.51227  0.44051  1.0000
  H   H818      1.0  0.74822  0.52089  0.16428  1.0000
  H   H819      1.0  0.76510  0.41399  0.02473  1.0000
  H   H820      1.0  0.66844  0.48922  0.14035  1.0000
  H   H821      1.0  0.70369  0.43464  0.22021  1.0000
  H   H822      1.0  0.54038  0.45277  0.39599  1.0000
  H   H823      1.0  0.67302  0.51609  0.16879  1.0000
  C   C485      1.0  0.68669  0.50038  0.15496  1.0000
  C   C486      1.0  0.91803  0.45214  0.32837  1.0000
  H   H824      1.0  0.91171  0.45821  0.30369  1.0000
  H   H825      1.0  0.84503  0.37861  0.34159  1.0000
  C   C487      1.0  0.94674  0.43167  0.32549  1.0000
  H   H826      1.0  0.85385  0.45976  0.31253  1.0000
  H   H827      1.0  0.79971  0.43503  0.01208  1.0000
  S   S144      1.0  0.92098  0.46223  0.46822  1.0000
  H   H828      1.0  0.71667  0.49212  0.06902  1.0000
  H   H829      1.0  0.69381  0.55165  0.22433  1.0000
  C   C488      1.0  0.87841  0.41341  0.33410  1.0000
  C   C489      1.0  0.84846  0.40036  0.35036  1.0000
  H   H830      1.0  0.85141  0.39895  0.37634  1.0000
  H   H831      1.0  0.68968  0.51491  0.04894  1.0000
  H   H832      1.0  0.89810  0.39785  0.33640  1.0000
  C   C490      1.0  0.75645  0.50237  0.17787  1.0000
  H   H833      1.0  0.87344  0.41415  0.30824  1.0000
  H   H834      1.0  0.82589  0.41183  0.34461  1.0000
  C   C491      1.0  0.71438  0.54176  0.21167  1.0000
  Fe  Fe70      1.0  0.86603  0.45941  0.46648  1.0000
  H   H835      1.0  0.68562  0.47791  0.04300  1.0000
  H   H836      1.0  0.76412  0.48705  0.15945  1.0000
  C   C492      1.0  0.51110  0.59595  0.13369  1.0000
  H   H837      1.0  0.73607  0.55360  0.21955  1.0000
  H   H838      1.0  0.71285  0.46186  0.16149  1.0000
  H   H839      1.0  0.70553  0.44055  0.01416  1.0000
  C   C493      1.0  0.78885  0.64097  0.10871  1.0000
  C   C494      1.0  0.76877  0.47963  0.98319  1.0000
  H   H840      1.0  0.79366  0.42693  0.05251  1.0000
  H   H841      1.0  0.75174  0.50435  0.42119  1.0000
  H   H842      1.0  0.70923  0.47745  0.43886  1.0000
  H   H843      1.0  0.79176  0.51597  0.43032  1.0000
  C   C495      1.0  0.76057  0.45891  0.03582  1.0000
  H   H844      1.0  0.67731  0.43953  0.44897  1.0000
  N   N36       1.0  0.74370  0.47129  0.00747  1.0000
  H   H845      1.0  0.74281  0.45301  0.05445  1.0000
  H   H846      1.0  0.78552  0.47380  0.45941  1.0000
  Fe  Fe71      1.0  0.85171  0.51873  0.99045  1.0000
  H   H847      1.0  0.77705  0.47482  0.04663  1.0000
  H   H848      1.0  0.94098  0.41356  0.31007  1.0000
  C   C496      1.0  0.97825  0.49085  0.11583  1.0000
  H   H849      1.0  0.95582  0.42449  0.34861  1.0000
  H   H850      1.0  0.74535  0.51387  0.02501  1.0000
  H   H851      1.0  0.80417  0.63252  0.12803  1.0000
  H   H852      1.0  0.71281  0.50742  0.99879  1.0000
  H   H853      1.0  0.50936  0.59003  0.05379  1.0000
  C   C497      1.0  0.72710  0.49786  0.01827  1.0000
  H   H854      1.0  0.71316  0.63153  0.09160  1.0000
  H   H855      1.0  0.71185  0.51818  0.46989  1.0000
  H   H856      1.0  0.50675  0.41293  0.44447  1.0000
  C   C498      1.0  0.50058  0.59088  0.07786  1.0000
  H   H857      1.0  0.70836  0.41979  0.46693  1.0000
  C   C499      1.0  0.71834  0.45153  0.99453  1.0000
  H   H858      1.0  0.52555  0.46068  0.44444  1.0000
  C   C500      1.0  0.50087  0.46642  0.45211  1.0000
  H   H859      1.0  0.78007  0.64939  0.17622  1.0000
  C   C501      1.0  0.75370  0.64888  0.18099  1.0000
  H   H860      1.0  0.69941  0.46367  0.98170  1.0000
  S   S145      1.0  0.86002  0.48145  0.51329  1.0000
  H   H861      1.0  0.64901  0.38611  0.61677  1.0000
  C   C502      1.0  0.86292  0.52150  0.59481  1.0000
  H   H862      1.0  0.95959  0.53828  0.84043  1.0000
  Fe  Fe72      1.0  0.91425  0.48889  0.51233  1.0000
  S   S146      1.0  0.93983  0.49759  0.55977  1.0000
  Fe  Fe73      1.0  0.68251  0.38335  0.83152  1.0000
  S   S147      1.0  0.68725  0.36840  0.78134  1.0000
  S   S148      1.0  0.72164  0.41353  0.85092  1.0000
  Fe  Fe74      1.0  0.61079  0.36394  0.83355  1.0000
  S   S149      1.0  0.61080  0.34834  0.78324  1.0000
  S   S150      1.0  0.56914  0.36088  0.86913  1.0000
  H   H863      1.0  0.65357  0.34978  0.60761  1.0000
  Fe  Fe75      1.0  0.63876  0.38810  0.77291  1.0000
  S   S151      1.0  0.63530  0.41251  0.72692  1.0000
  S   S152      1.0  0.65817  0.34285  0.84635  1.0000
  S   S153      1.0  0.63495  0.40514  0.82205  1.0000
  C   C503      1.0  0.52688  0.36186  0.86122  1.0000
  C   C504      1.0  0.59390  0.35168  0.69087  1.0000
  S   S154      1.0  0.81774  0.55381  0.49495  1.0000
  H   H864      1.0  0.60312  0.32286  0.65282  1.0000
  H   H865      1.0  0.68160  0.55920  0.78435  1.0000
  C   C505      1.0  0.61465  0.46273  0.75296  1.0000
  C   C506      1.0  0.62830  0.44913  0.72688  1.0000
  C   C507      1.0  0.63709  0.46504  0.70023  1.0000
  H   H866      1.0  0.60741  0.45068  0.77346  1.0000
  H   H867      1.0  0.64752  0.45471  0.67989  1.0000
  C   C508      1.0  0.97311  0.48481  0.58251  1.0000
  H   H868      1.0  0.70139  0.52708  0.73393  1.0000
  H   H869      1.0  0.65405  0.35064  0.72021  1.0000
  C   C509      1.0  0.68209  0.47707  0.80981  1.0000
  H   H870      1.0  0.72598  0.43597  0.94611  1.0000
  C   C510      1.0  0.80325  0.41737  0.92580  1.0000
  C   C511      1.0  0.79453  0.44097  0.90814  1.0000
  C   C512      1.0  0.76949  0.43927  0.88561  1.0000
  C   C513      1.0  0.75265  0.41400  0.88026  1.0000
  C   C514      1.0  0.76133  0.39035  0.89791  1.0000
  C   C515      1.0  0.78654  0.39204  0.92044  1.0000
  H   H871      1.0  0.80718  0.46054  0.91172  1.0000
  H   H872      1.0  0.76310  0.45775  0.87229  1.0000
  H   H873      1.0  0.74872  0.37072  0.89411  1.0000
  H   H874      1.0  0.79301  0.37358  0.93390  1.0000
  H   H875      1.0  0.87083  0.50239  0.58199  1.0000
  H   H876      1.0  0.72861  0.53390  0.78640  1.0000
  Fe  Fe76      1.0  0.90950  0.50264  0.94538  1.0000
  S   S155      1.0  0.93450  0.51702  0.89920  1.0000
  S   S156      1.0  0.85514  0.49757  0.94291  1.0000
  C   C516      1.0  0.89316  0.58583  0.60641  1.0000
  Fe  Fe77      1.0  0.67859  0.58033  0.63181  1.0000
  S   S157      1.0  0.68025  0.59333  0.68316  1.0000
  S   S158      1.0  0.72080  0.55343  0.61303  1.0000
  Fe  Fe78      1.0  0.60732  0.59977  0.62585  1.0000
  S   S159      1.0  0.60411  0.61323  0.67657  1.0000
  S   S160      1.0  0.56754  0.60737  0.58952  1.0000
  Fe  Fe79      1.0  0.65333  0.63274  0.66917  1.0000
  Fe  Fe80      1.0  0.63109  0.57294  0.68654  1.0000
  S   S161      1.0  0.61720  0.54510  0.72812  1.0000
  S   S162      1.0  0.65542  0.62112  0.61730  1.0000
  S   S163      1.0  0.63046  0.55812  0.63633  1.0000
  C   C517      1.0  0.61996  0.50806  0.72621  1.0000
  C   C518      1.0  0.61028  0.49203  0.75249  1.0000
  C   C519      1.0  0.63322  0.49440  0.69997  1.0000
  H   H877      1.0  0.59984  0.50241  0.77280  1.0000
  H   H878      1.0  0.64083  0.50648  0.67963  1.0000
  C   C520      1.0  0.52578  0.60022  0.59579  1.0000
  H   H879      1.0  0.66138  0.46806  0.85585  1.0000
  C   C521      1.0  0.75593  0.49634  0.95464  1.0000
  H   H880      1.0  0.68913  0.48729  0.52996  1.0000
  H   H881      1.0  0.53049  0.58770  0.64441  1.0000
  C   C522      1.0  0.96774  0.50584  0.87502  1.0000
  H   H882      1.0  0.52261  0.43124  0.89263  1.0000
  H   H883      1.0  0.76972  0.42450  0.52578  1.0000
  S   S164      1.0  0.83464  0.41868  0.95471  1.0000
  H   H884      1.0  0.53115  0.37567  0.81301  1.0000
  C   C523      1.0  0.78926  0.55259  0.52661  1.0000
  C   C524      1.0  0.78804  0.53003  0.54774  1.0000
  C   C525      1.0  0.76628  0.53042  0.57345  1.0000
  C   C526      1.0  0.74542  0.55333  0.57849  1.0000
  C   C527      1.0  0.74609  0.57561  0.55697  1.0000
  C   C528      1.0  0.76789  0.57520  0.53118  1.0000
  H   H885      1.0  0.80420  0.51245  0.54462  1.0000
  H   H886      1.0  0.76600  0.51309  0.58996  1.0000
  H   H887      1.0  0.73024  0.59339  0.56052  1.0000
  H   H888      1.0  0.76850  0.59276  0.51497  1.0000
  H   H889      1.0  0.77533  0.49792  0.93652  1.0000
  H   H890      1.0  0.51273  0.61185  0.54827  1.0000
  H   H891      1.0  0.72465  0.45411  0.52154  1.0000
  H   H892      1.0  0.75528  0.42212  0.97373  1.0000
  H   H893      1.0  0.84367  0.61150  0.63967  1.0000
  H   H894      1.0  0.71643  0.52615  0.82468  1.0000
  H   H895      1.0  0.66289  0.53977  0.81623  1.0000
  H   H896      1.0  0.77499  0.50938  0.78288  1.0000
  C   C529      1.0  0.66408  0.33286  0.70639  1.0000
  H   H897      1.0  0.83452  0.59227  0.54992  1.0000
  H   H898      1.0  0.75720  0.47689  0.52887  1.0000
  H   H899      1.0  0.76407  0.42604  0.48386  1.0000
  H   H900      1.0  0.74203  0.51347  0.73673  1.0000
  H   H901      1.0  0.60147  0.35654  0.71530  1.0000
  N   N37       1.0  0.73845  0.48024  0.48131  1.0000
  C   C530      1.0  0.77106  0.48640  0.78389  1.0000
  H   H902      1.0  0.83464  0.55981  0.62734  1.0000
  C   C531      1.0  0.50377  0.60491  0.57100  1.0000
  C   C532      1.0  0.98089  0.49836  0.61111  1.0000
  C   C533      1.0  0.82424  0.60353  0.62401  1.0000
  C   C534      1.0  0.88401  0.59707  0.53511  1.0000
  H   H903      1.0  0.87625  0.52174  0.61737  1.0000
  C   C535      1.0  0.74052  0.47856  0.80283  1.0000
  N   N38       1.0  0.70917  0.49167  0.79212  1.0000
  C   C536      1.0  0.90193  0.56953  0.63667  1.0000
  C   C537      1.0  0.51388  0.59139  0.62512  1.0000
  H   H904      1.0  0.85663  0.61838  0.57056  1.0000
  C   C538      1.0  0.86993  0.54739  0.57395  1.0000
  H   H905      1.0  0.56808  0.34518  0.69216  1.0000
  H   H906      1.0  0.70822  0.35854  0.70995  1.0000
  H   H907      1.0  0.71385  0.49907  0.70915  1.0000
  H   H908      1.0  0.73466  0.48615  0.94357  1.0000
  H   H909      1.0  0.85481  0.54434  0.55251  1.0000
  H   H910      1.0  0.88073  0.56206  0.65022  1.0000
  H   H911      1.0  0.67759  0.48390  0.75201  1.0000
  C   C539      1.0  0.74648  0.46318  0.51029  1.0000
  N   N39       1.0  0.88735  0.44138  0.85053  1.0000
  C   C540      1.0  0.86151  0.46187  0.84049  1.0000
  C   C541      1.0  0.87784  0.41266  0.83873  1.0000
  C   C542      1.0  0.91992  0.44907  0.83693  1.0000
  C   C543      1.0  0.88999  0.44206  0.88599  1.0000
  C   C544      1.0  0.86869  0.49316  0.84679  1.0000
  C   C545      1.0  0.84930  0.39851  0.85620  1.0000
  C   C546      1.0  0.92148  0.45178  0.80068  1.0000
  C   C547      1.0  0.91404  0.42106  0.90089  1.0000
  H   H912      1.0  0.85606  0.45973  0.81487  1.0000
  H   H913      1.0  0.83825  0.45718  0.85275  1.0000
  H   H914      1.0  0.89866  0.39789  0.83920  1.0000
  H   H915      1.0  0.87084  0.41357  0.81336  1.0000
  H   H916      1.0  0.92876  0.46907  0.84708  1.0000
  H   H917      1.0  0.93857  0.43335  0.84377  1.0000
  H   H918      1.0  0.89815  0.46309  0.89409  1.0000
  H   H919      1.0  0.86594  0.43957  0.89753  1.0000
  H   H920      1.0  0.84821  0.50592  0.83778  1.0000
  H   H921      1.0  0.87063  0.49776  0.87235  1.0000
  H   H922      1.0  0.89080  0.50070  0.83451  1.0000
  H   H923      1.0  0.82695  0.41129  0.85517  1.0000
  H   H924      1.0  0.84368  0.37817  0.84465  1.0000
  H   H925      1.0  0.85524  0.39373  0.88118  1.0000
  H   H926      1.0  0.90541  0.46857  0.79170  1.0000
  H   H927      1.0  0.91584  0.43166  0.78878  1.0000
  H   H928      1.0  0.94662  0.45766  0.79380  1.0000
  H   H929      1.0  0.93791  0.43126  0.90492  1.0000
  H   H930      1.0  0.91802  0.40195  0.88672  1.0000
  H   H931      1.0  0.90427  0.41366  0.92393  1.0000
  C   C548      1.0  0.83354  0.57558  0.60816  1.0000
  H   H932      1.0  0.98618  0.45110  0.55133  1.0000
  H   H933      1.0  0.71457  0.32636  0.68867  1.0000
  H   H934      1.0  0.73871  0.45521  0.80233  1.0000
  Fe  Fe81      1.0  0.86278  0.45798  0.96992  1.0000
  C   C549      1.0  0.64300  0.36457  0.62498  1.0000
  H   H935      1.0  0.81251  0.56901  0.59354  1.0000
  H   H936      1.0  0.79548  0.44647  0.50275  1.0000
  H   H937      1.0  0.68408  0.36331  0.65586  1.0000
  H   H938      1.0  0.96669  0.51618  0.61862  1.0000
  C   C550      1.0  0.70130  0.33605  0.70850  1.0000
  C   C551      1.0  0.70942  0.52253  0.79964  1.0000
  H   H939      1.0  0.71358  0.46484  0.75078  1.0000
  H   H940      1.0  0.66178  0.52711  0.77637  1.0000
  N   N40       1.0  0.86392  0.57599  0.58823  1.0000
  H   H941      1.0  0.71013  0.32507  0.72999  1.0000
  C   C552      1.0  0.65742  0.36031  0.65822  1.0000
  H   H942      1.0  0.77036  0.47734  0.75977  1.0000
  C   C553      1.0  0.51461  0.37020  0.83190  1.0000
  C   C554      1.0  0.50499  0.35489  0.88554  1.0000
  C   C555      1.0  0.85820  0.59651  0.56158  1.0000
  C   C556      1.0  0.70374  0.48579  0.75738  1.0000
  Fe  Fe82      1.0  0.65923  0.32942  0.79490  1.0000
  H   H943      1.0  0.88545  0.57682  0.52241  1.0000
  H   H944      1.0  0.90829  0.60312  0.54389  1.0000
  H   H945      1.0  0.83658  0.51893  0.59930  1.0000
  H   H946      1.0  0.89154  0.60852  0.61242  1.0000
  H   H947      1.0  0.64939  0.37806  0.67333  1.0000
  H   H948      1.0  0.89543  0.54557  0.56552  1.0000
  H   H949      1.0  0.87686  0.61297  0.51724  1.0000
  H   H950      1.0  0.74578  0.48429  0.82772  1.0000
  C   C557      1.0  0.71633  0.50774  0.73339  1.0000
  H   H951      1.0  0.91801  0.55152  0.63108  1.0000
  C   C558      1.0  0.67703  0.53787  0.79401  1.0000
  H   H952      1.0  0.74996  0.51824  0.96137  1.0000
  H   H953      1.0  0.59479  0.37112  0.67651  1.0000
  H   H954      1.0  0.79251  0.47716  0.79578  1.0000
  C   C559      1.0  0.98675  0.48244  0.88238  1.0000
  H   H955      1.0  0.91521  0.58471  0.59131  1.0000
  H   H956      1.0  0.61623  0.36277  0.62485  1.0000
  H   H957      1.0  0.51426  0.34835  0.90826  1.0000
  H   H958      1.0  0.68247  0.45409  0.80476  1.0000
  H   H959      1.0  0.65795  0.48416  0.80141  1.0000
  C   C560      1.0  0.68178  0.48062  0.84606  1.0000
  H   H960      1.0  0.54135  0.64730  0.64689  1.0000
  H   H961      1.0  0.80245  0.59999  0.63901  1.0000
  C   C561      1.0  0.72996  0.42897  0.97084  1.0000
  H   H962      1.0  0.91496  0.58376  0.65310  1.0000
  H   H963      1.0  0.70404  0.47255  0.85736  1.0000
  H   H964      1.0  0.78197  0.46138  0.97356  1.0000
  C   C562      1.0  0.68612  0.49942  0.50784  1.0000
  S   S165      1.0  0.91763  0.46186  0.97112  1.0000
  N   N41       1.0  0.64996  0.33255  0.67362  1.0000
  H   H965      1.0  0.67763  0.50266  0.85317  1.0000
  S   S166      1.0  0.90987  0.52906  0.48446  1.0000
  C   C563      1.0  0.97415  0.52024  0.84656  1.0000
  H   H966      1.0  0.81731  0.61972  0.60647  1.0000
  C   C564      1.0  0.99176  0.46179  0.57318  1.0000
  H   H967      1.0  0.98218  0.47103  0.90402  1.0000
  Fe  Fe83      1.0  0.85622  0.52053  0.48447  1.0000
  C   C565      1.0  0.77022  0.43869  0.50496  1.0000
  C   C566      1.0  0.61392  0.32761  0.67628  1.0000
  H   H968      1.0  0.71473  0.40988  0.97363  1.0000
  H   H969      1.0  0.67527  0.51980  0.51492  1.0000
  H   H970      1.0  0.73273  0.51941  0.50655  1.0000
  C   C567      1.0  0.71841  0.50532  0.49085  1.0000
  H   H971      1.0  0.66837  0.48930  0.49186  1.0000
  H   H972      1.0  0.78459  0.50150  0.48698  1.0000
  H   H973      1.0  0.68519  0.44491  0.48974  1.0000
  H   H974      1.0  0.66889  0.92805  0.99854  1.0000
  H   H975      1.0  0.88014  0.88791  0.39268  1.0000
  C   C568      1.0  0.97991  0.98018  0.07575  1.0000
  H   H976      1.0  0.74106  0.92780  0.47286  1.0000
  H   H977      1.0  0.50244  0.80259  0.36553  1.0000
  C   C569      1.0  0.95451  0.96556  0.09029  1.0000
  S   S167      1.0  0.65228  0.69071  0.17605  1.0000
  Fe  Fe84      1.0  0.68083  0.88349  0.32777  1.0000
  S   S168      1.0  0.68058  0.86827  0.27710  1.0000
  S   S169      1.0  0.72277  0.91135  0.34534  1.0000
  Fe  Fe85      1.0  0.60814  0.86792  0.33597  1.0000
  S   S170      1.0  0.60303  0.85270  0.28618  1.0000
  S   S171      1.0  0.56743  0.86882  0.37232  1.0000
  Fe  Fe86      1.0  0.65094  0.83109  0.29402  1.0000
  S   S172      1.0  0.65674  0.78332  0.28673  1.0000
  Fe  Fe87      1.0  0.63282  0.89091  0.27348  1.0000
  S   S173      1.0  0.61928  0.91918  0.23225  1.0000
  S   S174      1.0  0.65475  0.84485  0.34525  1.0000
  S   S175      1.0  0.63421  0.90753  0.32272  1.0000
  C   C570      1.0  0.52578  0.86438  0.36359  1.0000
  C   C571      1.0  0.71973  0.67686  0.10166  1.0000
  H   H978      1.0  0.56064  0.73881  0.40399  1.0000
  H   H979      1.0  0.53261  0.85477  0.31441  1.0000
  C   C572      1.0  0.69156  0.93958  0.19285  1.0000
  C   C573      1.0  0.65196  0.71597  0.20743  1.0000
  C   C574      1.0  0.65336  0.70838  0.23936  1.0000
  C   C575      1.0  0.65479  0.72925  0.26309  1.0000
  C   C576      1.0  0.65433  0.75806  0.25546  1.0000
  C   C577      1.0  0.65235  0.76565  0.22356  1.0000
  C   C578      1.0  0.65149  0.74478  0.19980  1.0000
  H   H980      1.0  0.65394  0.68642  0.24577  1.0000
  H   H981      1.0  0.65642  0.72299  0.28760  1.0000
  H   H982      1.0  0.65201  0.78761  0.21715  1.0000
  H   H983      1.0  0.65045  0.75104  0.17527  1.0000
  S   S176      1.0  0.91734  0.95790  0.07047  1.0000
  C   C579      1.0  0.62036  0.95623  0.23537  1.0000
  H   H984      1.0  0.79549  0.67946  0.13394  1.0000
  H   H985      1.0  0.63583  0.95745  0.28386  1.0000
  H   H986      1.0  0.60520  0.96241  0.18717  1.0000
  H   H987      1.0  0.54436  0.75556  0.26741  1.0000
  H   H988      1.0  0.86686  0.96034  0.31088  1.0000
  H   H989      1.0  0.52158  0.89877  0.23186  1.0000
  H   H990      1.0  0.52074  0.73004  0.39188  1.0000
  H   H991      1.0  0.95949  0.93736  0.31073  1.0000
  C   C580      1.0  0.79373  0.91775  0.42950  1.0000
  C   C581      1.0  0.78774  0.94067  0.40974  1.0000
  C   C582      1.0  0.76553  0.93832  0.38461  1.0000
  C   C583      1.0  0.74859  0.91319  0.37898  1.0000
  C   C584      1.0  0.75393  0.89041  0.39919  1.0000
  C   C585      1.0  0.77646  0.89268  0.42421  1.0000
  H   H992      1.0  0.80035  0.96020  0.41362  1.0000
  H   H993      1.0  0.76147  0.95612  0.36926  1.0000
  H   H994      1.0  0.74121  0.87088  0.39517  1.0000
  H   H995      1.0  0.70775  0.65554  0.15840  1.0000
  H   H996      1.0  0.92545  0.95835  0.30088  1.0000
  S   S177      1.0  0.90956  0.95862  0.46406  1.0000
  H   H997      1.0  0.55161  0.97089  0.34308  1.0000
  C   C586      1.0  0.72138  0.96952  0.46167  1.0000
  C   C587      1.0  0.54903  0.93279  0.31319  1.0000
  H   H998      1.0  0.93868  0.94609  0.13367  1.0000
  C   C588      1.0  0.50669  0.91858  0.27553  1.0000
  H   H999      1.0  0.85225  0.93557  0.39098  1.0000
  C   C589      1.0  0.74176  0.70224  0.14676  1.0000
  H   H1000     1.0  0.69014  0.96162  0.12720  1.0000
  H   H1001     1.0  0.89173  0.97887  0.33765  1.0000
  N   N42       1.0  0.74368  0.67506  0.12847  1.0000
  H   H1002     1.0  0.88160  0.89060  0.33975  1.0000
  H   H1003     1.0  0.53526  0.72940  0.34051  1.0000
  H   H1004     1.0  0.74076  0.95020  0.20148  1.0000
  H   H1005     1.0  0.61010  0.80544  0.38501  1.0000
  H   H1006     1.0  0.73922  0.97136  0.44209  1.0000
  C   C590      1.0  0.52984  0.91628  0.24716  1.0000
  H   H1007     1.0  0.50457  0.89715  0.28574  1.0000
  H   H1008     1.0  0.56804  0.93710  0.29521  1.0000
  C   C591      1.0  0.83261  0.90572  0.33909  1.0000
  H   H1009     1.0  0.75948  0.70237  0.16654  1.0000
  H   H1010     1.0  0.55135  0.90995  0.31827  1.0000
  H   H1011     1.0  0.57250  0.81382  0.33987  1.0000
  C   C592      1.0  0.54070  0.74534  0.38800  1.0000
  H   H1012     1.0  0.68521  0.94251  0.21809  1.0000
  H   H1013     1.0  0.78069  0.87480  0.43940  1.0000
  H   H1014     1.0  0.82478  0.88661  0.32617  1.0000
  H   H1015     1.0  0.72525  0.69494  0.08599  1.0000
  H   H1016     1.0  0.51132  0.76473  0.30737  1.0000
  H   H1017     1.0  0.77083  0.72827  0.11371  1.0000
  C   C593      1.0  0.57657  0.76692  0.30704  1.0000
  C   C594      1.0  0.56437  0.74640  0.28148  1.0000
  H   H1018     1.0  0.58188  0.78722  0.29491  1.0000
  H   H1019     1.0  0.60049  0.75858  0.31459  1.0000
  H   H1020     1.0  0.69655  0.91686  0.18977  1.0000
  H   H1021     1.0  0.78164  0.68417  0.09458  1.0000
  H   H1022     1.0  0.69779  0.65467  0.06239  1.0000
  H   H1023     1.0  0.84058  0.97489  0.12899  1.0000
  N   N43       1.0  0.88435  0.93501  0.35015  1.0000
  C   C595      1.0  0.92058  0.93355  0.34514  1.0000
  Fe  Fe88      1.0  0.89586  0.96902  0.02182  1.0000
  H   H1024     1.0  0.78603  0.97487  0.19710  1.0000
  C   C596      1.0  0.93255  0.93776  0.31084  1.0000
  H   H1025     1.0  0.52922  0.93531  0.23220  1.0000
  H   H1026     1.0  0.93310  0.94952  0.36001  1.0000
  H   H1027     1.0  0.93036  0.91291  0.35273  1.0000
  H   H1028     1.0  0.53167  0.76590  0.39603  1.0000
  C   C597      1.0  0.72208  0.95654  0.18400  1.0000
  H   H1029     1.0  0.70931  0.92793  0.44477  1.0000
  H   H1030     1.0  0.87211  0.91248  0.30733  1.0000
  H   H1031     1.0  0.57584  0.73299  0.35322  1.0000
  C   C598      1.0  0.74828  0.72939  0.12790  1.0000
  H   H1032     1.0  0.67036  0.94460  0.17789  1.0000
  C   C599      1.0  0.87837  0.93393  0.38529  1.0000
  C   C600      1.0  0.51246  0.96915  0.28902  1.0000
  C   C601      1.0  0.50275  0.86792  0.38776  1.0000
  C   C602      1.0  0.71756  0.93778  0.46717  1.0000
  H   H1033     1.0  0.58554  0.94770  0.34650  1.0000
  Fe  Fe89      1.0  0.85540  0.95683  0.47229  1.0000
  H   H1034     1.0  0.58440  0.74236  0.26449  1.0000
  C   C603      1.0  0.86908  0.91045  0.33333  1.0000
  H   H1035     1.0  0.51073  0.87319  0.41135  1.0000
  C   C604      1.0  0.55198  0.74394  0.35307  1.0000
  N   N44       1.0  0.55469  0.77132  0.33531  1.0000
  H   H1036     1.0  0.54806  0.93823  0.36469  1.0000
  C   C605      1.0  0.60321  0.78807  0.36884  1.0000
  H   H1037     1.0  0.82683  0.90194  0.36433  1.0000
  S   S178      1.0  0.84120  0.97206  0.02194  1.0000
  H   H1038     1.0  0.81783  0.92317  0.32977  1.0000
  H   H1039     1.0  0.62228  0.78705  0.35040  1.0000
  C   C606      1.0  0.73324  0.65203  0.15073  1.0000
  H   H1040     1.0  0.88269  0.90834  0.42759  1.0000
  H   H1041     1.0  0.55487  0.91104  0.25428  1.0000
  C   C607      1.0  0.95806  0.95751  0.12215  1.0000
  C   C608      1.0  0.56969  0.79457  0.35457  1.0000
  C   C609      1.0  0.77783  0.67133  0.11628  1.0000
  C   C610      1.0  0.89059  0.90744  0.40253  1.0000
  H   H1042     1.0  0.71749  0.70461  0.15807  1.0000
  H   H1043     1.0  0.55404  0.80149  0.37429  1.0000
  H   H1044     1.0  0.69480  0.68057  0.11107  1.0000
  H   H1045     1.0  0.88982  0.95238  0.39690  1.0000
  H   H1046     1.0  0.73114  0.94873  0.16085  1.0000
  H   H1047     1.0  0.91740  0.90631  0.40299  1.0000
  C   C611      1.0  0.51516  0.85756  0.33322  1.0000
  C   C612      1.0  0.98647  0.96400  0.13930  1.0000
  H   H1048     1.0  0.51078  0.67682  0.13349  1.0000
  H   H1049     1.0  0.92427  0.92066  0.29507  1.0000
  N   N45       1.0  0.51555  0.93936  0.30099  1.0000
  H   H1050     1.0  0.82185  0.96245  0.35452  1.0000
  H   H1051     1.0  0.72742  0.73486  0.11258  1.0000
  H   H1052     1.0  0.74738  0.66532  0.19851  1.0000
  C   C613      1.0  0.52211  0.78075  0.32323  1.0000
  H   H1053     1.0  0.60339  0.76848  0.38285  1.0000
  C   C614      1.0  0.61249  0.97259  0.20886  1.0000
  S   S179      1.0  0.82228  0.91957  0.46104  1.0000
  C   C615      1.0  0.55885  0.94853  0.34357  1.0000
  C   C616      1.0  0.62949  0.96968  0.26333  1.0000
  H   H1054     1.0  0.75107  0.74709  0.14475  1.0000
  C   C617      1.0  0.87246  0.96253  0.33647  1.0000
  H   H1055     1.0  0.55709  0.72582  0.29140  1.0000
  H   H1056     1.0  0.50241  0.68151  0.07994  1.0000
  H   H1057     1.0  0.69793  0.97733  0.45203  1.0000
  H   H1058     1.0  0.55370  0.96989  0.25496  1.0000
  H   H1059     1.0  0.98878  0.95756  0.16370  1.0000
  H   H1060     1.0  0.52488  0.80016  0.30875  1.0000
  C   C618      1.0  0.84295  0.97650  0.35237  1.0000
  H   H1061     1.0  0.50519  0.98367  0.30837  1.0000
  C   C619      1.0  0.54289  0.98265  0.27395  1.0000
  C   C620      1.0  0.71811  0.65151  0.07920  1.0000
  H   H1062     1.0  0.83767  0.93650  0.89939  1.0000
  H   H1063     1.0  0.93016  0.96084  0.59859  1.0000
  S   S180      1.0  0.85909  0.97693  0.52070  1.0000
  C   C621      1.0  0.65337  0.95189  0.90845  1.0000
  C   C622      1.0  0.58325  0.67961  0.61657  1.0000
  H   H1064     1.0  0.51714  0.75265  0.64700  1.0000
  S   S181      1.0  0.66705  0.67886  0.67986  1.0000
  Fe  Fe90      1.0  0.67124  0.87354  0.82454  1.0000
  S   S182      1.0  0.66839  0.85808  0.77402  1.0000
  S   S183      1.0  0.71536  0.89947  0.84094  1.0000
  Fe  Fe91      1.0  0.59813  0.86197  0.83552  1.0000
  S   S184      1.0  0.59032  0.84690  0.78593  1.0000
  S   S185      1.0  0.56056  0.86478  0.87511  1.0000
  Fe  Fe92      1.0  0.63682  0.82251  0.79212  1.0000
  S   S186      1.0  0.63522  0.77456  0.78301  1.0000
  Fe  Fe93      1.0  0.62231  0.88331  0.77165  1.0000
  S   S187      1.0  0.61086  0.91243  0.73048  1.0000
  S   S188      1.0  0.64327  0.83628  0.84316  1.0000
  S   S189      1.0  0.62633  0.90003  0.82070  1.0000
  C   C623      1.0  0.51836  0.86490  0.86748  1.0000
  H   H1065     1.0  0.62431  0.86520  0.91265  1.0000
  C   C624      1.0  0.74489  0.97050  0.64239  1.0000
  H   H1066     1.0  0.52276  0.87170  0.81740  1.0000
  H   H1067     1.0  0.50290  0.77491  0.84083  1.0000
  C   C625      1.0  0.65702  0.70519  0.70855  1.0000
  C   C626      1.0  0.64137  0.69892  0.73707  1.0000
  C   C627      1.0  0.63479  0.72041  0.75925  1.0000
  C   C628      1.0  0.64349  0.74858  0.75336  1.0000
  C   C629      1.0  0.65872  0.75489  0.72460  1.0000
  C   C630      1.0  0.66554  0.73336  0.70253  1.0000
  H   H1068     1.0  0.63490  0.67744  0.74236  1.0000
  H   H1069     1.0  0.62314  0.71511  0.78138  1.0000
  H   H1070     1.0  0.66572  0.77631  0.71958  1.0000
  H   H1071     1.0  0.67777  0.73859  0.68068  1.0000
  C   C631      1.0  0.62529  0.96213  0.76157  1.0000
  C   C632      1.0  0.61276  0.94942  0.73443  1.0000
  C   C633      1.0  0.60318  0.96647  0.70901  1.0000
  H   H1072     1.0  0.63310  0.94936  0.78117  1.0000
  H   H1073     1.0  0.59329  0.95685  0.68799  1.0000
  C   C634      1.0  0.96799  0.96322  0.63399  1.0000
  C   C635      1.0  0.97372  0.97887  0.57933  1.0000
  H   H1074     1.0  0.60351  0.91663  0.88405  1.0000
  C   C636      1.0  0.76530  0.97895  0.50047  1.0000
  C   C637      1.0  0.54946  0.71874  0.63393  1.0000
  C   C638      1.0  0.77826  0.91157  0.93012  1.0000
  C   C639      1.0  0.77147  0.93406  0.90992  1.0000
  C   C640      1.0  0.75125  0.93014  0.88341  1.0000
  C   C641      1.0  0.73734  0.90382  0.87678  1.0000
  C   C642      1.0  0.74315  0.88158  0.89759  1.0000
  C   C643      1.0  0.76342  0.88549  0.92409  1.0000
  H   H1075     1.0  0.78234  0.95434  0.91435  1.0000
  H   H1076     1.0  0.74693  0.94752  0.86753  1.0000
  H   H1077     1.0  0.73283  0.86116  0.89276  1.0000
  H   H1078     1.0  0.76841  0.86793  0.93953  1.0000
  N   N46       1.0  0.85739  0.90804  0.86436  1.0000
  C   C644      1.0  0.85823  0.93534  0.88242  1.0000
  C   C645      1.0  0.85357  0.88472  0.88821  1.0000
  C   C646      1.0  0.82854  0.90881  0.84237  1.0000
  C   C647      1.0  0.88859  0.90583  0.84598  1.0000
  H   H1079     1.0  0.68444  0.90393  0.91507  1.0000
  C   C648      1.0  0.88096  0.88190  0.91269  1.0000
  C   C649      1.0  0.81349  0.88050  0.83251  1.0000
  C   C650      1.0  0.89448  0.87838  0.82769  1.0000
  C   C651      1.0  0.50620  0.86881  0.83700  1.0000
  H   H1080     1.0  0.88039  0.93683  0.89718  1.0000
  H   H1081     1.0  0.85111  0.86390  0.87692  1.0000
  H   H1082     1.0  0.83057  0.88741  0.90155  1.0000
  H   H1083     1.0  0.80818  0.92057  0.85334  1.0000
  H   H1084     1.0  0.63145  0.68609  0.59684  1.0000
  H   H1085     1.0  0.89001  0.92268  0.82785  1.0000
  H   H1086     1.0  0.91013  0.91018  0.86107  1.0000
  H   H1087     1.0  0.59285  0.90278  0.92123  1.0000
  H   H1088     1.0  0.74495  0.94147  0.71339  1.0000
  C   C652      1.0  0.66368  0.97957  0.64360  1.0000
  H   H1089     1.0  0.90500  0.87903  0.90148  1.0000
  H   H1090     1.0  0.88150  0.89996  0.92909  1.0000
  H   H1091     1.0  0.66655  0.94052  0.85958  1.0000
  H   H1092     1.0  0.79461  0.88438  0.81433  1.0000
  H   H1093     1.0  0.80085  0.87036  0.85272  1.0000
  H   H1094     1.0  0.83134  0.86586  0.82224  1.0000
  H   H1095     1.0  0.88272  0.87910  0.80412  1.0000
  H   H1096     1.0  0.88656  0.85937  0.84048  1.0000
  N   N47       1.0  0.56029  0.68947  0.64206  1.0000
  H   H1097     1.0  0.95326  0.95371  0.65227  1.0000
  H   H1098     1.0  0.73007  0.97883  0.62273  1.0000
  C   C653      1.0  0.57864  0.68937  0.67311  1.0000
  C   C654      1.0  0.71946  0.94291  0.72142  1.0000
  C   C655      1.0  0.65171  0.95616  0.87234  1.0000
  H   H1099     1.0  0.67957  0.95308  0.91449  1.0000
  H   H1100     1.0  0.57118  0.67834  0.59322  1.0000
  H   H1101     1.0  0.83450  0.92047  0.82029  1.0000
  H   H1102     1.0  0.71803  0.95292  0.74502  1.0000
  H   H1103     1.0  0.68810  0.94293  0.96466  1.0000
  H   H1104     1.0  0.95242  0.96145  0.84293  1.0000
  H   H1105     1.0  0.59099  0.70984  0.67724  1.0000
  H   H1106     1.0  0.65755  0.89937  0.88320  1.0000
  C   C656      1.0  0.76807  0.95424  0.52409  1.0000
  C   C657      1.0  0.55946  0.68216  0.70343  1.0000
  H   H1107     1.0  0.67276  0.95796  0.70735  1.0000
  C   C658      1.0  0.85736  0.96242  0.86229  1.0000
  C   C659      1.0  0.53223  0.66905  0.64300  1.0000
  H   H1108     1.0  0.59869  0.67383  0.67266  1.0000
  H   H1109     1.0  0.62663  0.95591  0.86308  1.0000
  H   H1110     1.0  0.92098  0.87554  0.82432  1.0000
  H   H1111     1.0  0.50568  0.85831  0.91635  1.0000
  H   H1112     1.0  0.87621  0.86309  0.92753  1.0000
  H   H1113     1.0  0.68466  0.90531  0.96895  1.0000
  H   H1114     1.0  0.57037  0.73353  0.63415  1.0000
  H   H1115     1.0  0.53387  0.73479  0.68013  1.0000
  H   H1116     1.0  0.64222  0.97059  0.91980  1.0000
  H   H1117     1.0  0.74788  0.93905  0.52382  1.0000
  H   H1118     1.0  0.62378  0.90896  0.96679  1.0000
  H   H1119     1.0  0.53751  0.69510  0.70658  1.0000
  H   H1120     1.0  0.60762  0.71732  0.59798  1.0000
  H   H1121     1.0  0.73969  0.94797  0.64634  1.0000
  C   C660      1.0  0.65848  0.90078  0.90935  1.0000
  H   H1122     1.0  0.62592  0.70380  0.63357  1.0000
  H   H1123     1.0  0.64888  0.87007  0.94774  1.0000
  H   H1124     1.0  0.66603  0.85586  0.91260  1.0000
  N   N48       1.0  0.63860  0.92511  0.92100  1.0000
  H   H1125     1.0  0.53984  0.71951  0.60941  1.0000
  C   C661      1.0  0.64845  0.87155  0.92166  1.0000
  C   C662      1.0  0.61366  0.69798  0.61129  1.0000
  H   H1126     1.0  0.57787  0.94999  0.94168  1.0000
  H   H1127     1.0  0.55688  0.94070  0.90637  1.0000
  H   H1128     1.0  0.57515  0.68585  0.72429  1.0000
  C   C663      1.0  0.60424  0.92136  0.90976  1.0000
  S   S190      1.0  0.80657  0.91430  0.96180  1.0000
  C   C664      1.0  0.69760  0.95776  0.69710  1.0000
  H   H1129     1.0  0.69607  0.94357  0.67642  1.0000
  H   H1130     1.0  0.71049  0.92109  0.72469  1.0000
  H   H1131     1.0  0.83500  0.96419  0.84798  1.0000
  H   H1132     1.0  0.66210  0.97702  0.86639  1.0000
  C   C665      1.0  0.96994  0.97612  0.85228  1.0000
  H   H1133     1.0  0.59169  0.65790  0.62177  1.0000
  Fe  Fe94      1.0  0.84133  0.95024  0.97473  1.0000
  H   H1134     1.0  0.70366  0.96281  0.52406  1.0000
  C   C666      1.0  0.95475  0.96729  0.60351  1.0000
  C   C667      1.0  0.63851  0.92635  0.95660  1.0000
  C   C668      1.0  0.51007  0.66844  0.61363  1.0000
  H   H1135     1.0  0.55271  0.65959  0.70384  1.0000
  H   H1136     1.0  0.77188  0.96211  0.54847  1.0000
  H   H1137     1.0  0.51567  0.67333  0.66304  1.0000
  H   H1138     1.0  0.50147  0.71892  0.65726  1.0000
  H   H1139     1.0  0.67977  0.96613  0.62932  1.0000
  H   H1140     1.0  0.77059  0.97205  0.63469  1.0000
  C   C669      1.0  0.52396  0.73162  0.65610  1.0000
  H   H1141     1.0  0.79026  0.94206  0.51845  1.0000
  S   S191      1.0  0.92865  0.97879  0.90366  1.0000
  H   H1142     1.0  0.64664  0.96599  0.65698  1.0000
  H   H1143     1.0  0.52284  0.66134  0.59208  1.0000
  H   H1144     1.0  0.58903  0.96563  0.90410  1.0000
  C   C670      1.0  0.58112  0.94611  0.91607  1.0000
  H   H1145     1.0  0.50048  0.80997  0.82723  1.0000
  H   H1146     1.0  0.87907  0.96457  0.84703  1.0000
  H   H1147     1.0  0.75928  0.98150  0.68964  1.0000
  S   S192      1.0  0.89525  0.94286  0.97740  1.0000
  H   H1148     1.0  0.62661  0.94592  0.96493  1.0000
  H   H1149     1.0  0.78101  0.97396  0.47979  1.0000
  C   C671      1.0  0.67212  0.92560  0.97263  1.0000
  H   H1150     1.0  0.69905  0.93263  0.48523  1.0000
  H   H1151     1.0  0.49814  0.68885  0.60923  1.0000
  Fe  Fe95      1.0  0.90030  0.98364  0.95064  1.0000
  H   H1152     1.0  0.85768  0.98081  0.87834  1.0000
  Fe  Fe96      1.0  0.91244  0.98334  0.50972  1.0000
  C   C672      1.0  0.99765  0.98302  0.83411  1.0000
