data_image0
_chemical_formula_structural       HCSH6CNH2CH2FeH2CHCHFeH3C2H2CHCH3CHCHSH3CHCHCH2SH2FeS2FeSHFeSFeS3HSFeS2CH3C6H3SC2H2C3H2C6H4FeCSH2CH2NC7H8C2H6FeC2H7NCHC2H2CH4C2H2CH2CHC2HS2H2C2NH2CHFeHCH2C2HSC2SH2CHFeS2FeSCFeS2FeSFeS3CHC4HCHC8H6C6H4SC4H4CHCH3C2H6CHCH3C2HCHCHCH6CHCSHNCFeHC4H2SC3H2SH6CHNHCHNC2H3CNHCH4CH4CH4CNC3HFeH5S3HCH4SHCHCHC2H2NSH2CHCH3CH7CH4C2H3C4H2SHC3HC2H2FeH2CH5CH2SCH4FeHSHSHSCSHSFeCFeHCHCHFeH3SH2S2CH2FeH4CHCH2C2H2NCH2C3H8C2HCH6FeCSCHCH3CH3SCH3CHCNCH2CSC2NH4CHCHCH8C2H2C2H2FeH4CSH5SHCH2C2HFeHC2H4FeCSHCH4CH4CHCHCHC2SC2SHNH7C2H4FeHCHSH2FeH3CSFeSFeSH3C7H4C2HCH2SCHSCH3CH6CHCFeCHNH4SHSHFeH3CH4C3HSFeS2FeS2FeSFeCS3H3SH2NC3HCH2C6H4C6H5C2HCH5CH2C5NC2HCNC2H3CH2C5H2C2H2CH2C2SH2CHCH3CFeC2H7CH2CSH13CHCHCNH5NCH7CHCH4FeCH8CH3CHFeS2FeS2FeHFeS3H4SH2C6H4C3HC2HCFeHCHC7H5SC2SHC2H2C3H2NH5CH3SC2H2C2H5CH3CH2CHCNHC2NH2SH3CSHCH2CH2CH5FeHS2FeS2FeHS2HC6H4C2H4NC4SC2H10FeCH6SH3CH3CH
_chemical_formula_sum              "H576 C336 S96 N24 Fe48"
_cell_length_a       46.8186
_cell_length_b       37.9155
_cell_length_c       30.1687
_cell_angle_alpha    89.828
_cell_angle_beta     104.092
_cell_angle_gamma    89.8262

_space_group_name_H-M_alt    "P 1"
_space_group_IT_number       1

loop_
  _space_group_symop_operation_xyz
  'x, y, z'

loop_
  _atom_site_type_symbol
  _atom_site_label
  _atom_site_symmetry_multiplicity
  _atom_site_fract_x
  _atom_site_fract_y
  _atom_site_fract_z
  _atom_site_occupancy
  H   H1        1.0  0.24001  0.12180  0.42215  1.0000
  C   C1        1.0  0.26909  0.00132  0.21679  1.0000
  S   S1        1.0  0.12516  0.02214  0.06709  1.0000
  H   H2        1.0  0.24749  0.06329  0.26754  1.0000
  H   H3        1.0  0.30915  0.18758  0.99328  1.0000
  H   H4        1.0  0.23309  0.00970  0.15711  1.0000
  H   H5        1.0  0.22540  0.07745  0.42275  1.0000
  H   H6        1.0  0.30144  0.14695  0.32013  1.0000
  H   H7        1.0  0.28595  0.00775  0.19915  1.0000
  C   C2        1.0  0.27042  0.07899  0.41243  1.0000
  N   N1        1.0  0.26772  0.08570  0.36209  1.0000
  H   H8        1.0  0.03558  0.44102  0.46111  1.0000
  H   H9        1.0  0.23800  0.04157  0.34348  1.0000
  C   C3        1.0  0.26881  0.12499  0.35425  1.0000
  H   H10       1.0  0.29852  0.47105  0.12964  1.0000
  H   H11       1.0  0.29054  0.03721  0.35532  1.0000
  Fe  Fe1       1.0  0.14707  0.00546  0.01125  1.0000
  H   H12       1.0  0.27193  0.05014  0.42016  1.0000
  H   H13       1.0  0.22000  0.08246  0.34711  1.0000
  C   C4        1.0  0.23877  0.07037  0.33611  1.0000
  H   H14       1.0  0.29167  0.06769  0.31244  1.0000
  C   C5        1.0  0.21724  0.99518  0.21587  1.0000
  H   H15       1.0  0.13682  0.14256  0.45812  1.0000
  Fe  Fe2       1.0  0.15964  0.98893  0.11414  1.0000
  H   H16       1.0  0.26773  0.48545  0.31533  1.0000
  H   H17       1.0  0.26478  0.16061  0.29608  1.0000
  H   H18       1.0  0.20990  0.06090  0.26920  1.0000
  C   C6        1.0  0.29255  0.06594  0.34937  1.0000
  C   C7        1.0  0.24545  0.09403  0.43225  1.0000
  H   H19       1.0  0.14946  0.20680  0.46891  1.0000
  H   H20       1.0  0.22678  0.10300  0.27368  1.0000
  C   C8        1.0  0.27721  0.99247  0.26346  1.0000
  H   H21       1.0  0.24697  0.13720  0.35304  1.0000
  C   C9        1.0  0.23088  0.07496  0.28379  1.0000
  H   H22       1.0  0.28454  0.13750  0.38373  1.0000
  H   H23       1.0  0.28017  0.45151  0.16897  1.0000
  H   H24       1.0  0.25262  0.09354  0.47014  1.0000
  C   C10       1.0  0.01619  0.45197  0.46947  1.0000
  H   H25       1.0  0.26017  0.47845  0.12155  1.0000
  C   C11       1.0  0.28103  0.47547  0.14825  1.0000
  H   H26       1.0  0.26505  0.46506  0.23127  1.0000
  S   S2        1.0  0.17943  0.00000  0.18935  1.0000
  H   H27       1.0  0.27582  0.11786  0.28326  1.0000
  H   H28       1.0  0.29116  0.09043  0.43359  1.0000
  H   H29       1.0  0.98614  0.43172  0.40891  1.0000
  C   C12       1.0  0.27834  0.13740  0.31098  1.0000
  H   H30       1.0  0.23300  0.48555  0.27335  1.0000
  C   C13       1.0  0.23919  0.00235  0.19288  1.0000
  H   H31       1.0  0.15284  0.10232  0.48373  1.0000
  C   C14       1.0  0.98811  0.44670  0.43998  1.0000
  H   H32       1.0  0.29571  0.48764  0.26255  1.0000
  H   H33       1.0  0.18898  0.14997  0.48412  1.0000
  S   S3        1.0  0.31472  0.99367  0.29349  1.0000
  H   H34       1.0  0.09274  0.47784  0.38359  1.0000
  H   H35       1.0  0.98930  0.06938  0.02455  1.0000
  Fe  Fe3       1.0  0.24460  0.14454  0.67771  1.0000
  S   S4        1.0  0.20203  0.14328  0.70029  1.0000
  S   S5        1.0  0.24159  0.10933  0.61474  1.0000
  Fe  Fe4       1.0  0.27044  0.19903  0.75296  1.0000
  S   S6        1.0  0.22982  0.20051  0.77951  1.0000
  H   H36       1.0  0.14692  0.13852  0.58666  1.0000
  Fe  Fe5       1.0  0.22963  0.14121  0.77263  1.0000
  S   S7        1.0  0.23011  0.09921  0.82801  1.0000
  Fe  Fe6       1.0  0.20636  0.20256  0.70489  1.0000
  S   S8        1.0  0.16959  0.24248  0.67892  1.0000
  S   S9        1.0  0.27220  0.13964  0.74987  1.0000
  S   S10       1.0  0.24702  0.20400  0.67863  1.0000
  H   H37       1.0  0.28354  0.41538  0.77247  1.0000
  S   S11       1.0  0.30562  0.35071  0.93294  1.0000
  Fe  Fe7       1.0  0.15623  0.42422  0.54802  1.0000
  S   S12       1.0  0.13138  0.43536  0.60118  1.0000
  S   S13       1.0  0.17601  0.36976  0.54267  1.0000
  C   C15       1.0  0.28324  0.29589  0.87661  1.0000
  H   H38       1.0  0.27355  0.02310  0.51484  1.0000
  H   H39       1.0  0.28788  0.19506  0.86195  1.0000
  H   H40       1.0  0.19094  0.13077  0.53843  1.0000
  C   C16       1.0  0.17138  0.06263  0.92276  1.0000
  C   C17       1.0  0.16285  0.09166  0.89311  1.0000
  C   C18       1.0  0.18033  0.10318  0.86373  1.0000
  C   C19       1.0  0.20673  0.08582  0.86370  1.0000
  C   C20       1.0  0.21545  0.05706  0.89370  1.0000
  C   C21       1.0  0.19791  0.04545  0.92295  1.0000
  H   H41       1.0  0.14240  0.10519  0.89265  1.0000
  H   H42       1.0  0.17326  0.12533  0.84101  1.0000
  H   H43       1.0  0.23582  0.04339  0.89405  1.0000
  S   S14       1.0  0.30933  0.23454  0.78277  1.0000
  C   C22       1.0  0.26856  0.08929  0.59013  1.0000
  C   C23       1.0  0.29721  0.10237  0.59719  1.0000
  H   H44       1.0  0.25846  0.28919  0.69710  1.0000
  H   H45       1.0  0.26157  0.21956  0.90947  1.0000
  C   C24       1.0  0.28030  0.04515  0.53761  1.0000
  C   C25       1.0  0.26025  0.06067  0.56010  1.0000
  C   C26       1.0  0.30589  0.32085  0.88820  1.0000
  H   H46       1.0  0.26327  0.11969  0.91611  1.0000
  H   H47       1.0  0.23814  0.05032  0.55432  1.0000
  C   C27       1.0  0.17474  0.33561  0.58252  1.0000
  C   C28       1.0  0.19670  0.30937  0.59084  1.0000
  C   C29       1.0  0.19590  0.28127  0.62120  1.0000
  C   C30       1.0  0.17256  0.27848  0.64254  1.0000
  C   C31       1.0  0.15060  0.30469  0.63416  1.0000
  C   C32       1.0  0.15184  0.33332  0.60475  1.0000
  H   H48       1.0  0.21450  0.31092  0.57381  1.0000
  H   H49       1.0  0.21308  0.26155  0.62745  1.0000
  H   H50       1.0  0.13247  0.30286  0.65048  1.0000
  H   H51       1.0  0.13464  0.35313  0.59840  1.0000
  Fe  Fe8       1.0  0.31390  0.47707  0.98026  1.0000
  C   C33       1.0  0.28357  0.27009  0.84336  1.0000
  S   S15       1.0  0.18856  0.46896  0.56818  1.0000
  H   H52       1.0  0.20484  0.02314  0.94547  1.0000
  H   H53       1.0  0.19891  0.42729  0.66155  1.0000
  C   C34       1.0  0.17745  0.14896  0.51237  1.0000
  H   H54       1.0  0.30995  0.12057  0.86023  1.0000
  H   H55       1.0  0.21390  0.38981  0.64052  1.0000
  N   N2        1.0  0.24022  0.36156  0.73170  1.0000
  C   C35       1.0  0.22874  0.39783  0.71548  1.0000
  C   C36       1.0  0.26010  0.36567  0.77896  1.0000
  C   C37       1.0  0.21398  0.33897  0.73362  1.0000
  C   C38       1.0  0.25611  0.34713  0.69774  1.0000
  C   C39       1.0  0.28832  0.38740  0.78213  1.0000
  C   C40       1.0  0.21963  0.30584  0.76439  1.0000
  C   C41       1.0  0.27291  0.31204  0.70980  1.0000
  H   H56       1.0  0.21874  0.41067  0.74130  1.0000
  H   H57       1.0  0.24684  0.41548  0.71129  1.0000
  H   H58       1.0  0.26759  0.33993  0.79505  1.0000
  H   H59       1.0  0.24778  0.37801  0.80227  1.0000
  H   H60       1.0  0.19729  0.35466  0.74601  1.0000
  H   H61       1.0  0.20257  0.33004  0.69883  1.0000
  H   H62       1.0  0.24033  0.34235  0.66430  1.0000
  H   H63       1.0  0.27158  0.36688  0.68932  1.0000
  C   C42       1.0  0.28851  0.16838  0.87754  1.0000
  C   C43       1.0  0.01903  0.47128  0.50972  1.0000
  H   H64       1.0  0.12839  0.18127  0.57803  1.0000
  H   H65       1.0  0.26903  0.15536  0.85555  1.0000
  H   H66       1.0  0.22546  0.31296  0.80115  1.0000
  H   H67       1.0  0.23658  0.28811  0.75690  1.0000
  H   H68       1.0  0.22296  0.15688  0.92427  1.0000
  H   H69       1.0  0.28290  0.30865  0.74656  1.0000
  Fe  Fe9       1.0  0.10238  0.47036  0.54819  1.0000
  C   C44       1.0  0.30878  0.05865  0.54409  1.0000
  C   C45       1.0  0.99345  0.48501  0.52014  1.0000
  H   H70       1.0  0.30133  0.38742  0.81827  1.0000
  H   H71       1.0  0.00621  0.37576  0.55172  1.0000
  H   H72       1.0  0.26589  0.25132  0.83475  1.0000
  H   H73       1.0  0.18492  0.38514  0.67071  1.0000
  H   H74       1.0  0.29182  0.31132  0.69362  1.0000
  H   H75       1.0  0.26540  0.29645  0.89363  1.0000
  H   H76       1.0  0.25044  0.20529  0.54140  1.0000
  N   N3        1.0  0.17578  0.18532  0.53232  1.0000
  C   C46       1.0  0.20258  0.20585  0.52787  1.0000
  H   H77       1.0  0.23707  0.18352  0.58445  1.0000
  C   C47       1.0  0.17635  0.18283  0.58242  1.0000
  C   C48       1.0  0.23270  0.18778  0.54715  1.0000
  H   H78       1.0  0.15125  0.16960  0.63181  1.0000
  H   H79       1.0  0.17975  0.20929  0.59836  1.0000
  C   C49       1.0  0.25983  0.19406  0.92701  1.0000
  H   H80       1.0  0.20385  0.23165  0.54574  1.0000
  H   H81       1.0  0.22663  0.17118  0.86886  1.0000
  H   H82       1.0  0.19895  0.29032  0.75854  1.0000
  H   H83       1.0  0.19536  0.16667  0.60107  1.0000
  C   C50       1.0  0.31249  0.18584  0.95799  1.0000
  C   C51       1.0  0.30707  0.26824  0.82238  1.0000
  H   H84       1.0  0.30465  0.24311  0.94657  1.0000
  H   H85       1.0  0.99587  0.41647  0.57273  1.0000
  C   C52       1.0  0.22889  0.17938  0.90468  1.0000
  H   H86       1.0  0.23500  0.16231  0.53036  1.0000
  H   H87       1.0  0.30254  0.37567  0.76151  1.0000
  C   C53       1.0  0.14487  0.24296  0.52184  1.0000
  H   H88       1.0  0.16252  0.26104  0.51733  1.0000
  C   C54       1.0  0.30548  0.10915  0.96133  1.0000
  C   C55       1.0  0.31537  0.14870  0.86843  1.0000
  H   H89       1.0  0.25663  0.47407  0.83328  1.0000
  S   S16       1.0  0.29108  0.44801  0.91662  1.0000
  S   S17       1.0  0.14809  0.04941  0.95874  1.0000
  H   H90       1.0  0.21219  0.20033  0.90421  1.0000
  H   H91       1.0  0.26825  0.13691  0.97208  1.0000
  C   C56       1.0  0.20535  0.39940  0.66948  1.0000
  C   C57       1.0  0.14893  0.16703  0.59445  1.0000
  N   N4        1.0  0.28563  0.17014  0.92620  1.0000
  H   H92       1.0  0.13280  0.12949  0.51379  1.0000
  H   H93       1.0  0.25963  0.20101  0.96282  1.0000
  C   C58       1.0  0.27919  0.13421  0.94328  1.0000
  H   H94       1.0  0.30389  0.12452  0.61983  1.0000
  Fe  Fe10      1.0  0.16207  0.48139  0.61893  1.0000
  H   H95       1.0  0.14305  0.24357  0.55779  1.0000
  C   C59       1.0  0.25194  0.48078  0.79751  1.0000
  H   H96       1.0  0.12832  0.19099  0.50589  1.0000
  H   H97       1.0  0.20519  0.47263  0.78696  1.0000
  C   C60       1.0  0.22273  0.48008  0.77118  1.0000
  C   C61       1.0  0.98709  0.39325  0.55147  1.0000
  H   H98       1.0  0.29682  0.08306  0.96863  1.0000
  S   S18       1.0  0.05379  0.48046  0.54731  1.0000
  C   C62       1.0  0.14900  0.20509  0.50562  1.0000
  C   C63       1.0  0.31707  0.08732  0.57400  1.0000
  S   S19       1.0  0.12490  0.45589  0.49249  1.0000
  H   H99       1.0  0.12391  0.25398  0.50075  1.0000
  H   H100      1.0  0.20127  0.21219  0.49132  1.0000
  C   C64       1.0  0.14811  0.13013  0.49115  1.0000
  H   H101      1.0  0.23720  0.82767  0.37181  1.0000
  Fe  Fe11      1.0  0.15275  0.92895  0.04674  1.0000
  S   S20       1.0  0.13087  0.94107  0.10282  1.0000
  S   S21       1.0  0.17077  0.87360  0.04098  1.0000
  Fe  Fe12      1.0  0.26016  0.70372  0.27342  1.0000
  S   S22       1.0  0.21351  0.69609  0.27816  1.0000
  C   C65       1.0  0.31172  0.82679  0.39031  1.0000
  Fe  Fe13      1.0  0.25256  0.65651  0.18808  1.0000
  S   S23       1.0  0.20473  0.64672  0.18579  1.0000
  S   S24       1.0  0.28269  0.63553  0.14430  1.0000
  Fe  Fe14      1.0  0.20288  0.70499  0.20178  1.0000
  S   S25       1.0  0.16612  0.74479  0.17533  1.0000
  Fe  Fe15      1.0  0.21946  0.63885  0.26255  1.0000
  S   S26       1.0  0.20923  0.58746  0.29650  1.0000
  S   S27       1.0  0.24941  0.71529  0.19834  1.0000
  S   S28       1.0  0.26728  0.64600  0.26356  1.0000
  C   C66       1.0  0.23674  0.51749  0.17783  1.0000
  H   H102      1.0  0.24290  0.77298  0.32925  1.0000
  C   C67       1.0  0.28113  0.59894  0.10702  1.0000
  C   C68       1.0  0.25554  0.57906  0.09152  1.0000
  C   C69       1.0  0.25587  0.54925  0.06369  1.0000
  C   C70       1.0  0.28167  0.53904  0.05086  1.0000
  H   H103      1.0  0.10857  0.82300  0.01637  1.0000
  C   C71       1.0  0.08024  0.55148  0.47082  1.0000
  H   H104      1.0  0.23562  0.58654  0.10130  1.0000
  C   C72       1.0  0.25520  0.49772  0.28289  1.0000
  C   C73       1.0  0.23556  0.89666  0.13950  1.0000
  C   C74       1.0  0.19654  0.57795  0.34655  1.0000
  C   C75       1.0  0.19448  0.54248  0.35953  1.0000
  C   C76       1.0  0.18471  0.53348  0.39892  1.0000
  C   C77       1.0  0.17686  0.55993  0.42604  1.0000
  C   C78       1.0  0.17882  0.59542  0.41296  1.0000
  C   C79       1.0  0.18854  0.60440  0.37353  1.0000
  H   H105      1.0  0.20049  0.52174  0.33895  1.0000
  H   H106      1.0  0.18332  0.50610  0.40833  1.0000
  H   H107      1.0  0.18793  0.88542  0.27541  1.0000
  H   H108      1.0  0.18960  0.63174  0.36382  1.0000
  H   H109      1.0  0.29027  0.53094  0.15418  1.0000
  H   H110      1.0  0.04457  0.50753  0.37388  1.0000
  C   C80       1.0  0.17105  0.83917  0.08111  1.0000
  C   C81       1.0  0.18828  0.80890  0.08002  1.0000
  C   C82       1.0  0.18799  0.78034  0.10999  1.0000
  C   C83       1.0  0.16983  0.78145  0.14058  1.0000
  C   C84       1.0  0.15287  0.81187  0.14200  1.0000
  C   C85       1.0  0.15376  0.84074  0.11288  1.0000
  H   H111      1.0  0.20178  0.80740  0.05563  1.0000
  H   H112      1.0  0.20108  0.75702  0.10840  1.0000
  H   H113      1.0  0.13880  0.81300  0.16560  1.0000
  H   H114      1.0  0.14077  0.86396  0.11468  1.0000
  S   S29       1.0  0.27930  0.87636  0.42406  1.0000
  C   C86       1.0  0.28374  0.83838  0.39249  1.0000
  C   C87       1.0  0.29027  0.77550  0.34581  1.0000
  C   C88       1.0  0.26213  0.78779  0.34631  1.0000
  C   C89       1.0  0.25893  0.81878  0.37036  1.0000
  H   H115      1.0  0.17265  0.61612  0.43344  1.0000
  H   H116      1.0  0.10297  0.87821  0.04711  1.0000
  H   H117      1.0  0.09033  0.87741  0.11494  1.0000
  H   H118      1.0  0.09880  0.77149  0.05701  1.0000
  C   C90       1.0  0.27200  0.49158  0.24543  1.0000
  H   H119      1.0  0.05552  0.89659  0.09091  1.0000
  C   C91       1.0  0.09043  0.59309  0.39485  1.0000
  H   H120      1.0  0.26076  0.56501  0.24594  1.0000
  H   H121      1.0  0.23526  0.65645  0.45545  1.0000
  H   H122      1.0  0.23608  0.53375  0.05245  1.0000
  C   C92       1.0  0.02774  0.54854  0.43569  1.0000
  C   C93       1.0  0.07023  0.87444  0.08677  1.0000
  H   H123      1.0  0.21828  0.82608  0.23303  1.0000
  H   H124      1.0  0.27099  0.89228  0.19917  1.0000
  H   H125      1.0  0.06216  0.78480  0.05572  1.0000
  H   H126      1.0  0.19961  0.92271  0.21187  1.0000
  H   H127      1.0  0.10295  0.55291  0.46632  1.0000
  H   H128      1.0  0.05977  0.84960  0.09322  1.0000
  C   C94       1.0  0.25522  0.98412  0.28580  1.0000
  H   H129      1.0  0.28430  0.89125  0.32435  1.0000
  C   C95       1.0  0.07854  0.87747  0.04016  1.0000
  H   H130      1.0  0.00212  0.55542  0.36404  1.0000
  H   H131      1.0  0.27893  0.61287  0.37584  1.0000
  H   H132      1.0  0.26771  0.81101  0.25087  1.0000
  C   C96       1.0  0.08488  0.81676  0.01295  1.0000
  C   C97       1.0  0.27554  0.55526  0.22500  1.0000
  H   H133      1.0  0.27642  0.83659  0.20522  1.0000
  C   C98       1.0  0.22278  0.73402  0.41073  1.0000
  H   H134      1.0  0.09176  0.52123  0.36071  1.0000
  C   C99       1.0  0.30731  0.56036  0.25390  1.0000
  H   H135      1.0  0.28939  0.86454  0.27847  1.0000
  C   C100      1.0  0.00141  0.54021  0.39519  1.0000
  H   H136      1.0  0.29494  0.73240  0.42223  1.0000
  H   H137      1.0  0.11077  0.51212  0.41973  1.0000
  H   H138      1.0  0.04559  0.60023  0.39724  1.0000
  H   H139      1.0  0.21137  0.53210  0.22849  1.0000
  H   H140      1.0  0.27207  0.57420  0.19587  1.0000
  H   H141      1.0  0.20635  0.74308  0.37960  1.0000
  C   C101      1.0  0.28813  0.71933  0.45113  1.0000
  H   H142      1.0  0.25079  0.91059  0.12237  1.0000
  C   C102      1.0  0.24418  0.88586  0.27081  1.0000
  S   S30       1.0  0.29540  0.97447  0.41122  1.0000
  H   H143      1.0  0.07131  0.90428  0.02672  1.0000
  N   N5        1.0  0.05786  0.54795  0.42575  1.0000
  C   C103      1.0  0.30668  0.58924  0.09317  1.0000
  Fe  Fe16      1.0  0.09807  0.97285  0.05072  1.0000
  H   H144      1.0  0.19128  0.53396  0.17039  1.0000
  C   C104      1.0  0.28268  0.66332  0.41105  1.0000
  C   C105      1.0  0.19972  0.89341  0.20919  1.0000
  C   C106      1.0  0.28865  0.50891  0.17789  1.0000
  C   C107      1.0  0.26416  0.63213  0.38693  1.0000
  H   H145      1.0  0.09877  0.60852  0.42650  1.0000
  H   H146      1.0  0.29264  0.67636  0.38523  1.0000
  S   S31       1.0  0.29590  0.73402  0.32261  1.0000
  C   C108      1.0  0.21315  0.53911  0.19376  1.0000
  C   C109      1.0  0.08434  0.79496  0.05589  1.0000
  C   C110      1.0  0.24140  0.70438  0.39694  1.0000
  H   H147      1.0  0.08882  0.61165  0.36577  1.0000
  H   H148      1.0  0.10721  0.57313  0.39237  1.0000
  S   S32       1.0  0.28114  0.49993  0.01827  1.0000
  H   H149      1.0  0.03148  0.82854  0.03339  1.0000
  H   H150      1.0  0.17561  0.85050  0.23410  1.0000
  H   H151      1.0  0.20856  0.98033  0.28028  1.0000
  H   H152      1.0  0.24970  0.71452  0.36779  1.0000
  H   H153      1.0  0.24801  0.64070  0.35541  1.0000
  H   H154      1.0  0.22536  0.68327  0.38287  1.0000
  C   C111      1.0  0.30700  0.55950  0.06526  1.0000
  H   H155      1.0  0.09378  0.80968  0.08762  1.0000
  N   N6        1.0  0.26668  0.68998  0.43350  1.0000
  H   H156      1.0  0.20996  0.72431  0.43467  1.0000
  C   C112      1.0  0.25924  0.82089  0.21536  1.0000
  H   H157      1.0  0.05040  0.56864  0.35678  1.0000
  N   N7        1.0  0.06638  0.84993  0.00458  1.0000
  C   C113      1.0  0.05962  0.57741  0.39261  1.0000
  C   C114      1.0  0.17949  0.87924  0.23865  1.0000
  H   H158      1.0  0.25277  0.61780  0.40969  1.0000
  H   H159      1.0  0.18825  0.88751  0.17324  1.0000
  H   H160      1.0  0.25575  0.79791  0.19189  1.0000
  C   C115      1.0  0.22970  0.84046  0.21020  1.0000
  N   N8        1.0  0.26786  0.51843  0.20739  1.0000
  H   H161      1.0  0.21570  0.83496  0.17553  1.0000
  C   C116      1.0  0.98957  0.96455  0.02987  1.0000
  H   H162      1.0  0.01977  0.89412  0.01717  1.0000
  H   H163      1.0  0.21703  0.56787  0.19181  1.0000
  H   H164      1.0  0.23720  0.86511  0.29211  1.0000
  H   H165      1.0  0.30136  0.65113  0.43650  1.0000
  C   C117      1.0  0.27803  0.88835  0.28662  1.0000
  H   H166      1.0  0.23587  0.75758  0.42444  1.0000
  H   H167      1.0  0.15763  0.89232  0.22735  1.0000
  H   H168      1.0  0.31244  0.54285  0.28430  1.0000
  H   H169      1.0  0.27210  0.65158  0.48803  1.0000
  C   C118      1.0  0.09112  0.50617  0.39203  1.0000
  H   H170      1.0  0.24759  0.92831  0.20036  1.0000
  H   H171      1.0  0.23610  0.52774  0.14302  1.0000
  H   H172      1.0  0.23433  0.86891  0.12775  1.0000
  H   H173      1.0  0.23592  0.91120  0.28170  1.0000
  C   C119      1.0  0.01561  0.96774  0.01467  1.0000
  N   N9        1.0  0.23092  0.87938  0.22056  1.0000
  C   C120      1.0  0.31497  0.79524  0.36765  1.0000
  C   C121      1.0  0.06189  0.51240  0.40567  1.0000
  C   C122      1.0  0.24743  0.89978  0.19175  1.0000
  H   H174      1.0  0.21381  0.90971  0.12732  1.0000
  Fe  Fe17      1.0  0.31328  0.91978  0.43011  1.0000
  H   H175      1.0  0.02294  0.57488  0.44846  1.0000
  H   H176      1.0  0.02684  0.52971  0.46364  1.0000
  H   H177      1.0  0.28650  0.91221  0.27270  1.0000
  H   H178      1.0  0.25300  0.52571  0.29159  1.0000
  H   H179      1.0  0.07019  0.60781  0.47982  1.0000
  S   S33       1.0  0.16430  0.55052  0.47621  1.0000
  S   S34       1.0  0.18356  0.97558  0.06022  1.0000
  S   S35       1.0  0.04998  0.96951  0.05600  1.0000
  H   H180      1.0  0.22863  0.48985  0.17286  1.0000
  C   C123      1.0  0.25567  0.67162  0.47060  1.0000
  H   H181      1.0  0.99092  0.96365  0.06618  1.0000
  H   H182      1.0  0.27816  0.74088  0.46696  1.0000
  H   H183      1.0  0.05956  0.49098  0.42998  1.0000
  H   H184      1.0  1.00000  0.51154  0.38760  1.0000
  S   S36       1.0  0.11802  0.95735  0.99285  1.0000
  H   H185      1.0  0.26104  0.97673  0.32137  1.0000
  C   C124      1.0  0.03457  0.84116  0.00183  1.0000
  H   H186      1.0  0.31147  0.50483  0.19902  1.0000
  C   C125      1.0  0.22542  0.98595  0.26231  1.0000
  H   H187      1.0  0.30987  0.58790  0.26658  1.0000
  C   C126      1.0  0.31661  0.70824  0.48615  1.0000
  C   C127      1.0  0.01299  0.87269  0.99202  1.0000
  H   H188      1.0  0.99084  0.86390  0.99463  1.0000
  H   H189      1.0  0.23590  0.65721  0.89371  1.0000
  N   N10       1.0  0.23544  0.56577  0.88627  1.0000
  S   S37       1.0  0.13146  0.51741  0.57039  1.0000
  H   H190      1.0  0.21864  0.59690  0.79510  1.0000
  H   H191      1.0  0.26912  0.58108  0.85095  1.0000
  C   C128      1.0  0.23418  0.53967  0.92370  1.0000
  H   H192      1.0  0.24739  0.54916  0.95722  1.0000
  C   C129      1.0  0.26796  0.50013  0.73114  1.0000
  H   H193      1.0  0.10826  0.84275  0.94390  1.0000
  H   H194      1.0  0.22914  0.68504  0.51835  1.0000
  H   H195      1.0  0.27218  0.53748  0.87121  1.0000
  C   C130      1.0  0.26649  0.56473  0.88014  1.0000
  H   H196      1.0  0.28537  0.50840  0.71557  1.0000
  H   H197      1.0  0.19976  0.55874  0.76918  1.0000
  H   H198      1.0  0.18886  0.51865  0.90106  1.0000
  H   H199      1.0  0.28693  0.60388  0.93255  1.0000
  H   H200      1.0  0.23879  0.60729  0.93714  1.0000
  H   H201      1.0  0.31226  0.69124  0.51366  1.0000
  H   H202      1.0  0.11386  0.88224  0.97816  1.0000
  C   C131      1.0  0.01352  0.96864  0.96763  1.0000
  H   H203      1.0  0.20346  0.60171  0.90237  1.0000
  H   H204      1.0  0.23862  0.55687  0.78946  1.0000
  H   H205      1.0  0.19090  0.56081  0.84404  1.0000
  H   H206      1.0  0.26722  0.69244  0.54065  1.0000
  C   C132      1.0  0.21838  0.56787  0.79716  1.0000
  C   C133      1.0  0.23872  0.49873  0.70449  1.0000
  H   H207      1.0  0.24408  0.51383  0.91767  1.0000
  H   H208      1.0  0.05707  0.89093  0.95229  1.0000
  H   H209      1.0  0.21430  0.52463  0.84040  1.0000
  C   C134      1.0  0.21388  0.55390  0.84309  1.0000
  C   C135      1.0  0.23068  0.63359  0.87150  1.0000
  C   C136      1.0  0.22701  0.60148  0.90112  1.0000
  C   C137      1.0  0.24924  0.69500  0.50908  1.0000
  H   H210      1.0  0.19244  0.55554  0.94042  1.0000
  H   H211      1.0  0.24914  0.63128  0.85484  1.0000
  S   S38       1.0  0.31113  0.49624  0.81138  1.0000
  H   H212      1.0  0.31216  0.57671  0.91227  1.0000
  C   C138      1.0  0.21592  0.48944  0.72478  1.0000
  C   C139      1.0  0.27464  0.49157  0.77789  1.0000
  C   C140      1.0  0.06762  0.86438  0.95825  1.0000
  H   H213      1.0  0.29311  0.55832  0.95116  1.0000
  C   C141      1.0  0.29070  0.57669  0.92177  1.0000
  C   C142      1.0  0.09862  0.86861  0.94971  1.0000
  H   H214      1.0  0.23366  0.50614  0.66874  1.0000
  H   H215      1.0  0.99541  0.50023  0.55101  1.0000
  Fe  Fe18      1.0  0.15555  0.50171  0.51704  1.0000
  H   H216      1.0  0.09666  0.58809  0.52667  1.0000
  H   H217      1.0  0.03331  0.97106  0.95536  1.0000
  C   C143      1.0  0.07591  0.58334  0.50025  1.0000
  H   H218      1.0  0.20999  0.63899  0.84517  1.0000
  H   H219      1.0  0.02653  0.82110  0.97476  1.0000
  H   H220      1.0  0.09711  0.88473  0.91839  1.0000
  H   H221      1.0  0.05496  0.84734  0.93026  1.0000
  H   H222      1.0  0.05856  0.57771  0.51867  1.0000
  C   C144      1.0  0.20335  0.53167  0.93110  1.0000
  H   H223      1.0  0.20593  0.51290  0.96021  1.0000
  H   H224      1.0  0.08019  0.52747  0.49213  1.0000
  S   S39       1.0  0.17853  0.49215  0.69501  1.0000
  C   C145      1.0  0.98570  0.96661  0.93635  1.0000
  H   H225      1.0  0.01032  0.88336  0.95697  1.0000
  H   H226      1.0  0.07834  0.79869  0.98314  1.0000
  H   H227      1.0  0.24524  0.72320  0.50059  1.0000
  H   H228      1.0  0.31969  0.11865  0.99407  1.0000
  Fe  Fe19      1.0  0.59910  0.44697  0.01489  1.0000
  H   H229      1.0  0.34003  0.06447  0.35843  1.0000
  S   S40       1.0  0.62817  0.40205  0.04809  1.0000
  H   H230      1.0  0.53176  0.48004  0.03790  1.0000
  S   S41       1.0  0.61867  0.48443  0.07253  1.0000
  H   H231      1.0  0.49684  0.00692  0.44617  1.0000
  S   S42       1.0  0.34607  0.43264  0.00458  1.0000
  C   C146      1.0  0.51278  0.46715  0.01648  1.0000
  S   S43       1.0  0.36414  0.99832  0.42168  1.0000
  H   H232      1.0  0.59206  0.33307  0.01749  1.0000
  S   S44       1.0  0.42342  0.47458  0.99643  1.0000
  Fe  Fe20      1.0  0.33264  0.99396  0.46753  1.0000
  C   C147      1.0  0.48415  0.47584  0.02050  1.0000
  Fe  Fe21      1.0  0.65067  0.44074  0.10136  1.0000
  H   H233      1.0  0.32726  0.10569  0.37525  1.0000
  C   C148      1.0  0.32388  0.07682  0.37529  1.0000
  H   H234      1.0  0.32922  0.06696  0.41105  1.0000
  C   C149      1.0  0.45904  0.45968  0.99278  1.0000
  H   H235      1.0  0.61333  0.30288  0.99365  1.0000
  Fe  Fe22      1.0  0.32521  0.40570  0.93789  1.0000
  H   H236      1.0  0.64604  0.27990  0.86836  1.0000
  H   H237      1.0  0.56590  0.28912  0.90135  1.0000
  H   H238      1.0  0.56592  0.30521  0.84624  1.0000
  S   S45       1.0  0.35661  0.42873  0.89980  1.0000
  H   H239      1.0  0.53342  0.35468  0.85321  1.0000
  H   H240      1.0  0.40305  0.03603  0.51748  1.0000
  S   S46       1.0  0.33448  0.04184  0.51444  1.0000
  S   S47       1.0  0.63065  0.98901  0.58724  1.0000
  C   C150      1.0  0.42303  0.02111  0.51524  1.0000
  H   H241      1.0  0.34650  0.33896  0.87483  1.0000
  H   H242      1.0  0.64276  0.06556  0.58186  1.0000
  Fe  Fe23      1.0  0.37534  0.45906  0.96463  1.0000
  H   H243      1.0  0.64026  0.32195  0.92682  1.0000
  H   H244      1.0  0.59626  0.41303  0.91064  1.0000
  H   H245      1.0  0.63671  0.11681  0.62967  1.0000
  H   H246      1.0  0.56037  0.39908  0.88049  1.0000
  C   C151      1.0  0.40309  0.04557  0.61512  1.0000
  H   H247      1.0  0.34777  0.29242  0.81731  1.0000
  C   C152      1.0  0.59461  0.34780  0.94901  1.0000
  H   H248      1.0  0.43483  0.03747  0.49483  1.0000
  H   H249      1.0  0.40892  0.06358  0.58972  1.0000
  C   C153      1.0  0.49165  0.42577  0.95694  1.0000
  C   C154      1.0  0.32882  0.32001  0.86591  1.0000
  H   H250      1.0  0.63323  0.32051  0.84123  1.0000
  H   H251      1.0  0.51857  0.31394  0.86609  1.0000
  N   N11       1.0  0.59392  0.33445  0.90170  1.0000
  C   C155      1.0  0.62680  0.29810  0.86042  1.0000
  H   H252      1.0  0.46064  0.01899  0.65093  1.0000
  H   H253      1.0  0.49437  0.40637  0.93207  1.0000
  C   C156      1.0  0.53682  0.33288  0.87844  1.0000
  C   C157      1.0  0.58359  0.40069  0.87867  1.0000
  C   C158      1.0  0.56632  0.31384  0.88157  1.0000
  H   H254      1.0  0.33898  0.09814  0.57914  1.0000
  H   H255      1.0  0.53448  0.34262  0.91200  1.0000
  H   H256      1.0  0.57630  0.36643  0.94884  1.0000
  H   H257      1.0  0.37541  0.46646  0.81571  1.0000
  H   H258      1.0  0.33549  0.15047  0.89634  1.0000
  H   H259      1.0  0.62126  0.37111  0.87518  1.0000
  H   H260      1.0  0.61680  0.28506  0.92404  1.0000
  H   H261      1.0  0.61508  0.36332  0.96218  1.0000
  C   C159      1.0  0.32955  0.29352  0.83351  1.0000
  C   C160      1.0  0.40245  0.00664  0.60028  1.0000
  H   H262      1.0  0.44402  0.42148  0.93971  1.0000
  C   C161      1.0  0.59748  0.36490  0.87093  1.0000
  H   H263      1.0  0.58902  0.35780  0.83428  1.0000
  H   H264      1.0  0.38493  0.00375  0.56812  1.0000
  H   H265      1.0  0.32602  0.22311  0.91034  1.0000
  H   H266      1.0  0.58465  0.41903  0.85035  1.0000
  H   H267      1.0  0.41819  0.04972  0.64918  1.0000
  H   H268      1.0  0.45192  0.03947  0.57763  1.0000
  Fe  Fe24      1.0  0.32337  0.47283  0.88279  1.0000
  C   C162      1.0  0.44388  0.01356  0.56237  1.0000
  S   S48       1.0  0.63044  0.46295  0.97184  1.0000
  C   C163      1.0  0.46301  0.43421  0.96127  1.0000
  H   H269      1.0  0.41453  0.46627  0.83460  1.0000
  C   C164      1.0  0.61987  0.30978  0.90578  1.0000
  H   H270      1.0  0.41664  0.99654  0.49578  1.0000
  H   H271      1.0  0.60835  0.28350  0.83815  1.0000
  H   H272      1.0  0.38064  0.05328  0.61779  1.0000
  C   C165      1.0  0.39510  0.48381  0.82319  1.0000
  H   H273      1.0  0.33222  0.16889  0.96154  1.0000
  H   H274      1.0  0.34204  0.23090  0.96938  1.0000
  H   H275      1.0  0.46358  0.00036  0.55532  1.0000
  S   S49       1.0  0.55220  0.43141  0.97593  1.0000
  C   C166      1.0  0.59322  0.31955  0.98532  1.0000
  H   H276      1.0  0.65030  0.20284  0.56271  1.0000
  H   H277      1.0  0.32143  0.16101  0.83851  1.0000
  H   H278      1.0  0.57325  0.30300  0.97527  1.0000
  C   C167      1.0  0.51674  0.44221  0.98439  1.0000
  H   H279      1.0  0.31880  0.10443  0.93638  1.0000
  C   C168      1.0  0.32141  0.22281  0.94471  1.0000
  N   N12       1.0  0.43129  0.99173  0.59495  1.0000
  C   C169      1.0  0.45317  0.99166  0.64085  1.0000
  H   H280      1.0  0.39419  0.99128  0.62608  1.0000
  H   H281      1.0  0.49210  0.87935  0.35774  1.0000
  C   C170      1.0  0.49571  0.90372  0.37851  1.0000
  S   S50       1.0  0.34402  0.91935  0.38375  1.0000
  C   C171      1.0  0.46446  0.96955  0.45699  1.0000
  C   C172      1.0  0.64249  0.74381  0.07745  1.0000
  N   N13       1.0  0.55219  0.89235  0.40039  1.0000
  H   H282      1.0  0.49028  0.89907  0.41187  1.0000
  H   H283      1.0  0.47962  0.92378  0.36049  1.0000
  H   H284      1.0  0.62927  0.56672  0.08423  1.0000
  H   H285      1.0  0.32701  0.55203  0.05572  1.0000
  C   C173      1.0  0.57953  0.84521  0.36283  1.0000
  H   H286      1.0  0.54288  0.87726  0.32930  1.0000
  C   C174      1.0  0.64734  0.68227  0.01876  1.0000
  H   H287      1.0  0.59636  0.84413  0.39558  1.0000
  C   C175      1.0  0.55055  0.86487  0.36371  1.0000
  H   H288      1.0  0.53374  0.84463  0.36587  1.0000
  H   H289      1.0  0.59995  0.89677  0.42305  1.0000
  H   H290      1.0  0.58057  0.93255  0.43779  1.0000
  H   H291      1.0  0.52729  0.86272  0.44000  1.0000
  H   H292      1.0  0.32376  0.55683  0.23330  1.0000
  H   H293      1.0  0.33208  0.69471  0.46912  1.0000
  H   H294      1.0  0.33681  0.78590  0.36748  1.0000
  H   H295      1.0  0.62748  0.61449  0.13969  1.0000
  C   C176      1.0  0.57166  0.84743  0.46599  1.0000
  C   C177      1.0  0.52718  0.91838  0.38483  1.0000
  H   H296      1.0  0.64719  0.75729  0.11103  1.0000
  H   H297      1.0  0.57221  0.95872  0.36279  1.0000
  C   C178      1.0  0.58030  0.91334  0.40984  1.0000
  C   C179      1.0  0.58594  0.93444  0.36902  1.0000
  H   H298      1.0  0.62448  0.69249  0.01413  1.0000
  H   H299      1.0  0.57431  0.81739  0.35260  1.0000
  Fe  Fe25      1.0  0.37765  0.94267  0.44294  1.0000
  H   H300      1.0  0.52937  0.94086  0.40910  1.0000
  H   H301      1.0  0.58955  0.85641  0.33610  1.0000
  H   H302      1.0  0.56910  0.82331  0.44472  1.0000
  H   H303      1.0  0.52784  0.93041  0.35141  1.0000
  C   C180      1.0  0.45960  0.93798  0.47801  1.0000
  S   S51       1.0  0.63308  0.96966  0.48210  1.0000
  H   H304      1.0  0.44610  0.98340  0.43508  1.0000
  H   H305      1.0  0.63240  0.76373  0.05134  1.0000
  H   H306      1.0  0.59460  0.85702  0.47311  1.0000
  H   H307      1.0  0.54983  0.89669  0.47073  1.0000
  H   H308      1.0  0.58210  0.91867  0.33732  1.0000
  S   S52       1.0  0.42394  0.91911  0.46990  1.0000
  H   H309      1.0  0.33099  0.84153  0.40741  1.0000
  C   C181      1.0  0.49331  0.98278  0.46329  1.0000
  H   H310      1.0  0.32656  0.60457  0.10475  1.0000
  H   H311      1.0  0.62654  0.72262  0.07935  1.0000
  C   C182      1.0  0.64737  0.58507  0.09374  1.0000
  C   C183      1.0  0.54896  0.87588  0.44449  1.0000
  H   H312      1.0  0.60931  0.94308  0.37730  1.0000
  Fe  Fe26      1.0  0.32763  0.97467  0.36716  1.0000
  H   H313      1.0  0.48143  0.49554  0.04504  1.0000
  C   C184      1.0  0.64634  0.61228  0.12506  1.0000
  C   C185      1.0  0.51766  0.96475  0.49066  1.0000
  H   H314      1.0  0.44555  0.94356  0.56712  1.0000
  H   H315      1.0  0.44293  0.98260  0.66850  1.0000
  H   H316      1.0  0.49107  0.51531  0.92776  1.0000
  H   H317      1.0  0.43041  0.61280  0.81993  1.0000
  Fe  Fe27      1.0  0.60085  0.96267  0.52642  1.0000
  C   C186      1.0  0.44520  0.51536  0.88983  1.0000
  S   S53       1.0  0.61736  0.90843  0.55003  1.0000
  H   H318      1.0  0.44206  0.60306  0.87850  1.0000
  C   C187      1.0  0.47141  0.53269  0.92370  1.0000
  H   H319      1.0  0.40910  0.95564  0.54289  1.0000
  H   H320      1.0  0.46103  0.58298  0.83943  1.0000
  H   H321      1.0  0.53112  0.91958  0.53414  1.0000
  H   H322      1.0  0.38550  0.60190  0.88024  1.0000
  C   C188      1.0  0.41103  0.55646  0.91546  1.0000
  H   H323      1.0  0.45319  0.50715  0.85952  1.0000
  H   H324      1.0  0.42195  0.93249  0.64278  1.0000
  H   H325      1.0  0.42326  0.54461  0.80753  1.0000
  H   H326      1.0  0.38925  0.92891  0.59701  1.0000
  C   C189      1.0  0.51272  0.93355  0.51250  1.0000
  H   H327      1.0  0.36291  0.56593  0.89189  1.0000
  C   C190      1.0  0.39200  0.51046  0.86041  1.0000
  H   H328      1.0  0.44124  0.49036  0.90670  1.0000
  C   C191      1.0  0.48390  0.92015  0.50586  1.0000
  H   H329      1.0  0.40871  0.53781  0.94299  1.0000
  C   C192      1.0  0.38363  0.58068  0.90473  1.0000
  C   C193      1.0  0.43920  0.59112  0.84436  1.0000
  S   S54       1.0  0.34406  0.50531  0.94442  1.0000
  C   C194      1.0  0.41372  0.92824  0.60565  1.0000
  C   C195      1.0  0.41744  0.56001  0.83541  1.0000
  S   S55       1.0  0.55362  0.98167  0.49439  1.0000
  H   H330      1.0  0.49663  0.97357  0.67795  1.0000
  N   N14       1.0  0.41692  0.53636  0.87543  1.0000
  H   H331      1.0  0.42970  0.57354  0.93201  1.0000
  H   H332      1.0  0.47733  0.55871  0.91216  1.0000
  H   H333      1.0  0.39507  0.57053  0.81909  1.0000
  H   H334      1.0  0.38174  0.59371  0.93685  1.0000
  H   H335      1.0  0.48040  0.89568  0.52231  1.0000
  H   H336      1.0  0.49317  0.97730  0.61784  1.0000
  H   H337      1.0  0.42108  0.90129  0.59903  1.0000
  C   C196      1.0  0.42577  0.95501  0.57607  1.0000
  C   C197      1.0  0.48130  0.96947  0.64395  1.0000
  H   H338      1.0  0.46715  0.53499  0.95822  1.0000
  H   H339      1.0  0.37071  0.52429  0.84668  1.0000
  H   H340      1.0  0.38910  0.49462  0.89017  1.0000
  H   H341      1.0  0.64210  0.66933  0.94555  1.0000
  Fe  Fe28      1.0  0.65102  0.91620  0.50812  1.0000
  H   H342      1.0  0.47642  0.94083  0.64097  1.0000
  C   C198      1.0  0.64644  0.65608  0.97930  1.0000
  H   H343      1.0  0.32807  0.73228  0.50236  1.0000
  S   S56       1.0  0.34769  0.93902  0.49127  1.0000
  H   H344      1.0  0.62830  0.63700  0.97820  1.0000
  H   H345      1.0  0.39562  0.49694  0.79056  1.0000
  Fe  Fe29      1.0  0.65030  0.93536  0.60697  1.0000
  H   H346      1.0  0.63415  0.74391  0.98081  1.0000
  H   H347      1.0  0.56776  0.83951  0.49951  1.0000
  H   H348      1.0  0.72754  0.27895  0.04921  1.0000
  C   C199      1.0  0.75834  0.32977  0.15118  1.0000
  S   S57       1.0  0.85314  0.41074  0.41140  1.0000
  Fe  Fe30      1.0  0.88012  0.46034  0.41784  1.0000
  S   S58       1.0  0.92778  0.45242  0.41216  1.0000
  Fe  Fe31      1.0  0.81783  0.44097  0.36155  1.0000
  S   S59       1.0  0.79698  0.42222  0.28946  1.0000
  H   H349      1.0  0.72416  0.39306  0.12777  1.0000
  H   H350      1.0  0.72762  0.20484  0.44932  1.0000
  H   H351      1.0  0.77712  0.39587  0.08446  1.0000
  C   C200      1.0  0.96253  0.46034  0.45047  1.0000
  C   C201      1.0  0.75971  0.42986  0.26175  1.0000
  C   C202      1.0  0.73698  0.42039  0.28207  1.0000
  C   C203      1.0  0.70755  0.42067  0.25609  1.0000
  C   C204      1.0  0.70061  0.43093  0.20992  1.0000
  C   C205      1.0  0.72321  0.44254  0.19059  1.0000
  C   C206      1.0  0.75266  0.44130  0.21609  1.0000
  H   H352      1.0  0.74219  0.41114  0.31710  1.0000
  H   H353      1.0  0.69019  0.41198  0.27152  1.0000
  H   H354      1.0  0.71817  0.45150  0.15560  1.0000
  H   H355      1.0  0.77015  0.44867  0.20019  1.0000
  C   C207      1.0  0.70431  0.21281  0.44497  1.0000
  C   C208      1.0  0.73581  0.38178  0.10346  1.0000
  H   H356      1.0  0.77972  0.39634  0.14565  1.0000
  C   C209      1.0  0.96946  0.05770  0.00141  1.0000
  H   H357      1.0  0.78178  0.33535  0.15168  1.0000
  H   H358      1.0  0.95768  0.04302  0.02338  1.0000
  S   S60       1.0  0.79585  0.45927  0.41597  1.0000
  C   C210      1.0  0.68648  0.34374  0.12632  1.0000
  H   H359      1.0  0.74111  0.36948  0.19306  1.0000
  S   S61       1.0  0.68441  0.45477  0.06327  1.0000
  C   C211      1.0  0.75267  0.34393  0.19624  1.0000
  H   H360      1.0  0.68937  0.19192  0.42740  1.0000
  H   H361      1.0  0.69567  0.32711  0.06392  1.0000
  H   H362      1.0  0.77404  0.34864  0.22129  1.0000
  C   C212      1.0  0.76528  0.40168  0.11126  1.0000
  H   H363      1.0  0.77375  0.33814  0.07284  1.0000
  H   H364      1.0  0.74000  0.32459  0.21146  1.0000
  H   H365      1.0  0.93914  0.37591  0.46064  1.0000
  H   H366      1.0  0.75774  0.30056  0.15393  1.0000
  H   H367      1.0  0.66595  0.32796  0.12040  1.0000
  H   H368      1.0  0.67386  0.23194  0.48153  1.0000
  C   C213      1.0  0.70763  0.32635  0.10073  1.0000
  H   H369      1.0  0.90196  0.36428  0.45422  1.0000
  C   C214      1.0  0.75026  0.28947  0.06003  1.0000
  Fe  Fe32      1.0  0.66002  0.41911  0.00714  1.0000
  C   C215      1.0  0.75046  0.32970  0.06802  1.0000
  H   H370      1.0  0.73830  0.34191  0.03509  1.0000
  N   N15       1.0  0.73797  0.34216  0.10704  1.0000
  H   H371      1.0  0.72208  0.38974  0.06930  1.0000
  H   H372      1.0  0.76065  0.43049  0.10940  1.0000
  H   H373      1.0  0.69540  0.34489  0.16369  1.0000
  H   H374      1.0  0.70925  0.29800  0.11079  1.0000
  S   S62       1.0  0.66380  0.42757  0.17716  1.0000
  H   H375      1.0  0.70062  0.23609  0.42178  1.0000
  S   S63       1.0  0.86220  0.48179  0.47511  1.0000
  H   H376      1.0  0.76293  0.27482  0.09034  1.0000
  Fe  Fe33      1.0  0.83359  0.43303  0.46665  1.0000
  H   H377      1.0  0.67964  0.37050  0.11289  1.0000
  H   H378      1.0  0.76092  0.28395  0.03163  1.0000
  H   H379      1.0  0.69666  0.14040  0.45863  1.0000
  C   C216      1.0  0.92307  0.36745  0.48024  1.0000
  H   H380      1.0  0.89610  0.03682  0.02237  1.0000
  H   H381      1.0  0.67061  0.11529  0.47996  1.0000
  H   H382      1.0  0.94426  0.10569  0.99919  1.0000
  H   H383      1.0  0.90700  0.08110  0.01859  1.0000
  C   C217      1.0  0.89454  0.05944  0.99838  1.0000
  C   C218      1.0  0.68969  0.13344  0.48994  1.0000
  C   C219      1.0  0.69729  0.22329  0.49038  1.0000
  H   H384      1.0  0.70863  0.10686  0.72941  1.0000
  S   S64       1.0  0.80118  0.05355  0.92110  1.0000
  Fe  Fe34      1.0  0.77384  0.21911  0.75885  1.0000
  S   S65       1.0  0.73005  0.21848  0.77733  1.0000
  S   S66       1.0  0.81242  0.18344  0.79181  1.0000
  Fe  Fe35      1.0  0.75209  0.26748  0.67459  1.0000
  S   S67       1.0  0.70677  0.26827  0.68757  1.0000
  S   S68       1.0  0.75278  0.29509  0.60670  1.0000
  Fe  Fe36      1.0  0.72859  0.27704  0.76195  1.0000
  S   S69       1.0  0.70889  0.32522  0.79073  1.0000
  Fe  Fe37      1.0  0.71236  0.21027  0.70174  1.0000
  C   C220      1.0  0.95031  0.08745  0.97414  1.0000
  S   S70       1.0  0.77412  0.27850  0.74838  1.0000
  S   S71       1.0  0.75587  0.20854  0.68391  1.0000
  S   S72       1.0  0.83681  0.40255  0.53397  1.0000
  H   H385      1.0  0.89399  0.31903  0.59065  1.0000
  H   H386      1.0  0.76335  0.09197  0.73398  1.0000
  H   H387      1.0  0.95339  0.42319  0.62329  1.0000
  S   S73       1.0  0.69321  0.04038  0.55005  1.0000
  H   H388      1.0  0.97432  0.36892  0.60819  1.0000
  H   H389      1.0  0.78126  0.41042  0.61598  1.0000
  N   N16       1.0  0.70255  0.19552  0.52743  1.0000
  C   C221      1.0  0.70215  0.33766  0.84434  1.0000
  C   C222      1.0  0.70925  0.31585  0.88301  1.0000
  C   C223      1.0  0.70337  0.32704  0.92456  1.0000
  H   H390      1.0  0.74227  0.05786  0.84104  1.0000
  C   C224      1.0  0.91560  0.36917  0.58798  1.0000
  H   H391      1.0  0.71931  0.29038  0.88088  1.0000
  H   H392      1.0  0.78547  0.39838  0.68881  1.0000
  C   C225      1.0  0.77735  0.32347  0.58666  1.0000
  C   C226      1.0  0.80492  0.33307  0.61379  1.0000
  C   C227      1.0  0.82283  0.35700  0.59687  1.0000
  C   C228      1.0  0.81350  0.37168  0.55269  1.0000
  C   C229      1.0  0.78604  0.36186  0.52546  1.0000
  C   C230      1.0  0.76816  0.33788  0.54234  1.0000
  H   H393      1.0  0.81245  0.32211  0.64780  1.0000
  H   H394      1.0  0.84402  0.36433  0.61827  1.0000
  H   H395      1.0  0.76481  0.99233  0.76005  1.0000
  H   H396      1.0  0.74689  0.33076  0.52098  1.0000
  C   C231      1.0  0.80370  0.08840  0.88297  1.0000
  C   C232      1.0  0.82401  0.08774  0.85575  1.0000
  C   C233      1.0  0.82634  0.11689  0.82768  1.0000
  C   C234      1.0  0.80772  0.14639  0.82535  1.0000
  C   C235      1.0  0.78676  0.14646  0.85140  1.0000
  C   C236      1.0  0.78505  0.11782  0.88049  1.0000
  H   H397      1.0  0.83831  0.06514  0.85703  1.0000
  H   H398      1.0  0.84261  0.11661  0.80764  1.0000
  H   H399      1.0  0.77248  0.16909  0.85027  1.0000
  H   H400      1.0  0.76925  0.11855  0.90136  1.0000
  H   H401      1.0  0.88253  0.09873  0.89996  1.0000
  C   C237      1.0  0.71256  0.09742  0.60500  1.0000
  C   C238      1.0  0.70933  0.12611  0.63292  1.0000
  H   H402      1.0  0.75878  0.21968  0.58729  1.0000
  C   C239      1.0  0.77555  0.37353  0.74597  1.0000
  H   H403      1.0  0.70890  0.30981  0.95406  1.0000
  H   H404      1.0  0.73373  0.09217  0.59786  1.0000
  H   H405      1.0  0.72802  0.14257  0.64740  1.0000
  H   H406      1.0  0.88668  0.04000  0.93023  1.0000
  H   H407      1.0  0.92059  0.03966  0.82996  1.0000
  C   C240      1.0  0.96429  0.37308  0.57104  1.0000
  H   H408      1.0  0.92651  0.36631  0.62503  1.0000
  H   H409      1.0  0.89675  0.07375  0.84043  1.0000
  C   C241      1.0  0.75174  0.08116  0.75914  1.0000
  C   C242      1.0  0.72228  0.03049  0.77603  1.0000
  C   C243      1.0  0.72691  0.04149  0.69824  1.0000
  C   C244      1.0  0.68366  0.37214  0.65046  1.0000
  C   C245      1.0  0.69800  0.21276  0.57029  1.0000
  N   N17       1.0  0.74276  0.04339  0.74804  1.0000
  C   C246      1.0  0.69029  0.36011  0.92815  1.0000
  C   C247      1.0  0.75918  0.42300  0.60922  1.0000
  H   H410      1.0  0.71627  0.00347  0.64252  1.0000
  C   C248      1.0  0.73145  0.42733  0.69173  1.0000
  N   N18       1.0  0.73785  0.39266  0.67150  1.0000
  C   C249      1.0  0.73611  0.39809  0.62122  1.0000
  C   C250      1.0  0.91186  0.44710  0.59037  1.0000
  H   H411      1.0  0.71643  0.35733  0.71046  1.0000
  H   H412      1.0  0.94658  0.03515  0.91006  1.0000
  H   H413      1.0  0.70756  0.11798  0.51279  1.0000
  C   C251      1.0  0.76843  0.37954  0.69394  1.0000
  H   H414      1.0  0.71428  0.44221  0.66642  1.0000
  H   H415      1.0  0.71766  0.10279  0.79091  1.0000
  C   C252      1.0  0.73486  0.03123  0.82830  1.0000
  C   C253      1.0  0.71601  0.36421  0.67478  1.0000
  C   C254      1.0  0.91926  0.39647  0.51446  1.0000
  C   C255      1.0  0.66146  0.08211  0.59628  1.0000
  C   C256      1.0  0.68867  0.07522  0.58664  1.0000
  H   H416      1.0  0.66580  0.23591  0.60277  1.0000
  H   H417      1.0  0.72209  0.33914  0.66021  1.0000
  C   C257      1.0  0.68183  0.13366  0.64134  1.0000
  C   C258      1.0  0.91666  0.13671  0.89895  1.0000
  H   H418      1.0  0.77287  0.35426  0.67806  1.0000
  H   H419      1.0  0.68339  0.38783  0.81834  1.0000
  C   C259      1.0  0.75844  0.20874  0.55320  1.0000
  H   H420      1.0  0.73006  0.44769  0.75877  1.0000
  H   H421      1.0  0.75138  0.44437  0.69876  1.0000
  C   C260      1.0  0.71695  0.00451  0.67957  1.0000
  C   C261      1.0  0.68900  0.37069  0.84794  1.0000
  S   S74       1.0  0.67600  0.17123  0.67281  1.0000
  H   H422      1.0  0.71429  0.40913  0.60331  1.0000
  H   H423      1.0  0.73785  0.37243  0.60423  1.0000
  C   C262      1.0  0.77020  0.02077  0.75868  1.0000
  H   H424      1.0  0.73673  0.16105  0.56550  1.0000
  C   C263      1.0  0.93402  0.05992  0.89913  1.0000
  H   H425      1.0  0.89427  0.38263  0.58635  1.0000
  H   H426      1.0  0.76024  0.35496  0.75655  1.0000
  H   H427      1.0  0.76797  0.08295  0.79262  1.0000
  C   C264      1.0  0.68311  0.38188  0.88949  1.0000
  Fe  Fe38      1.0  0.82177  0.99941  0.91944  1.0000
  C   C265      1.0  0.72018  0.42566  0.73599  1.0000
  C   C266      1.0  0.66625  0.22492  0.56886  1.0000
  H   H428      1.0  0.75332  0.01224  0.83940  1.0000
  H   H429      1.0  0.96522  0.10328  0.95827  1.0000
  H   H430      1.0  0.70491  0.19467  0.60004  1.0000
  H   H431      1.0  0.66932  0.35242  0.66169  1.0000
  H   H432      1.0  0.69602  0.43019  0.72818  1.0000
  H   H433      1.0  0.89727  0.11936  0.95260  1.0000
  H   H434      1.0  0.81076  0.00874  0.73902  1.0000
  C   C267      1.0  0.73367  0.18140  0.53798  1.0000
  H   H435      1.0  0.70648  0.05772  0.69123  1.0000
  H   H436      1.0  0.92615  0.31495  0.56937  1.0000
  C   C268      1.0  0.90372  0.10700  0.92302  1.0000
  S   S75       1.0  0.68240  0.37191  0.98120  1.0000
  H   H437      1.0  0.78011  0.01483  0.69125  1.0000
  H   H438      1.0  0.72553  0.40130  0.75654  1.0000
  H   H439      1.0  0.79785  0.36155  0.75711  1.0000
  H   H440      1.0  0.73841  0.16761  0.50816  1.0000
  H   H441      1.0  0.93638  0.14866  0.92187  1.0000
  H   H442      1.0  0.71739  0.02315  0.84536  1.0000
  H   H443      1.0  0.94994  0.07763  0.88813  1.0000
  H   H444      1.0  0.78397  0.02654  0.79356  1.0000
  H   H445      1.0  0.71579  0.00271  0.76724  1.0000
  H   H446      1.0  0.89209  0.33357  0.53405  1.0000
  H   H447      1.0  0.89988  0.15799  0.88908  1.0000
  H   H448      1.0  0.92204  0.12767  0.86703  1.0000
  H   H449      1.0  0.74001  0.05358  0.67598  1.0000
  C   C269      1.0  0.93967  0.42609  0.58764  1.0000
  H   H450      1.0  0.78004  0.19544  0.55655  1.0000
  C   C270      1.0  0.90638  0.04819  0.95691  1.0000
  H   H451      1.0  0.75720  0.23048  0.52818  1.0000
  C   C271      1.0  0.79058  0.02487  0.72589  1.0000
  N   N19       1.0  0.92358  0.07567  0.93832  1.0000
  H   H452      1.0  0.71200  0.23657  0.57917  1.0000
  H   H453      1.0  0.67644  0.39863  0.65872  1.0000
  H   H454      1.0  0.95232  0.44375  0.56992  1.0000
  H   H455      1.0  0.77632  0.39879  0.76465  1.0000
  H   H456      1.0  0.92717  0.42128  0.50178  1.0000
  N   N20       1.0  0.93454  0.39066  0.56419  1.0000
  C   C272      1.0  0.68069  0.16557  0.51502  1.0000
  H   H457      1.0  0.89520  0.40058  0.51042  1.0000
  H   H458      1.0  0.73578  0.13458  0.76389  1.0000
  H   H459      1.0  0.70118  0.04553  0.76768  1.0000
  H   H460      1.0  0.65869  0.24623  0.54348  1.0000
  H   H461      1.0  0.76054  0.44861  0.62719  1.0000
  H   H462      1.0  0.87106  0.06771  0.98697  1.0000
  H   H463      1.0  0.89510  0.02962  0.86298  1.0000
  C   C273      1.0  0.72673  0.10738  0.76071  1.0000
  H   H464      1.0  0.75291  0.42864  0.57190  1.0000
  C   C274      1.0  0.90987  0.05054  0.85605  1.0000
  H   H465      1.0  0.67306  0.40736  0.89158  1.0000
  H   H466      1.0  0.79763  0.05257  0.72372  1.0000
  H   H467      1.0  0.67573  0.15395  0.54627  1.0000
  H   H468      1.0  0.89515  0.44762  0.55740  1.0000
  Fe  Fe39      1.0  0.66381  0.99207  0.54515  1.0000
  C   C275      1.0  0.90690  0.33210  0.56887  1.0000
  H   H469      1.0  0.96276  0.34622  0.55653  1.0000
  H   H470      1.0  0.91911  0.02324  0.96551  1.0000
  H   H471      1.0  0.69468  0.99825  0.68424  1.0000
  H   H472      1.0  0.90180  0.43644  0.61732  1.0000
  H   H473      1.0  0.92893  0.34098  0.49493  1.0000
  H   H474      1.0  0.67991  0.36937  0.61287  1.0000
  H   H475      1.0  0.71022  0.24749  0.50270  1.0000
  H   H476      1.0  0.91801  0.47487  0.59966  1.0000
  C   C276      1.0  0.65804  0.11132  0.62325  1.0000
  H   H477      1.0  0.97801  0.40190  0.51575  1.0000
  H   H478      1.0  0.97743  0.03902  0.97888  1.0000
  H   H479      1.0  0.65912  0.17535  0.49418  1.0000
  C   C277      1.0  0.96537  0.47955  0.49079  1.0000
  H   H480      1.0  0.77853  0.37286  0.49146  1.0000
  Fe  Fe40      1.0  0.74014  0.76944  0.16832  1.0000
  S   S76       1.0  0.69681  0.77113  0.18844  1.0000
  S   S77       1.0  0.73776  0.79918  0.10086  1.0000
  Fe  Fe41      1.0  0.76595  0.71887  0.24923  1.0000
  S   S78       1.0  0.72452  0.71805  0.27394  1.0000
  S   S79       1.0  0.80597  0.68552  0.28206  1.0000
  Fe  Fe42      1.0  0.70241  0.71239  0.19901  1.0000
  H   H481      1.0  0.82882  0.79959  0.32043  1.0000
  Fe  Fe43      1.0  0.72299  0.77693  0.26128  1.0000
  S   S80       1.0  0.71878  0.82375  0.30774  1.0000
  S   S81       1.0  0.74392  0.71021  0.17506  1.0000
  S   S82       1.0  0.76629  0.77804  0.24060  1.0000
  H   H482      1.0  0.84081  0.62229  0.30324  1.0000
  H   H483      1.0  0.81322  0.75785  0.32671  1.0000
  H   H484      1.0  0.74261  0.51550  0.19748  1.0000
  H   H485      1.0  0.68003  0.50466  0.21389  1.0000
  S   S83       1.0  0.80445  0.55983  0.42238  1.0000
  H   H486      1.0  0.84330  0.77467  0.37122  1.0000
  H   H487      1.0  0.85872  0.77745  0.47999  1.0000
  C   C278      1.0  0.76410  0.82524  0.08167  1.0000
  C   C279      1.0  0.75437  0.84756  0.04348  1.0000
  C   C280      1.0  0.77448  0.86779  0.02598  1.0000
  C   C281      1.0  0.80474  0.86521  0.04566  1.0000
  C   C282      1.0  0.81444  0.84289  0.08380  1.0000
  C   C283      1.0  0.79431  0.82322  0.10193  1.0000
  H   H488      1.0  0.73106  0.84957  0.02773  1.0000
  H   H489      1.0  0.66092  0.53220  0.16848  1.0000
  H   H490      1.0  0.83777  0.84073  0.09946  1.0000
  H   H491      1.0  0.80222  0.80615  0.13116  1.0000
  C   C284      1.0  0.69938  0.83560  0.34968  1.0000
  C   C285      1.0  0.70330  0.86968  0.36867  1.0000
  C   C286      1.0  0.68977  0.87991  0.40372  1.0000
  H   H492      1.0  0.69313  0.90616  0.41797  1.0000
  C   C287      1.0  0.68166  0.81179  0.36625  1.0000
  C   C288      1.0  0.74076  0.61887  0.23488  1.0000
  H   H493      1.0  0.76026  0.58542  0.29116  1.0000
  C   C289      1.0  0.81472  0.76513  0.43977  1.0000
  Fe  Fe44      1.0  0.82594  0.50615  0.42001  1.0000
  H   H494      1.0  0.68013  0.70925  0.09709  1.0000
  C   C290      1.0  0.75603  0.72718  0.40853  1.0000
  H   H495      1.0  0.75407  0.76056  0.35004  1.0000
  C   C291      1.0  0.68325  0.52474  0.18878  1.0000
  C   C292      1.0  0.80428  0.64975  0.31940  1.0000
  C   C293      1.0  0.78361  0.64903  0.34598  1.0000
  C   C294      1.0  0.78393  0.62131  0.37728  1.0000
  C   C295      1.0  0.80437  0.59352  0.38150  1.0000
  C   C296      1.0  0.82449  0.59368  0.35398  1.0000
  C   C297      1.0  0.82469  0.62194  0.32355  1.0000
  H   H496      1.0  0.76764  0.67003  0.34282  1.0000
  H   H497      1.0  0.76823  0.62134  0.39834  1.0000
  H   H498      1.0  0.84044  0.57256  0.35704  1.0000
  H   H499      1.0  0.67854  0.78544  0.35231  1.0000
  H   H500      1.0  0.74578  0.70500  0.03355  1.0000
  S   S84       1.0  0.84613  0.48887  0.36352  1.0000
  C   C298      1.0  0.67217  0.85606  0.42046  1.0000
  C   C299      1.0  0.66817  0.82200  0.40137  1.0000
  S   S85       1.0  0.65493  0.86693  0.46534  1.0000
  H   H501      1.0  0.94200  0.96001  0.01094  1.0000
  C   C300      1.0  0.73859  0.58739  0.26635  1.0000
  C   C301      1.0  0.69898  0.55815  0.21174  1.0000
  H   H502      1.0  0.75666  0.61399  0.21371  1.0000
  H   H503      1.0  0.76271  0.85454  0.45159  1.0000
  C   C302      1.0  0.77741  0.84248  0.43185  1.0000
  C   C303      1.0  0.82266  0.78169  0.34580  1.0000
  C   C304      1.0  0.67148  0.72880  0.06945  1.0000
  H   H504      1.0  0.80608  0.75108  0.46616  1.0000
  H   H505      1.0  0.74152  0.70806  0.38585  1.0000
  N   N21       1.0  0.66922  0.71217  0.02335  1.0000
  H   H506      1.0  0.74831  0.54717  0.34454  1.0000
  H   H507      1.0  0.79571  0.54059  0.21134  1.0000
  H   H508      1.0  0.65156  0.66624  0.05061  1.0000
  H   H509      1.0  0.80037  0.84713  0.45108  1.0000
  H   H510      1.0  0.68401  0.57080  0.23073  1.0000
  C   C305      1.0  0.75108  0.52441  0.32285  1.0000
  H   H511      1.0  0.79110  0.55699  0.26335  1.0000
  H   H512      1.0  0.81155  0.82588  0.38156  1.0000
  H   H513      1.0  0.78510  0.73183  0.36414  1.0000
  S   S86       1.0  0.83147  0.88803  0.02323  1.0000
  C   C306      1.0  0.77155  0.75027  0.37919  1.0000
  C   C307      1.0  0.66924  0.63694  0.13690  1.0000
  H   H514      1.0  0.78156  0.80967  0.33988  1.0000
  H   H515      1.0  0.68774  0.75043  0.07664  1.0000
  C   C308      1.0  0.69430  0.60685  0.08583  1.0000
  C   C309      1.0  0.69354  0.63363  0.11779  1.0000
  H   H516      1.0  0.71282  0.60506  0.07036  1.0000
  H   H517      1.0  0.71146  0.65214  0.12675  1.0000
  H   H518      1.0  0.74162  0.74266  0.42548  1.0000
  H   H519      1.0  0.78709  0.51013  0.25220  1.0000
  H   H520      1.0  0.76661  0.88541  0.99741  1.0000
  C   C310      1.0  0.83748  0.79145  0.46649  1.0000
  H   H521      1.0  0.74690  0.80253  0.40373  1.0000
  H   H522      1.0  0.77203  0.71139  0.43415  1.0000
  H   H523      1.0  0.72298  0.59505  0.28732  1.0000
  C   C311      1.0  0.67115  0.58257  0.07342  1.0000
  H   H524      1.0  0.71901  0.62651  0.21324  1.0000
  H   H525      1.0  0.69477  0.51287  0.16440  1.0000
  C   C312      1.0  0.80056  0.80102  0.36787  1.0000
  H   H526      1.0  0.70265  0.67150  0.04055  1.0000
  C   C313      1.0  0.76995  0.80298  0.42487  1.0000
  N   N22       1.0  0.72937  0.55280  0.24266  1.0000
  H   H527      1.0  0.71706  0.88831  0.35632  1.0000
  C   C314      1.0  0.72732  0.52459  0.27728  1.0000
  C   C315      1.0  0.78252  0.53693  0.23703  1.0000
  N   N23       1.0  0.78977  0.78043  0.40353  1.0000
  H   H528      1.0  0.68464  0.78315  0.01906  1.0000
  H   H529      1.0  0.77285  0.85663  0.39852  1.0000
  S   S87       1.0  0.66600  0.67223  0.17387  1.0000
  H   H530      1.0  0.74869  0.64229  0.25613  1.0000
  H   H531      1.0  0.72563  0.74521  0.02362  1.0000
  H   H532      1.0  0.84281  0.81294  0.44507  1.0000
  C   C316      1.0  0.74959  0.54145  0.21333  1.0000
  S   S88       1.0  0.67144  0.55171  0.02955  1.0000
  H   H533      1.0  0.70597  0.52666  0.28732  1.0000
  C   C317      1.0  0.69859  0.69671  0.02096  1.0000
  H   H534      1.0  0.76867  0.79212  0.45868  1.0000
  H   H535      1.0  0.74767  0.55912  0.18318  1.0000
  C   C318      1.0  0.96177  0.96242  0.99861  1.0000
  H   H536      1.0  0.82657  0.74392  0.42586  1.0000
  H   H537      1.0  0.69974  0.57636  0.18317  1.0000
  C   C319      1.0  0.72631  0.71904  0.03989  1.0000
  H   H538      1.0  0.73059  0.72216  0.07740  1.0000
  H   H539      1.0  0.72745  0.49790  0.26215  1.0000
  H   H540      1.0  0.98061  0.54725  0.40470  1.0000
  H   H541      1.0  0.77383  0.52404  0.31857  1.0000
  H   H542      1.0  0.74847  0.50023  0.34236  1.0000
  Fe  Fe45      1.0  0.65190  0.49711  0.03218  1.0000
  H   H543      1.0  0.65466  0.80327  0.41407  1.0000
  S   S89       1.0  0.68489  0.93926  0.56731  1.0000
  S   S90       1.0  0.84319  0.98481  0.86356  1.0000
  Fe  Fe46      1.0  0.81689  0.93522  0.85949  1.0000
  S   S91       1.0  0.79299  0.95099  0.91246  1.0000
  S   S92       1.0  0.79677  0.91342  0.78894  1.0000
  Fe  Fe47      1.0  0.87782  0.95765  0.91835  1.0000
  H   H544      1.0  0.74078  0.79418  0.79725  1.0000
  S   S93       1.0  0.92517  0.96241  0.91043  1.0000
  S   S94       1.0  0.85311  0.90638  0.90933  1.0000
  H   H545      1.0  0.94595  0.49049  0.49912  1.0000
  C   C320      1.0  0.69925  0.92015  0.71218  1.0000
  C   C321      1.0  0.70781  0.92899  0.75876  1.0000
  C   C322      1.0  0.73771  0.92808  0.78258  1.0000
  C   C323      1.0  0.75913  0.91704  0.76029  1.0000
  C   C324      1.0  0.75049  0.90768  0.71402  1.0000
  C   C325      1.0  0.72076  0.90954  0.68994  1.0000
  H   H546      1.0  0.77530  0.83818  0.77901  1.0000
  H   H547      1.0  0.74408  0.93564  0.81814  1.0000
  H   H548      1.0  0.76689  0.89906  0.69653  1.0000
  H   H549      1.0  0.71443  0.90221  0.65429  1.0000
  C   C326      1.0  0.73646  0.78817  0.83087  1.0000
  C   C327      1.0  0.95966  0.96352  0.95158  1.0000
  H   H550      1.0  0.71762  0.80453  0.83501  1.0000
  H   H551      1.0  0.80364  0.86190  0.92878  1.0000
  H   H552      1.0  0.78714  0.79244  0.78994  1.0000
  H   H553      1.0  0.72917  0.76026  0.82986  1.0000
  N   N24       1.0  0.77946  0.82787  0.87479  1.0000
  C   C328      1.0  0.79417  0.83482  0.92438  1.0000
  C   C329      1.0  0.75896  0.85840  0.85786  1.0000
  C   C330      1.0  0.80320  0.82736  0.84872  1.0000
  C   C331      1.0  0.76373  0.79285  0.87127  1.0000
  S   S95       1.0  0.66163  0.92213  0.68287  1.0000
  C   C332      1.0  0.73628  0.86656  0.88600  1.0000
  C   C333      1.0  0.79326  0.82046  0.79698  1.0000
  H   H554      1.0  0.69126  0.93714  0.77620  1.0000
  H   H555      1.0  0.77783  0.83395  0.94564  1.0000
  H   H556      1.0  0.81259  0.78098  0.94024  1.0000
  H   H557      1.0  0.74656  0.85489  0.82183  1.0000
  H   H558      1.0  0.77187  0.88298  0.85768  1.0000
  H   H559      1.0  0.81541  0.85279  0.85333  1.0000
  H   H560      1.0  0.81991  0.80660  0.86205  1.0000
  H   H561      1.0  0.77924  0.77086  0.86948  1.0000
  H   H562      1.0  0.75589  0.78735  0.90265  1.0000
  H   H563      1.0  0.81215  0.82561  0.78160  1.0000
  Fe  Fe48      1.0  0.83102  0.92582  0.96343  1.0000
  C   C334      1.0  0.81890  0.80891  0.94730  1.0000
  H   H564      1.0  0.71816  0.88291  0.86510  1.0000
  H   H565      1.0  0.72655  0.84244  0.89695  1.0000
  H   H566      1.0  0.74659  0.88229  0.91666  1.0000
  H   H567      1.0  0.69139  0.77065  0.96491  1.0000
  H   H568      1.0  0.83963  0.81469  0.93705  1.0000
  H   H569      1.0  0.82391  0.81251  0.98496  1.0000
  S   S96       1.0  0.85803  0.97593  0.97527  1.0000
  H   H570      1.0  0.65840  0.79367  0.96860  1.0000
  H   H571      1.0  0.65798  0.72491  0.95129  1.0000
  H   H572      1.0  0.73236  0.98338  0.69539  1.0000
  C   C335      1.0  0.67434  0.77284  0.98472  1.0000
  H   H573      1.0  0.69862  0.68988  0.98510  1.0000
  H   H574      1.0  0.66692  0.64007  0.98493  1.0000
  H   H575      1.0  0.82995  0.80290  0.49557  1.0000
  C   C336      1.0  0.65785  0.73758  0.98443  1.0000
  H   H576      1.0  0.98435  0.96757  0.90005  1.0000
