data_image0
_chemical_formula_structural       HSHSC2S2HCFeHSFeS2FeSHFeSFeS3C6H3C4H3C6H2CH3SH3CNHCFeH9CH3CH2C2HC2HC2H3CH5SC2HCHFeH2FeNC2H2C2H3CH9CSH3CSCHFeS2FeS2FeSFeS3FeS2FeS2FeSFeS3FeS2FeS2FeSFeS3C6H4C6H4C6H5C5H4C6H8C6H4CH3CH4CH2C2NC4NC3H20NC5H2SHSH5CH2CHCNH3CH7CHC2NC4FeH2CHFeHCHCH4C2H3CH4NHC2HCHNHCH2CHCHCSCH6CH2CH4CNH2CFeH7CHCHCHCH6CH5CH2C2HCHFeCH2CHCH2SH2CHCSCH2CHSHCH3CH2SH4CHC2HCH4C2H2NCH12CH3CHCHSH2FeH3FeSH5FeH3SHC2H2CHSHCH4CSCHSCHCHNC3H5NCHCH3CH3C4HSH2CHCH7SH2CH2FeSCSHSH7CSCHCHSHFeS2FeS2FeHFeS3H4C4HFeH3CH2CHCNH2FeNH2C5HC2H2C6H5C2HC2H3CNH2C2H3C2HCH3C2SCHNHC2H3SC2HCH3NC4H2CH2FeHC2HCHCH5SCH2CH4SH3FeH6CFeC2H3CHC2HSC2H4CHCH4FeCH2CH2FeHSFeS2FeHFeHS2FeSHFeSH2SFeSFeS2HSFeS2HC2H3CH3CSCNC2HCH5C6H5CH3CH5C7H5NHC6H8CH2C2SCH8SH4CHS2HCH3CH8NHC2H4C2H2C2H2C2H2NC3SC3H4CH3CH4CHSHSC2H2CH2C4HFeH5CHCH2CH2C2H4C4H4SH2C3H4CHSNCHC2H6C2HNH2C3H5FeH4C2HC2HSHC3H5CSH2C4HC3SH3CHNCFeHC4H3CH4CH3C2HC3HCH3CH3C2NH3CH4CH6CH2CHCH4SCH3NSCFeSHFeSFeS2H2SH2SHFeSFeSCHFeSFeHSHFeSFeS2HNH2FeS2HC2HS2FeS2FeS2FeSFeS3CHC6H7C7H4C6H5CH6CH5C6H4C6H4C6H4CHC2HCH3CH2NC2H4SCH3CH2CHCHCH2CHC3H2C2H2CHCHCH5C2H2CH3C2HCH9CH4SHCHSH5CFeH3FeHCH3C4FeC2HCHCH2NHCNCH2CH6C2H3CH2CHC2H4C2H2NH3CH12FeHCH2CSHCH3SCHCH2CHCFeH5SHSHFeS2FeS2FeSFeS3FeS2FeS2FeSFeS3FeSFeS2FeSFeS3FeS2FeS2FeSFeHS2FeSFeS2Fe2S4C7H4C6H4C6H4C6H4CHC6H4C6H4C6H6CHC2H2C3H2S2HNC8H18NC5HCH7CH13NC8H21CH2CHCH2CNHCHC2SH2C2HCHC3HCHC3H2NH3CHCHC2H4CNSCHNH3C2H3CH4C2H7C3H5CNCH3CH2CH9CHCH7CH4CH3C3H9C4H3NHCH13CH3CNHCH2CHCSCHCHC2H3CH2CFeH2C3HCH3CH2CH2C3H2CH5C2H2CHC2H6C2H3CH4CH4FeS2FeS2FeSFeS3FeS2FeCFeH2S2FeS2FeS2FeSFeS3FeSFeSCFeSFeS2FeS3C6H5CSH2CHC2FeC6H4SNH3CH2C2H7C5SH4SHC6H4CHCH4NC4H12CH2C2HC2H3CHCHCH15CHCH3CH5CHCHCH4NC8H21CH3CH4C2HC2H5CFeCH2CHC2H3C2H2CSH3C2HNHCH3FeHCH2C3HCH2CHC2HCHC2HSNCH2SC2H5C2H2CH3CH2CNSCHCHCNH3CHSHCHC2HCNHCHC2H3CH2CH2CH2CHSH2NCH2C2H3FeHS2H2C2HNH3C4H2C2H5CHFeH2CH2CH4CHCH3C2H2C2HCSH4SHCHC2H3CH5CH3C2FeS2FeC2FeSHSH3C3HCH8C9H5C2H3CH2SCH3C3NSHCH2CNHCHC2H2FeH4SH3CHCH3CHSHCH3CH9CNH3CH4CHC2HCSH5CH2NCH4CHSC2H2C3H3FeS2FeS2FeSCSFeC3H3C4H2CHC4H3CHCH2CH3SHCSCH4C3HCFeHC2HSH2NC2HCH6CNH2CHCH3CH2SHSNCSC2H3C2HSH5C2H5C2HCHCH3CH3CH3CHCH3CNH5CH3CH3C2H2CH7CH2CHNHC5H2FeS2FeS2FeSFeS3FeS2FeS2Fe2S3FeS2FeS2FeSFeS3FeS2FeSFeSFeS3FeS2FeS2FeSFeS3FeS2CHC6H4C6H4CH4C6H4C6H3C7H4C6H4C2H4C6H5CH2C3NC7H25C3HCH3NCHC2H9C2HNHCHCH2CH5C2H4C5H3CH2C3H11CH5CHCH2CH4CHC4HCH2NHNH3CH5NHCNC8H19NC8H12SH2C2HC2HC2H4CSC2HCHCH2C2HCH6C2H2C2H10CH5C2NCH2CHCH2CH2CH3CH5SH4SFeCHCH5SHCHFeCH2CH3FeS2H4CH2CHC3HCH8SNC4NCH5CH2CH6CH2CH4
_chemical_formula_sum              "H1728 S288 C1008 Fe144 N72"
_cell_length_a       86.5185
_cell_length_b       84.0535
_cell_length_c       36.4884
_cell_angle_alpha    90.6367
_cell_angle_beta     90.289
_cell_angle_gamma    111.833

_space_group_name_H-M_alt    "P 1"
_space_group_IT_number       1

loop_
  _space_group_symop_operation_xyz
  'x, y, z'

loop_
  _atom_site_type_symbol
  _atom_site_label
  _atom_site_symmetry_multiplicity
  _atom_site_fract_x
  _atom_site_fract_y
  _atom_site_fract_z
  _atom_site_occupancy
  H   H1        1.0  0.16049  0.44421  0.83319  1.0000
  S   S1        1.0  0.17762  0.47978  0.50014  1.0000
  H   H2        1.0  0.21636  0.46219  0.30273  1.0000
  S   S2        1.0  0.14593  0.46923  0.67872  1.0000
  C   C1        1.0  0.12330  0.43020  0.86243  1.0000
  C   C2        1.0  0.14348  0.42979  0.94208  1.0000
  S   S3        1.0  0.18508  0.48004  0.60880  1.0000
  S   S4        1.0  0.16952  0.47555  0.24867  1.0000
  H   H3        1.0  0.99462  0.32973  0.85704  1.0000
  C   C3        1.0  0.14592  0.45815  0.85886  1.0000
  Fe  Fe1       1.0  0.16574  0.48732  0.63957  1.0000
  H   H4        1.0  0.21744  0.47237  0.42896  1.0000
  S   S5        1.0  0.13385  0.47265  0.16703  1.0000
  Fe  Fe2       1.0  0.05295  0.43135  0.91498  1.0000
  S   S6        1.0  0.07898  0.43019  0.91050  1.0000
  S   S7        1.0  0.02629  0.41198  0.89952  1.0000
  Fe  Fe3       1.0  0.06777  0.46930  0.92924  1.0000
  S   S8        1.0  0.09426  0.47137  0.92594  1.0000
  H   H5        1.0  0.20634  0.48449  0.38463  1.0000
  Fe  Fe4       1.0  0.08651  0.45417  0.87610  1.0000
  S   S9        1.0  0.10633  0.46514  0.83060  1.0000
  Fe  Fe5       1.0  0.08616  0.44790  0.96084  1.0000
  S   S10       1.0  0.10682  0.44800  0.00209  1.0000
  S   S11       1.0  0.06041  0.45410  0.87724  1.0000
  S   S12       1.0  0.05978  0.44705  0.96742  1.0000
  C   C4        1.0  0.12702  0.46703  0.12018  1.0000
  C   C5        1.0  0.13758  0.46559  0.09238  1.0000
  C   C6        1.0  0.13125  0.46008  0.05651  1.0000
  C   C7        1.0  0.11438  0.45639  0.04726  1.0000
  C   C8        1.0  0.10396  0.45837  0.07478  1.0000
  C   C9        1.0  0.11017  0.46337  0.11090  1.0000
  H   H6        1.0  0.15050  0.46811  0.09883  1.0000
  H   H7        1.0  0.13947  0.45842  0.03589  1.0000
  H   H8        1.0  0.09094  0.45543  0.06865  1.0000
  C   C10       1.0  0.23819  0.48803  0.63942  1.0000
  C   C11       1.0  0.23696  0.49303  0.22909  1.0000
  C   C12       1.0  0.17418  0.48392  0.38883  1.0000
  C   C13       1.0  0.17617  0.47830  0.42435  1.0000
  H   H9        1.0  0.00256  0.43935  0.88318  1.0000
  H   H10       1.0  0.17448  0.47627  0.36501  1.0000
  H   H11       1.0  0.17804  0.46636  0.42744  1.0000
  C   C14       1.0  0.13518  0.46864  0.72119  1.0000
  C   C15       1.0  0.12124  0.45383  0.72950  1.0000
  C   C16       1.0  0.11228  0.45257  0.76245  1.0000
  C   C17       1.0  0.11715  0.46610  0.78810  1.0000
  C   C18       1.0  0.17543  0.48780  0.45596  1.0000
  C   C19       1.0  0.14019  0.48212  0.74708  1.0000
  H   H12       1.0  0.01676  0.45886  0.02883  1.0000
  H   H13       1.0  0.10152  0.44113  0.76782  1.0000
  C   C20       1.0  0.22744  0.48244  0.41393  1.0000
  H   H14       1.0  0.10180  0.40641  0.86485  1.0000
  H   H15       1.0  0.12076  0.44239  0.93274  1.0000
  H   H16       1.0  0.15636  0.46829  0.87348  1.0000
  S   S13       1.0  0.21523  0.48097  0.22561  1.0000
  H   H17       1.0  0.14430  0.43983  0.96280  1.0000
  H   H18       1.0  0.13548  0.49115  0.80016  1.0000
  H   H19       1.0  0.99763  0.46632  0.90511  1.0000
  C   C21       1.0  0.12745  0.45165  0.91144  1.0000
  N   N1        1.0  0.13623  0.44411  0.88478  1.0000
  H   H20       1.0  0.15021  0.42739  0.88598  1.0000
  C   C22       1.0  0.00528  0.40359  0.91657  1.0000
  Fe  Fe6       1.0  0.19459  0.49183  0.22519  1.0000
  H   H21       1.0  0.02412  0.44981  0.89714  1.0000
  H   H22       1.0  0.12917  0.42499  0.84080  1.0000
  H   H23       1.0  0.01167  0.40177  0.97299  1.0000
  H   H24       1.0  0.11748  0.45464  0.89718  1.0000
  H   H25       1.0  0.20374  0.47428  0.31237  1.0000
  H   H26       1.0  0.02761  0.44489  0.01999  1.0000
  H   H27       1.0  0.11723  0.44325  0.71000  1.0000
  H   H28       1.0  0.99433  0.40307  0.86315  1.0000
  H   H29       1.0  0.99883  0.37163  0.85889  1.0000
  C   C23       1.0  0.21391  0.47068  0.32359  1.0000
  H   H30       1.0  0.15251  0.42398  0.95082  1.0000
  H   H31       1.0  0.99215  0.34841  0.90173  1.0000
  H   H32       1.0  0.16282  0.46423  0.81255  1.0000
  C   C24       1.0  0.15375  0.45263  0.82551  1.0000
  H   H33       1.0  0.13093  0.41966  0.94336  1.0000
  H   H34       1.0  0.10627  0.41746  0.90781  1.0000
  C   C25       1.0  0.99178  0.39987  0.89170  1.0000
  C   C26       1.0  0.01269  0.45190  0.88871  1.0000
  H   H35       1.0  0.11504  0.43554  0.84764  1.0000
  C   C27       1.0  0.13865  0.46829  0.93132  1.0000
  C   C28       1.0  0.14818  0.43739  0.90343  1.0000
  H   H36       1.0  0.01982  0.44117  0.95631  1.0000
  C   C29       1.0  0.11212  0.41432  0.88333  1.0000
  C   C30       1.0  0.99762  0.46676  0.97772  1.0000
  H   H37       1.0  0.14417  0.44628  0.80413  1.0000
  H   H38       1.0  0.01864  0.47521  0.91975  1.0000
  H   H39       1.0  0.16075  0.44767  0.90678  1.0000
  C   C31       1.0  0.00159  0.39927  0.95338  1.0000
  H   H40       1.0  0.11914  0.40615  0.89100  1.0000
  H   H41       1.0  0.13794  0.46478  0.84795  1.0000
  H   H42       1.0  0.13184  0.47092  0.95489  1.0000
  H   H43       1.0  0.14165  0.47943  0.91288  1.0000
  H   H44       1.0  0.22496  0.48070  0.64122  1.0000
  S   S14       1.0  0.05793  0.49024  0.93776  1.0000
  C   C32       1.0  0.01770  0.45194  0.97069  1.0000
  C   C33       1.0  0.13132  0.48078  0.78026  1.0000
  H   H45       1.0  0.02947  0.46312  0.96661  1.0000
  C   C34       1.0  0.98864  0.43781  0.95135  1.0000
  H   H46       1.0  0.01551  0.45884  0.86236  1.0000
  Fe  Fe7       1.0  0.17832  0.49154  0.55790  1.0000
  H   H47       1.0  0.20968  0.46302  0.34870  1.0000
  H   H48       1.0  0.23643  0.49104  0.43414  1.0000
  Fe  Fe8       1.0  0.15836  0.48518  0.20090  1.0000
  N   N2        1.0  0.00295  0.45488  0.95423  1.0000
  C   C35       1.0  0.01654  0.44776  0.01181  1.0000
  C   C36       1.0  0.00777  0.46285  0.91718  1.0000
  H   H49       1.0  0.10177  0.46427  0.13197  1.0000
  H   H50       1.0  0.00536  0.43631  0.01809  1.0000
  C   C37       1.0  0.23006  0.48640  0.33040  1.0000
  C   C38       1.0  0.01094  0.48486  0.98484  1.0000
  H   H51       1.0  0.15033  0.46745  0.94199  1.0000
  H   H52       1.0  0.15103  0.49348  0.74172  1.0000
  H   H53       1.0  0.02386  0.48526  0.98475  1.0000
  C   C39       1.0  0.21959  0.49263  0.39024  1.0000
  H   H54       1.0  0.99272  0.42798  0.93876  1.0000
  H   H55       1.0  0.99251  0.46091  0.00444  1.0000
  H   H56       1.0  0.00911  0.48955  0.01246  1.0000
  H   H57       1.0  0.00995  0.49399  0.96401  1.0000
  H   H58       1.0  0.23385  0.47558  0.39775  1.0000
  H   H59       1.0  0.23441  0.49176  0.30298  1.0000
  H   H60       1.0  0.98865  0.35273  0.83212  1.0000
  H   H61       1.0  0.16517  0.57271  0.73292  1.0000
  H   H62       1.0  0.16526  0.54965  0.49222  1.0000
  C   C40       1.0  0.07084  0.50601  0.96771  1.0000
  S   S15       1.0  0.17063  0.54537  0.59375  1.0000
  H   H63       1.0  0.01356  0.53669  0.02445  1.0000
  H   H64       1.0  0.20532  0.58376  0.44674  1.0000
  H   H65       1.0  0.13094  0.54085  0.67508  1.0000
  C   C41       1.0  0.19753  0.60200  0.50180  1.0000
  S   S16       1.0  0.18649  0.54759  0.19095  1.0000
  C   C42       1.0  0.13811  0.56727  0.68987  1.0000
  H   H66       1.0  0.16842  0.52039  0.41303  1.0000
  Fe  Fe9       1.0  0.19908  0.66353  0.70125  1.0000
  S   S17       1.0  0.17103  0.65401  0.70448  1.0000
  S   S18       1.0  0.21323  0.69239  0.69984  1.0000
  Fe  Fe10      1.0  0.19858  0.62727  0.69511  1.0000
  S   S19       1.0  0.17081  0.61528  0.69837  1.0000
  S   S20       1.0  0.21325  0.61027  0.68855  1.0000
  Fe  Fe11      1.0  0.17152  0.63586  0.65837  1.0000
  S   S21       1.0  0.15523  0.62919  0.60647  1.0000
  Fe  Fe12      1.0  0.17299  0.63428  0.74410  1.0000
  S   S22       1.0  0.16330  0.62607  0.80265  1.0000
  S   S23       1.0  0.19926  0.64673  0.65311  1.0000
  S   S24       1.0  0.20118  0.64503  0.74304  1.0000
  Fe  Fe13      1.0  0.19685  0.65835  0.31593  1.0000
  S   S25       1.0  0.17103  0.65027  0.33982  1.0000
  S   S26       1.0  0.21150  0.68682  0.30601  1.0000
  Fe  Fe14      1.0  0.19639  0.62192  0.31961  1.0000
  S   S27       1.0  0.17112  0.61165  0.34444  1.0000
  S   S28       1.0  0.21024  0.60399  0.31687  1.0000
  Fe  Fe15      1.0  0.16461  0.62728  0.30100  1.0000
  S   S29       1.0  0.14099  0.61167  0.26770  1.0000
  Fe  Fe16      1.0  0.17975  0.63523  0.38063  1.0000
  S   S30       1.0  0.18373  0.63735  0.44314  1.0000
  S   S31       1.0  0.18986  0.63645  0.27469  1.0000
  S   S32       1.0  0.20565  0.64447  0.35788  1.0000
  Fe  Fe17      1.0  0.06746  0.58298  0.02655  1.0000
  S   S33       1.0  0.08341  0.57873  0.07184  1.0000
  S   S34       1.0  0.03850  0.57171  0.02874  1.0000
  Fe  Fe18      1.0  0.09863  0.60192  0.97799  1.0000
  S   S35       1.0  0.11653  0.59902  0.01995  1.0000
  S   S36       1.0  0.10429  0.61273  0.91945  1.0000
  Fe  Fe19      1.0  0.09770  0.57246  0.02673  1.0000
  S   S37       1.0  0.10692  0.55097  0.03230  1.0000
  Fe  Fe20      1.0  0.10125  0.60569  0.06296  1.0000
  S   S38       1.0  0.11429  0.62418  0.11018  1.0000
  S   S39       1.0  0.08074  0.57454  0.98181  1.0000
  S   S40       1.0  0.08438  0.61085  0.02055  1.0000
  C   C43       1.0  0.13499  0.61517  0.22236  1.0000
  C   C44       1.0  0.12394  0.60121  0.20182  1.0000
  C   C45       1.0  0.11806  0.60357  0.16680  1.0000
  C   C46       1.0  0.12277  0.62005  0.15224  1.0000
  C   C47       1.0  0.13377  0.63397  0.17282  1.0000
  C   C48       1.0  0.14001  0.63155  0.20734  1.0000
  H   H67       1.0  0.11987  0.58849  0.21315  1.0000
  H   H68       1.0  0.10957  0.59271  0.15152  1.0000
  H   H69       1.0  0.13744  0.64678  0.16206  1.0000
  H   H70       1.0  0.14835  0.64245  0.22277  1.0000
  C   C49       1.0  0.16322  0.63150  0.56104  1.0000
  C   C50       1.0  0.18033  0.63808  0.55430  1.0000
  C   C51       1.0  0.18625  0.63985  0.51808  1.0000
  C   C52       1.0  0.17520  0.63499  0.48797  1.0000
  C   C53       1.0  0.15806  0.62832  0.49452  1.0000
  C   C54       1.0  0.15213  0.62661  0.53088  1.0000
  H   H71       1.0  0.18903  0.64186  0.57700  1.0000
  H   H72       1.0  0.19953  0.64495  0.51345  1.0000
  H   H73       1.0  0.14938  0.62454  0.47168  1.0000
  H   H74       1.0  0.13886  0.62153  0.53571  1.0000
  C   C55       1.0  0.14676  0.62272  0.83470  1.0000
  C   C56       1.0  0.14865  0.61762  0.87061  1.0000
  C   C57       1.0  0.13598  0.61472  0.89701  1.0000
  C   C58       1.0  0.12111  0.61681  0.88787  1.0000
  C   C59       1.0  0.11925  0.62196  0.85199  1.0000
  C   C60       1.0  0.13193  0.62490  0.82562  1.0000
  H   H75       1.0  0.16003  0.61590  0.87814  1.0000
  H   H76       1.0  0.13774  0.61088  0.92442  1.0000
  H   H77       1.0  0.10785  0.62366  0.84448  1.0000
  H   H78       1.0  0.13020  0.62883  0.79827  1.0000
  H   H79       1.0  0.17383  0.56888  0.69154  1.0000
  C   C61       1.0  0.18918  0.57057  0.50616  1.0000
  C   C62       1.0  0.09754  0.51982  0.99831  1.0000
  C   C63       1.0  0.09255  0.53294  0.01049  1.0000
  C   C64       1.0  0.07647  0.53223  0.00268  1.0000
  C   C65       1.0  0.06569  0.51891  0.98077  1.0000
  H   H80       1.0  0.13113  0.56575  0.71581  1.0000
  H   H81       1.0  0.22592  0.66819  0.47440  1.0000
  H   H82       1.0  0.07236  0.54203  0.01329  1.0000
  H   H83       1.0  0.16387  0.67395  0.77702  1.0000
  C   C66       1.0  0.19407  0.56390  0.22451  1.0000
  C   C67       1.0  0.18952  0.57825  0.22319  1.0000
  C   C68       1.0  0.19442  0.59068  0.25145  1.0000
  C   C69       1.0  0.20444  0.58911  0.28033  1.0000
  C   C70       1.0  0.20956  0.57514  0.28079  1.0000
  C   C71       1.0  0.20416  0.56243  0.25330  1.0000
  H   H84       1.0  0.18184  0.57955  0.20082  1.0000
  H   H85       1.0  0.19052  0.60149  0.25077  1.0000
  H   H86       1.0  0.21744  0.57398  0.30288  1.0000
  H   H87       1.0  0.20804  0.55164  0.25411  1.0000
  H   H88       1.0  0.19310  0.57313  0.74128  1.0000
  H   H89       1.0  0.12812  0.57431  0.34307  1.0000
  H   H90       1.0  0.21081  0.60515  0.49426  1.0000
  H   H91       1.0  0.18647  0.57094  0.53569  1.0000
  C   C72       1.0  0.18361  0.56380  0.61750  1.0000
  C   C73       1.0  0.17947  0.57839  0.61784  1.0000
  C   C74       1.0  0.18906  0.59297  0.63826  1.0000
  C   C75       1.0  0.20264  0.59292  0.65911  1.0000
  C   C76       1.0  0.20707  0.57848  0.65807  1.0000
  C   C77       1.0  0.19755  0.56391  0.63727  1.0000
  H   H92       1.0  0.16858  0.57833  0.60310  1.0000
  H   H93       1.0  0.18576  0.60417  0.63822  1.0000
  H   H94       1.0  0.21762  0.57841  0.67403  1.0000
  H   H95       1.0  0.20088  0.55271  0.63695  1.0000
  C   C78       1.0  0.21800  0.52519  0.35477  1.0000
  H   H96       1.0  0.11804  0.51559  0.36558  1.0000
  H   H97       1.0  0.14919  0.57936  0.69068  1.0000
  H   H98       1.0  0.14828  0.56419  0.36032  1.0000
  C   C79       1.0  0.14288  0.55170  0.68091  1.0000
  H   H99       1.0  0.03948  0.58343  0.10811  1.0000
  H   H100      1.0  0.06410  0.58200  0.18991  1.0000
  H   H101      1.0  0.17523  0.66368  0.82627  1.0000
  H   H102      1.0  0.05137  0.56361  0.11585  1.0000
  C   C80       1.0  0.02769  0.58513  0.18008  1.0000
  H   H103      1.0  0.11860  0.53463  0.11210  1.0000
  H   H104      1.0  0.18799  0.68809  0.91030  1.0000
  C   C81       1.0  0.23303  0.69656  0.31688  1.0000
  C   C82       1.0  0.14247  0.54160  0.74376  1.0000
  N   N3        1.0  0.09591  0.55124  0.88263  1.0000
  C   C83       1.0  0.08426  0.53269  0.87888  1.0000
  C   C84       1.0  0.08511  0.56181  0.88424  1.0000
  C   C85       1.0  0.10518  0.55312  0.91856  1.0000
  C   C86       1.0  0.10771  0.55554  0.85065  1.0000
  N   N4        1.0  0.20062  0.68289  0.82838  1.0000
  C   C87       1.0  0.07501  0.56159  0.84914  1.0000
  C   C88       1.0  0.11763  0.57115  0.92912  1.0000
  C   C89       1.0  0.11687  0.57475  0.84179  1.0000
  H   H105      1.0  0.07503  0.52916  0.90156  1.0000
  H   H106      1.0  0.07681  0.53048  0.85310  1.0000
  H   H107      1.0  0.09226  0.57544  0.89109  1.0000
  H   H108      1.0  0.07606  0.55743  0.90709  1.0000
  H   H109      1.0  0.09619  0.54878  0.94147  1.0000
  H   H110      1.0  0.11263  0.54485  0.91905  1.0000
  H   H111      1.0  0.11744  0.55000  0.85477  1.0000
  H   H112      1.0  0.10096  0.54929  0.82506  1.0000
  H   H113      1.0  0.13363  0.51164  0.70283  1.0000
  H   H114      1.0  0.19407  0.61243  0.49030  1.0000
  H   H115      1.0  0.21789  0.66132  0.42872  1.0000
  H   H116      1.0  0.08285  0.56489  0.82438  1.0000
  H   H117      1.0  0.06460  0.54908  0.84490  1.0000
  H   H118      1.0  0.06930  0.57139  0.85217  1.0000
  H   H119      1.0  0.12832  0.57557  0.91020  1.0000
  H   H120      1.0  0.12286  0.57055  0.95674  1.0000
  H   H121      1.0  0.11179  0.58079  0.93153  1.0000
  H   H122      1.0  0.13054  0.57794  0.84120  1.0000
  H   H123      1.0  0.11478  0.58380  0.86129  1.0000
  H   H124      1.0  0.11328  0.57760  0.81406  1.0000
  N   N5        1.0  0.18669  0.58488  0.48539  1.0000
  C   C90       1.0  0.19255  0.58410  0.44666  1.0000
  C   C91       1.0  0.16870  0.58317  0.48341  1.0000
  C   C92       1.0  0.19303  0.59891  0.42140  1.0000
  C   C93       1.0  0.17879  0.55222  0.49249  1.0000
  C   C94       1.0  0.15875  0.57992  0.51940  1.0000
  H   H125      1.0  0.18445  0.57213  0.43233  1.0000
  H   H126      1.0  0.18339  0.68916  0.76297  1.0000
  S   S41       1.0  0.16792  0.50651  0.34036  1.0000
  H   H127      1.0  0.16148  0.57295  0.46343  1.0000
  S   S42       1.0  0.19720  0.51783  0.56965  1.0000
  H   H128      1.0  0.16797  0.53862  0.29877  1.0000
  H   H129      1.0  0.23042  0.53550  0.35844  1.0000
  H   H130      1.0  0.18278  0.54942  0.46514  1.0000
  H   H131      1.0  0.18072  0.54291  0.51168  1.0000
  H   H132      1.0  0.15793  0.55320  0.23298  1.0000
  C   C95       1.0  0.23445  0.70292  0.71204  1.0000
  H   H133      1.0  0.16274  0.57270  0.53996  1.0000
  H   H134      1.0  0.13876  0.50419  0.07925  1.0000
  C   C96       1.0  0.15778  0.53294  0.69373  1.0000
  H   H135      1.0  0.14797  0.53668  0.80012  1.0000
  C   C97       1.0  0.14776  0.53106  0.77232  1.0000
  N   N6        1.0  0.21405  0.69323  0.43995  1.0000
  H   H136      1.0  0.16590  0.53776  0.66959  1.0000
  H   H137      1.0  0.12934  0.53372  0.73592  1.0000
  H   H138      1.0  0.10186  0.52148  0.85638  1.0000
  C   C98       1.0  0.22968  0.68939  0.43582  1.0000
  H   H139      1.0  0.18943  0.70314  0.40309  1.0000
  H   H140      1.0  0.21277  0.70373  0.52209  1.0000
  H   H141      1.0  0.23351  0.72227  0.31166  1.0000
  H   H142      1.0  0.19682  0.59645  0.39351  1.0000
  H   H143      1.0  0.20575  0.50021  0.33133  1.0000
  H   H144      1.0  0.12680  0.53962  0.27757  1.0000
  H   H145      1.0  0.20254  0.57209  0.50567  1.0000
  C   C99       1.0  0.00691  0.54524  0.02744  1.0000
  H   H146      1.0  0.14177  0.55299  0.75843  1.0000
  C   C100      1.0  0.08658  0.50623  0.97740  1.0000
  C   C101      1.0  0.18265  0.56046  0.73924  1.0000
  N   N7        1.0  0.15296  0.54702  0.70988  1.0000
  C   C102      1.0  0.00710  0.57387  0.03397  1.0000
  C   C103      1.0  0.16833  0.56280  0.71764  1.0000
  C   C104      1.0  0.05105  0.56482  0.14617  1.0000
  C   C105      1.0  0.20267  0.68510  0.40791  1.0000
  Fe  Fe21      1.0  0.17703  0.52194  0.60181  1.0000
  H   H147      1.0  0.05343  0.51866  0.97384  1.0000
  H   H148      1.0  0.23677  0.67288  0.32403  1.0000
  C   C106      1.0  0.01604  0.56303  0.03044  1.0000
  H   H149      1.0  0.16458  0.54587  0.12494  1.0000
  Fe  Fe22      1.0  0.20292  0.50689  0.62173  1.0000
  H   H150      1.0  0.01378  0.58760  0.03592  1.0000
  C   C107      1.0  0.18676  0.68922  0.40463  1.0000
  H   H151      1.0  0.06929  0.62540  0.14839  1.0000
  C   C108      1.0  0.05013  0.59571  0.11251  1.0000
  H   H152      1.0  0.11939  0.55507  0.31679  1.0000
  H   H153      1.0  0.08264  0.50635  0.87237  1.0000
  H   H154      1.0  0.14130  0.53019  0.26769  1.0000
  H   H155      1.0  0.13260  0.57497  0.29599  1.0000
  C   C109      1.0  0.14035  0.54244  0.27726  1.0000
  C   C110      1.0  0.13071  0.56672  0.32046  1.0000
  H   H156      1.0  0.19025  0.55829  0.33985  1.0000
  H   H157      1.0  0.05443  0.62247  0.09772  1.0000
  H   H158      1.0  0.18499  0.60116  0.55501  1.0000
  C   C111      1.0  0.14681  0.56358  0.32994  1.0000
  H   H159      1.0  0.14276  0.52101  0.32967  1.0000
  H   H160      1.0  0.03803  0.56118  0.15503  1.0000
  H   H161      1.0  0.07492  0.58502  0.14785  1.0000
  H   H162      1.0  0.11097  0.51343  0.14818  1.0000
  N   N8        1.0  0.14823  0.54737  0.31473  1.0000
  H   H163      1.0  0.14034  0.55059  0.16393  1.0000
  C   C112      1.0  0.12189  0.52698  0.34761  1.0000
  C   C113      1.0  0.14065  0.53253  0.34025  1.0000
  H   H164      1.0  0.11906  0.53707  0.36272  1.0000
  C   C114      1.0  0.17694  0.55485  0.34675  1.0000
  H   H165      1.0  0.05574  0.55522  0.15750  1.0000
  N   N9        1.0  0.05714  0.59763  0.15104  1.0000
  H   H166      1.0  0.08092  0.61394  0.12927  1.0000
  C   C115      1.0  0.20779  0.67108  0.84660  1.0000
  H   H167      1.0  0.17267  0.56075  0.29183  1.0000
  H   H168      1.0  0.13800  0.55470  0.22630  1.0000
  C   C116      1.0  0.06246  0.58286  0.15978  1.0000
  H   H169      1.0  0.11420  0.52296  0.32235  1.0000
  C   C117      1.0  0.13905  0.55520  0.13629  1.0000
  H   H170      1.0  0.18023  0.68350  0.37864  1.0000
  C   C118      1.0  0.18353  0.68904  0.88209  1.0000
  S   S43       1.0  0.18421  0.51351  0.65536  1.0000
  C   C119      1.0  0.07251  0.61389  0.15227  1.0000
  H   H171      1.0  0.14966  0.55438  0.65436  1.0000
  H   H172      1.0  0.14799  0.50627  0.67522  1.0000
  H   H173      1.0  0.14670  0.53540  0.36775  1.0000
  H   H174      1.0  0.05960  0.59517  0.09246  1.0000
  H   H175      1.0  0.09418  0.62934  0.18459  1.0000
  H   H176      1.0  0.15720  0.57498  0.31945  1.0000
  C   C120      1.0  0.13846  0.51836  0.14567  1.0000
  H   H177      1.0  0.14802  0.52655  0.16557  1.0000
  H   H178      1.0  0.20787  0.71584  0.44762  1.0000
  C   C121      1.0  0.04519  0.59937  0.17926  1.0000
  H   H179      1.0  0.23514  0.72751  0.69393  1.0000
  H   H180      1.0  0.16052  0.54447  0.07698  1.0000
  H   H181      1.0  0.14554  0.57179  0.51339  1.0000
  H   H182      1.0  0.18779  0.55183  0.72493  1.0000
  C   C122      1.0  0.13222  0.54035  0.10815  1.0000
  N   N10       1.0  0.14027  0.52720  0.10922  1.0000
  H   H183      1.0  0.05042  0.59979  0.20734  1.0000
  H   H184      1.0  0.10738  0.51318  0.07402  1.0000
  C   C123      1.0  0.18473  0.67248  0.80820  1.0000
  Fe  Fe23      1.0  0.18357  0.52158  0.21216  1.0000
  H   H185      1.0  0.17792  0.68344  0.42706  1.0000
  H   H186      1.0  0.01868  0.59061  0.19068  1.0000
  H   H187      1.0  0.17595  0.56614  0.36102  1.0000
  H   H188      1.0  0.03860  0.60651  0.07198  1.0000
  H   H189      1.0  0.13694  0.52074  0.05137  1.0000
  H   H190      1.0  0.13829  0.51783  0.77306  1.0000
  H   H191      1.0  0.02271  0.57979  0.15279  1.0000
  C   C124      1.0  0.21877  0.71239  0.44088  1.0000
  H   H192      1.0  0.17721  0.69837  0.88324  1.0000
  C   C125      1.0  0.16917  0.52538  0.09834  1.0000
  H   H193      1.0  0.23533  0.51783  0.22383  1.0000
  C   C126      1.0  0.11439  0.50460  0.07699  1.0000
  H   H194      1.0  0.20972  0.70119  0.87313  1.0000
  C   C127      1.0  0.04407  0.60987  0.09996  1.0000
  H   H195      1.0  0.20235  0.61143  0.43069  1.0000
  H   H196      1.0  0.08790  0.60711  0.19361  1.0000
  H   H197      1.0  0.03417  0.61090  0.11788  1.0000
  H   H198      1.0  0.02751  0.57459  0.19839  1.0000
  H   H199      1.0  0.04368  0.61193  0.17731  1.0000
  H   H200      1.0  0.09792  0.51811  0.90510  1.0000
  C   C128      1.0  0.08307  0.61735  0.18790  1.0000
  H   H201      1.0  0.20941  0.68862  0.38166  1.0000
  H   H202      1.0  0.23435  0.69171  0.40716  1.0000
  H   H203      1.0  0.15898  0.59214  0.53182  1.0000
  H   H204      1.0  0.19846  0.67090  0.40871  1.0000
  H   H205      1.0  0.22387  0.51281  0.30768  1.0000
  C   C129      1.0  0.21297  0.69285  0.79990  1.0000
  H   H206      1.0  0.12992  0.56867  0.66760  1.0000
  H   H207      1.0  0.19754  0.70682  0.84111  1.0000
  C   C130      1.0  0.19619  0.65712  0.87162  1.0000
  C   C131      1.0  0.17618  0.68288  0.78740  1.0000
  H   H208      1.0  0.07624  0.61938  0.21198  1.0000
  C   C132      1.0  0.09244  0.51916  0.87817  1.0000
  H   H209      1.0  0.16644  0.51788  0.07229  1.0000
  Fe  Fe24      1.0  0.17193  0.49957  0.28070  1.0000
  C   C133      1.0  0.21497  0.69242  0.51081  1.0000
  H   H210      1.0  0.15126  0.56467  0.12767  1.0000
  H   H211      1.0  0.16553  0.52876  0.71258  1.0000
  C   C134      1.0  0.17284  0.50315  0.45142  1.0000
  H   H212      1.0  0.21381  0.68413  0.77739  1.0000
  C   C135      1.0  0.14775  0.55577  0.24707  1.0000
  H   H213      1.0  0.17912  0.55641  0.76771  1.0000
  H   H214      1.0  0.18711  0.66372  0.78793  1.0000
  S   S44       1.0  0.18328  0.49969  0.17581  1.0000
  H   H215      1.0  0.21884  0.67853  0.86377  1.0000
  H   H216      1.0  0.15263  0.56920  0.25739  1.0000
  C   C136      1.0  0.15862  0.53662  0.10222  1.0000
  H   H217      1.0  0.17377  0.67657  0.87482  1.0000
  C   C137      1.0  0.19754  0.60401  0.54386  1.0000
  S   S45       1.0  0.15850  0.50761  0.23570  1.0000
  C   C138      1.0  0.16644  0.55016  0.31103  1.0000
  H   H218      1.0  0.16773  0.59500  0.47197  1.0000
  H   H219      1.0  0.20365  0.59619  0.55775  1.0000
  C   C139      1.0  0.12150  0.51337  0.16522  1.0000
  H   H220      1.0  0.19990  0.67175  0.47422  1.0000
  S   S46       1.0  0.19715  0.51520  0.25873  1.0000
  H   H221      1.0  0.17383  0.54384  0.36551  1.0000
  C   C140      1.0  0.13338  0.51434  0.07834  1.0000
  H   H222      1.0  0.20886  0.70245  0.78646  1.0000
  H   H223      1.0  0.09054  0.49622  0.96806  1.0000
  H   H224      1.0  0.21232  0.66420  0.82541  1.0000
  C   C141      1.0  0.19842  0.69555  0.85551  1.0000
  H   H225      1.0  0.21092  0.68199  0.53128  1.0000
  H   H226      1.0  0.17388  0.69250  0.80527  1.0000
  S   S47       1.0  0.23028  0.51714  0.63950  1.0000
  H   H227      1.0  0.13360  0.54617  0.08043  1.0000
  H   H228      1.0  0.18069  0.59993  0.41847  1.0000
  H   H229      1.0  0.13035  0.56214  0.13807  1.0000
  H   H230      1.0  0.19368  0.68919  0.47747  1.0000
  C   C142      1.0  0.14319  0.51655  0.68136  1.0000
  H   H231      1.0  0.21055  0.53045  0.33719  1.0000
  C   C143      1.0  0.98946  0.56714  0.03457  1.0000
  C   C144      1.0  0.20501  0.68601  0.47478  1.0000
  H   H232      1.0  0.21804  0.71772  0.38165  1.0000
  C   C145      1.0  0.21890  0.50907  0.33571  1.0000
  H   H233      1.0  0.13739  0.51859  0.65551  1.0000
  H   H234      1.0  0.18574  0.64754  0.85625  1.0000
  H   H235      1.0  0.16005  0.53022  0.76841  1.0000
  H   H236      1.0  0.12269  0.52173  0.18969  1.0000
  C   C146      1.0  0.23096  0.70285  0.81370  1.0000
  C   C147      1.0  0.22801  0.67094  0.44478  1.0000
  H   H237      1.0  0.20495  0.61756  0.55150  1.0000
  H   H238      1.0  0.11000  0.52038  0.00415  1.0000
  N   N11       1.0  0.22863  0.50013  0.35559  1.0000
  C   C148      1.0  0.17072  0.50869  0.41593  1.0000
  H   H239      1.0  0.19149  0.66242  0.89494  1.0000
  H   H240      1.0  0.22853  0.69590  0.50773  1.0000
  H   H241      1.0  0.21145  0.52221  0.38134  1.0000
  H   H242      1.0  0.16756  0.51669  0.12183  1.0000
  H   H243      1.0  0.18256  0.53384  0.09796  1.0000
  H   H244      1.0  0.17218  0.51057  0.47535  1.0000
  H   H245      1.0  0.23157  0.71134  0.83750  1.0000
  H   H246      1.0  0.23782  0.68051  0.73261  1.0000
  H   H247      1.0  0.14121  0.50650  0.14268  1.0000
  H   H248      1.0  0.22991  0.73574  0.40959  1.0000
  H   H249      1.0  0.22792  0.71831  0.46339  1.0000
  H   H250      1.0  0.20339  0.64988  0.88359  1.0000
  C   C149      1.0  0.22668  0.72175  0.40552  1.0000
  H   H251      1.0  0.21873  0.50290  0.40867  1.0000
  H   H252      1.0  0.23539  0.69152  0.63123  1.0000
  H   H253      1.0  0.11123  0.49600  0.05243  1.0000
  C   C150      1.0  0.98919  0.53847  0.02798  1.0000
  H   H254      1.0  0.11789  0.50012  0.17577  1.0000
  C   C151      1.0  0.17133  0.49912  0.38436  1.0000
  H   H255      1.0  0.10999  0.49617  0.10087  1.0000
  S   S48       1.0  0.15751  0.49629  0.58727  1.0000
  H   H256      1.0  0.23810  0.71136  0.79159  1.0000
  H   H257      1.0  0.23753  0.69410  0.82013  1.0000
  Fe  Fe25      1.0  0.47575  0.05664  0.05544  1.0000
  H   H258      1.0  0.40233  0.01074  0.14426  1.0000
  H   H259      1.0  0.43531  0.03008  0.06781  1.0000
  H   H260      1.0  0.45085  0.15422  0.45692  1.0000
  Fe  Fe26      1.0  0.45707  0.02575  0.00296  1.0000
  S   S49       1.0  0.45709  0.05278  0.00910  1.0000
  H   H261      1.0  0.45867  0.11095  0.37947  1.0000
  H   H262      1.0  0.46986  0.06584  0.86228  1.0000
  H   H263      1.0  0.47121  0.07507  0.79736  1.0000
  H   H264      1.0  0.48316  0.10595  0.22068  1.0000
  H   H265      1.0  0.41641  0.00376  0.16811  1.0000
  Fe  Fe27      1.0  0.47909  0.06148  0.97039  1.0000
  H   H266      1.0  0.41721  0.03900  0.13612  1.0000
  H   H267      1.0  0.47946  0.12544  0.38868  1.0000
  H   H268      1.0  0.46677  0.11271  0.42497  1.0000
  S   S50       1.0  0.47746  0.03430  0.96068  1.0000
  H   H269      1.0  0.43424  0.05242  0.18713  1.0000
  C   C152      1.0  0.46676  0.12018  0.40008  1.0000
  C   C153      1.0  0.42421  0.02027  0.08058  1.0000
  H   H270      1.0  0.47993  0.23566  0.20897  1.0000
  H   H271      1.0  0.42786  0.02998  0.19595  1.0000
  C   C154      1.0  0.44445  0.00039  0.11069  1.0000
  H   H272      1.0  0.42288  0.00823  0.06630  1.0000
  S   S51       1.0  0.47427  0.02928  0.05123  1.0000
  H   H273      1.0  0.44982  0.17709  0.41137  1.0000
  C   C155      1.0  0.45330  0.16600  0.40403  1.0000
  H   H274      1.0  0.43804  0.04730  0.12065  1.0000
  H   H275      1.0  0.48232  0.13476  0.46005  1.0000
  H   H276      1.0  0.44267  0.99947  0.08053  1.0000
  H   H277      1.0  0.41064  0.03778  0.07588  1.0000
  C   C156      1.0  0.40886  0.02428  0.06940  1.0000
  S   S52       1.0  0.43293  0.00142  0.99850  1.0000
  C   C157      1.0  0.48656  0.15893  0.40759  1.0000
  H   H278      1.0  0.44536  0.01589  0.15754  1.0000
  S   S53       1.0  0.47182  0.06833  0.11065  1.0000
  C   C158      1.0  0.42914  0.03685  0.13721  1.0000
  H   H279      1.0  0.44871  0.04232  0.17964  1.0000
  C   C159      1.0  0.46118  0.16085  0.43774  1.0000
  H   H280      1.0  0.39730  0.01545  0.08214  1.0000
  N   N12       1.0  0.42704  0.01947  0.12120  1.0000
  C   C160      1.0  0.47878  0.23978  0.77064  1.0000
  C   C161      1.0  0.41264  0.00601  0.14002  1.0000
  C   C162      1.0  0.43530  0.04030  0.17738  1.0000
  H   H281      1.0  0.45383  0.02788  0.11765  1.0000
  H   H282      1.0  0.44169  0.15535  0.39524  1.0000
  H   H283      1.0  0.45688  0.13821  0.38030  1.0000
  H   H284      1.0  0.47868  0.24232  0.38506  1.0000
  H   H285      1.0  0.46188  0.16969  0.38042  1.0000
  N   N13       1.0  0.47104  0.14976  0.42952  1.0000
  C   C163      1.0  0.47531  0.14327  0.46512  1.0000
  H   H286      1.0  0.46886  0.17287  0.45233  1.0000
  C   C164      1.0  0.44308  0.01668  0.12771  1.0000
  H   H287      1.0  0.46373  0.13527  0.47949  1.0000
  H   H288      1.0  0.40715  0.02266  0.03917  1.0000
  H   H289      1.0  0.46524  0.08643  0.17253  1.0000
  C   C165      1.0  0.45982  0.13434  0.40776  1.0000
  H   H290      1.0  0.45724  0.00072  0.11589  1.0000
  H   H291      1.0  0.44764  0.12818  0.42174  1.0000
  H   H292      1.0  0.47045  0.23579  0.74620  1.0000
  C   C166      1.0  0.47856  0.08966  0.17205  1.0000
  C   C167      1.0  0.47879  0.08394  0.81797  1.0000
  C   C168      1.0  0.47798  0.07864  0.85490  1.0000
  C   C169      1.0  0.48544  0.08277  0.14393  1.0000
  H   H293      1.0  0.47649  0.22786  0.78632  1.0000
  S   S54       1.0  0.48774  0.08389  0.92920  1.0000
  H   H294      1.0  0.48389  0.15733  0.37755  1.0000
  H   H295      1.0  0.48814  0.18567  0.40243  1.0000
  C   C170      1.0  0.48759  0.08993  0.88216  1.0000
  H   H296      1.0  0.48710  0.15027  0.51855  1.0000
  C   C171      1.0  0.48609  0.15684  0.49285  1.0000
  H   H297      1.0  0.48576  0.99725  0.97544  1.0000
  H   H298      1.0  0.48072  0.16647  0.50046  1.0000
  H   H299      1.0  0.39871  0.39628  0.07653  1.0000
  H   H300      1.0  0.46343  0.27848  0.78866  1.0000
  H   H301      1.0  0.25915  0.43308  0.57305  1.0000
  H   H302      1.0  0.38460  0.39492  0.12560  1.0000
  H   H303      1.0  0.28337  0.48875  0.57017  1.0000
  S   S55       1.0  0.46350  0.33678  0.98583  1.0000
  H   H304      1.0  0.35458  0.39296  0.08878  1.0000
  H   H305      1.0  0.40107  0.42190  0.09506  1.0000
  C   C172      1.0  0.44705  0.46914  0.00370  1.0000
  H   H306      1.0  0.26702  0.43530  0.51394  1.0000
  H   H307      1.0  0.30656  0.47499  0.54330  1.0000
  Fe  Fe28      1.0  0.45777  0.36048  0.97171  1.0000
  S   S56       1.0  0.43204  0.36270  0.96729  1.0000
  C   C173      1.0  0.26605  0.44771  0.52211  1.0000
  S   S57       1.0  0.47413  0.36621  0.92190  1.0000
  H   H308      1.0  0.46602  0.46452  0.87839  1.0000
  S   S58       1.0  0.32325  0.47412  0.63955  1.0000
  H   H309      1.0  0.45951  0.47541  0.01665  1.0000
  H   H310      1.0  0.28134  0.48787  0.78206  1.0000
  H   H311      1.0  0.25622  0.44999  0.15846  1.0000
  H   H312      1.0  0.47311  0.31922  0.09436  1.0000
  H   H313      1.0  0.36413  0.38747  0.14337  1.0000
  H   H314      1.0  0.29585  0.47860  0.19112  1.0000
  H   H315      1.0  0.28009  0.43262  0.21759  1.0000
  C   C174      1.0  0.30008  0.45591  0.09363  1.0000
  S   S59       1.0  0.32457  0.46012  0.21049  1.0000
  C   C175      1.0  0.48459  0.24822  0.22356  1.0000
  H   H316      1.0  0.29999  0.45486  0.06324  1.0000
  C   C176      1.0  0.28324  0.44589  0.16572  1.0000
  H   H317      1.0  0.26675  0.46987  0.18122  1.0000
  S   S60       1.0  0.30610  0.48526  0.27935  1.0000
  H   H318      1.0  0.34392  0.38732  0.98511  1.0000
  Fe  Fe29      1.0  0.39334  0.44139  0.96665  1.0000
  S   S61       1.0  0.39274  0.45947  0.01249  1.0000
  S   S62       1.0  0.41419  0.43056  0.97262  1.0000
  Fe  Fe30      1.0  0.36599  0.44897  0.92246  1.0000
  S   S63       1.0  0.36299  0.46672  0.96602  1.0000
  S   S64       1.0  0.35008  0.44319  0.86982  1.0000
  Fe  Fe31      1.0  0.39091  0.47693  0.96801  1.0000
  H   H319      1.0  0.29070  0.44584  0.48175  1.0000
  Fe  Fe32      1.0  0.36483  0.44794  0.00765  1.0000
  S   S65       1.0  0.34813  0.43804  0.05775  1.0000
  S   S66       1.0  0.39395  0.46022  0.92245  1.0000
  S   S67       1.0  0.36537  0.42874  0.96385  1.0000
  H   H320      1.0  0.33012  0.43946  0.80439  1.0000
  H   H321      1.0  0.35620  0.37323  0.07525  1.0000
  H   H322      1.0  0.47122  0.30018  0.14732  1.0000
  H   H323      1.0  0.44739  0.49296  0.98227  1.0000
  C   C177      1.0  0.33224  0.45569  0.16759  1.0000
  C   C178      1.0  0.32662  0.43850  0.15613  1.0000
  C   C179      1.0  0.33166  0.43369  0.12266  1.0000
  C   C180      1.0  0.34256  0.44590  0.09953  1.0000
  H   H324      1.0  0.44649  0.44738  0.87063  1.0000
  Fe  Fe33      1.0  0.48151  0.34428  0.93809  1.0000
  H   H325      1.0  0.31828  0.42870  0.17342  1.0000
  H   H326      1.0  0.32707  0.42029  0.11471  1.0000
  H   H327      1.0  0.42738  0.47749  0.89066  1.0000
  C   C181      1.0  0.28426  0.45883  0.10593  1.0000
  H   H328      1.0  0.24509  0.46600  0.64529  1.0000
  H   H329      1.0  0.27343  0.48649  0.24196  1.0000
  C   C182      1.0  0.47675  0.27452  0.72548  1.0000
  H   H330      1.0  0.30343  0.46777  0.47979  1.0000
  C   C183      1.0  0.44673  0.46231  0.91968  1.0000
  N   N14       1.0  0.45390  0.47989  0.93739  1.0000
  H   H331      1.0  0.47436  0.26010  0.40252  1.0000
  H   H332      1.0  0.28389  0.46981  0.08986  1.0000
  Fe  Fe34      1.0  0.34172  0.49222  0.67974  1.0000
  N   N15       1.0  0.48514  0.27135  0.79213  1.0000
  H   H333      1.0  0.28877  0.45522  0.22316  1.0000
  H   H334      1.0  0.42771  0.49479  0.92068  1.0000
  C   C184      1.0  0.35486  0.47794  0.76905  1.0000
  C   C185      1.0  0.34158  0.46215  0.77187  1.0000
  C   C186      1.0  0.34030  0.45175  0.80284  1.0000
  C   C187      1.0  0.35211  0.45701  0.83166  1.0000
  C   C188      1.0  0.36525  0.47291  0.82906  1.0000
  H   H335      1.0  0.30897  0.47530  0.15748  1.0000
  C   C189      1.0  0.38004  0.41478  0.05533  1.0000
  C   C190      1.0  0.37188  0.38548  0.12088  1.0000
  H   H336      1.0  0.37444  0.47717  0.85088  1.0000
  H   H337      1.0  0.27084  0.47812  0.49123  1.0000
  C   C191      1.0  0.42754  0.38187  0.96703  1.0000
  C   C192      1.0  0.41144  0.38093  0.95711  1.0000
  C   C193      1.0  0.40721  0.39567  0.95757  1.0000
  C   C194      1.0  0.41897  0.41160  0.96870  1.0000
  C   C195      1.0  0.43509  0.41256  0.97841  1.0000
  C   C196      1.0  0.43938  0.39788  0.97741  1.0000
  H   H338      1.0  0.40217  0.36867  0.94885  1.0000
  H   H339      1.0  0.39483  0.39466  0.94954  1.0000
  H   H340      1.0  0.44434  0.42472  0.98714  1.0000
  H   H341      1.0  0.45179  0.39888  0.98521  1.0000
  H   H342      1.0  0.38560  0.36841  0.01746  1.0000
  C   C197      1.0  0.24963  0.47975  0.64181  1.0000
  C   C198      1.0  0.47415  0.25262  0.79478  1.0000
  H   H343      1.0  0.30804  0.44709  0.52991  1.0000
  C   C199      1.0  0.26686  0.48917  0.64080  1.0000
  C   C200      1.0  0.29693  0.47700  0.16109  1.0000
  H   H344      1.0  0.47177  0.28486  0.72888  1.0000
  H   H345      1.0  0.35019  0.47576  0.46503  1.0000
  H   H346      1.0  0.39899  0.39880  0.02917  1.0000
  C   C201      1.0  0.36664  0.48321  0.79793  1.0000
  N   N16       1.0  0.28257  0.46226  0.51697  1.0000
  H   H347      1.0  0.24287  0.47047  0.23584  1.0000
  H   H348      1.0  0.44992  0.45281  0.93597  1.0000
  C   C202      1.0  0.33746  0.48931  0.49531  1.0000
  C   C203      1.0  0.45242  0.49351  0.91265  1.0000
  H   H349      1.0  0.25647  0.44909  0.50329  1.0000
  H   H350      1.0  0.33247  0.45778  0.74992  1.0000
  H   H351      1.0  0.48364  0.39275  0.86445  1.0000
  C   C204      1.0  0.38928  0.42390  0.09028  1.0000
  C   C205      1.0  0.26610  0.46292  0.15475  1.0000
  H   H352      1.0  0.36897  0.41835  0.05345  1.0000
  C   C206      1.0  0.29485  0.46373  0.54759  1.0000
  H   H353      1.0  0.43770  0.46812  0.02520  1.0000
  H   H354      1.0  0.27338  0.44754  0.09595  1.0000
  H   H355      1.0  0.26802  0.45244  0.44589  1.0000
  C   C207      1.0  0.36373  0.38671  0.08366  1.0000
  C   C208      1.0  0.44433  0.47974  0.97179  1.0000
  S   S68       1.0  0.34366  0.48403  0.53852  1.0000
  C   C209      1.0  0.29024  0.45890  0.48194  1.0000
  H   H356      1.0  0.29572  0.44509  0.16325  1.0000
  N   N17       1.0  0.28270  0.46152  0.14654  1.0000
  H   H357      1.0  0.37182  0.37236  0.12468  1.0000
  C   C210      1.0  0.33704  0.48644  0.42829  1.0000
  C   C211      1.0  0.34829  0.46329  0.11056  1.0000
  H   H358      1.0  0.28879  0.43591  0.55417  1.0000
  H   H359      1.0  0.47348  0.24833  0.82371  1.0000
  H   H360      1.0  0.48149  0.28793  0.86302  1.0000
  S   S69       1.0  0.34610  0.49461  0.29167  1.0000
  C   C212      1.0  0.36612  0.38977  0.01677  1.0000
  C   C213      1.0  0.34309  0.46818  0.14451  1.0000
  H   H361      1.0  0.30052  0.44373  0.10396  1.0000
  C   C214      1.0  0.25866  0.44502  0.56122  1.0000
  H   H362      1.0  0.40012  0.37082  0.05353  1.0000
  H   H363      1.0  0.39270  0.43793  0.08709  1.0000
  H   H364      1.0  0.46442  0.26755  0.85450  1.0000
  N   N18       1.0  0.37521  0.39559  0.05295  1.0000
  C   C215      1.0  0.28153  0.46029  0.44577  1.0000
  C   C216      1.0  0.27452  0.48633  0.54687  1.0000
  C   C217      1.0  0.28137  0.48743  0.75169  1.0000
  C   C218      1.0  0.39086  0.39164  0.05171  1.0000
  H   H365      1.0  0.37845  0.36397  0.06423  1.0000
  H   H366      1.0  0.34057  0.48129  0.40381  1.0000
  C   C219      1.0  0.25872  0.47141  0.12567  1.0000
  H   H367      1.0  0.38800  0.42105  0.03164  1.0000
  H   H368      1.0  0.48188  0.27566  0.69736  1.0000
  Fe  Fe35      1.0  0.32751  0.48395  0.24531  1.0000
  H   H369      1.0  0.38109  0.42030  0.11455  1.0000
  C   C220      1.0  0.45237  0.46094  0.88013  1.0000
  C   C221      1.0  0.38833  0.37257  0.04655  1.0000
  H   H370      1.0  0.34839  0.40349  0.01971  1.0000
  C   C222      1.0  0.47532  0.28203  0.80443  1.0000
  H   H371      1.0  0.44540  0.45594  0.99517  1.0000
  C   C223      1.0  0.48253  0.32318  0.11575  1.0000
  H   H372      1.0  0.26439  0.45557  0.58114  1.0000
  H   H373      1.0  0.31170  0.46674  0.10138  1.0000
  H   H374      1.0  0.44825  0.46869  0.86081  1.0000
  H   H375      1.0  0.35671  0.47291  0.09308  1.0000
  H   H376      1.0  0.26677  0.44442  0.21331  1.0000
  S   S70       1.0  0.28078  0.47844  0.64753  1.0000
  C   C224      1.0  0.27941  0.44473  0.20719  1.0000
  H   H377      1.0  0.26173  0.47817  0.55504  1.0000
  H   H378      1.0  0.27431  0.43395  0.15257  1.0000
  C   C225      1.0  0.34859  0.39064  0.01372  1.0000
  H   H379      1.0  0.48675  0.26529  0.17943  1.0000
  H   H380      1.0  0.28714  0.45556  0.42279  1.0000
  H   H381      1.0  0.33951  0.38119  0.03169  1.0000
  H   H382      1.0  0.37377  0.39721  0.99371  1.0000
  S   S71       1.0  0.47749  0.37745  0.01003  1.0000
  H   H383      1.0  0.36402  0.37616  0.01063  1.0000
  H   H384      1.0  0.47356  0.25101  0.23226  1.0000
  H   H385      1.0  0.46110  0.25071  0.78693  1.0000
  Fe  Fe36      1.0  0.30893  0.49166  0.64467  1.0000
  H   H386      1.0  0.24525  0.44310  0.55963  1.0000
  H   H387      1.0  0.28362  0.47384  0.43947  1.0000
  H   H388      1.0  0.30707  0.44956  0.57815  1.0000
  H   H389      1.0  0.46161  0.28749  0.84958  1.0000
  H   H390      1.0  0.29210  0.48920  0.50388  1.0000
  H   H391      1.0  0.30014  0.49446  0.11432  1.0000
  C   C226      1.0  0.43467  0.49085  0.89925  1.0000
  Fe  Fe37      1.0  0.48456  0.35457  0.02144  1.0000
  C   C227      1.0  0.34241  0.48326  0.46308  1.0000
  C   C228      1.0  0.28027  0.47910  0.51289  1.0000
  H   H392      1.0  0.43287  0.45722  0.91948  1.0000
  H   H393      1.0  0.28922  0.48014  0.74330  1.0000
  H   H394      1.0  0.34757  0.48153  0.15286  1.0000
  C   C229      1.0  0.29877  0.49434  0.14448  1.0000
  H   H395      1.0  0.29047  0.46634  0.57458  1.0000
  C   C230      1.0  0.26520  0.49335  0.23782  1.0000
  C   C231      1.0  0.29978  0.44802  0.55233  1.0000
  H   H396      1.0  0.47765  0.33956  0.83523  1.0000
  S   S72       1.0  0.35771  0.49140  0.72996  1.0000
  C   C232      1.0  0.24788  0.48431  0.23431  1.0000
  C   C233      1.0  0.47208  0.48400  0.94575  1.0000
  H   H397      1.0  0.26867  0.48003  0.74083  1.0000
  H   H398      1.0  0.24802  0.47384  0.13780  1.0000
  H   H399      1.0  0.43068  0.47485  0.96593  1.0000
  H   H400      1.0  0.46648  0.26185  0.72708  1.0000
  C   C234      1.0  0.47053  0.28095  0.84529  1.0000
  H   H401      1.0  0.25382  0.46271  0.10165  1.0000
  C   C235      1.0  0.48150  0.31239  0.14593  1.0000
  H   H402      1.0  0.26761  0.48383  0.11601  1.0000
  H   H403      1.0  0.48483  0.33963  0.76927  1.0000
  H   H404      1.0  0.48222  0.29582  0.79864  1.0000
  H   H405      1.0  0.47380  0.47358  0.96182  1.0000
  Fe  Fe38      1.0  0.33653  0.49193  0.59404  1.0000
  C   C236      1.0  0.48461  0.25562  0.39582  1.0000
  H   H406      1.0  0.23980  0.48170  0.34000  1.0000
  H   H407      1.0  0.47910  0.48465  0.92004  1.0000
  C   C237      1.0  0.48749  0.33533  0.82685  1.0000
  H   H408      1.0  0.41626  0.49466  0.03013  1.0000
  H   H409      1.0  0.48672  0.24704  0.45041  1.0000
  Fe  Fe39      1.0  0.45545  0.65030  0.67132  1.0000
  H   H410      1.0  0.28330  0.54407  0.73688  1.0000
  S   S73       1.0  0.44450  0.67102  0.66581  1.0000
  Fe  Fe40      1.0  0.44709  0.61172  0.66495  1.0000
  S   S74       1.0  0.47415  0.61506  0.66344  1.0000
  S   S75       1.0  0.43015  0.58379  0.66400  1.0000
  Fe  Fe41      1.0  0.47707  0.63335  0.71089  1.0000
  H   H411      1.0  0.25585  0.53111  0.71655  1.0000
  Fe  Fe42      1.0  0.47688  0.63674  0.62467  1.0000
  H   H412      1.0  0.46621  0.71721  0.44843  1.0000
  S   S76       1.0  0.44984  0.62936  0.71336  1.0000
  S   S77       1.0  0.44970  0.63189  0.62308  1.0000
  Fe  Fe43      1.0  0.34059  0.52360  0.64008  1.0000
  S   S78       1.0  0.35175  0.55262  0.64172  1.0000
  H   H413      1.0  0.44283  0.66267  0.42746  1.0000
  Fe  Fe44      1.0  0.47131  0.64641  0.34871  1.0000
  S   S79       1.0  0.44799  0.65157  0.34101  1.0000
  H   H414      1.0  0.33326  0.61027  0.20891  1.0000
  H   H415      1.0  0.39016  0.58339  0.50865  1.0000
  S   S80       1.0  0.44480  0.63470  0.25792  1.0000
  Fe  Fe45      1.0  0.45745  0.66073  0.28501  1.0000
  S   S81       1.0  0.45135  0.68338  0.26548  1.0000
  Fe  Fe46      1.0  0.43733  0.62542  0.31501  1.0000
  S   S82       1.0  0.41181  0.60859  0.33469  1.0000
  S   S83       1.0  0.46011  0.61952  0.32600  1.0000
  H   H416      1.0  0.41292  0.52209  0.71104  1.0000
  S   S84       1.0  0.33064  0.52485  0.30015  1.0000
  Fe  Fe47      1.0  0.34989  0.51999  0.26603  1.0000
  S   S85       1.0  0.37541  0.53843  0.25009  1.0000
  S   S86       1.0  0.47502  0.53153  0.04052  1.0000
  H   H417      1.0  0.26712  0.69641  0.75261  1.0000
  C   C238      1.0  0.45517  0.52502  0.02074  1.0000
  C   C239      1.0  0.45243  0.53311  0.98951  1.0000
  H   H418      1.0  0.31248  0.54751  0.75329  1.0000
  H   H419      1.0  0.30321  0.69827  0.66490  1.0000
  H   H420      1.0  0.43237  0.57565  0.74305  1.0000
  C   C240      1.0  0.44207  0.51133  0.03577  1.0000
  H   H421      1.0  0.46253  0.54359  0.97761  1.0000
  H   H422      1.0  0.25309  0.52759  0.76562  1.0000
  H   H423      1.0  0.30312  0.72394  0.63174  1.0000
  C   C241      1.0  0.26764  0.71269  0.33165  1.0000
  S   S87       1.0  0.32638  0.50850  0.68756  1.0000
  C   C242      1.0  0.46380  0.70544  0.27027  1.0000
  N   N19       1.0  0.28059  0.51777  0.74693  1.0000
  C   C243      1.0  0.24393  0.50587  0.63650  1.0000
  C   C244      1.0  0.25219  0.52133  0.73839  1.0000
  H   H424      1.0  0.24606  0.69328  0.58974  1.0000
  C   C245      1.0  0.45635  0.71752  0.26476  1.0000
  H   H425      1.0  0.30355  0.53952  0.81629  1.0000
  H   H426      1.0  0.47222  0.72777  0.36752  1.0000
  H   H427      1.0  0.25757  0.71122  0.24682  1.0000
  H   H428      1.0  0.43309  0.67733  0.43903  1.0000
  H   H429      1.0  0.36133  0.56032  0.54560  1.0000
  C   C246      1.0  0.40257  0.58842  0.31317  1.0000
  C   C247      1.0  0.38764  0.57656  0.32687  1.0000
  C   C248      1.0  0.37941  0.56084  0.30849  1.0000
  C   C249      1.0  0.38607  0.55703  0.27621  1.0000
  C   C250      1.0  0.40118  0.56874  0.26303  1.0000
  C   C251      1.0  0.40944  0.58439  0.28148  1.0000
  H   H430      1.0  0.38234  0.57965  0.35145  1.0000
  H   H431      1.0  0.36781  0.55182  0.31890  1.0000
  H   H432      1.0  0.40638  0.56581  0.23813  1.0000
  H   H433      1.0  0.42094  0.59348  0.27079  1.0000
  H   H434      1.0  0.27248  0.71875  0.18259  1.0000
  C   C252      1.0  0.44004  0.71014  0.45329  1.0000
  H   H435      1.0  0.25572  0.49842  0.75394  1.0000
  H   H436      1.0  0.24012  0.69825  0.45279  1.0000
  H   H437      1.0  0.42197  0.52885  0.75509  1.0000
  C   C253      1.0  0.24363  0.69415  0.72807  1.0000
  H   H438      1.0  0.43458  0.53345  0.94844  1.0000
  H   H439      1.0  0.34788  0.61558  0.24591  1.0000
  H   H440      1.0  0.32712  0.60010  0.25180  1.0000
  H   H441      1.0  0.43085  0.57976  0.79032  1.0000
  H   H442      1.0  0.35317  0.56908  0.17535  1.0000
  C   C254      1.0  0.45544  0.69331  0.67285  1.0000
  C   C255      1.0  0.47064  0.69978  0.69188  1.0000
  C   C256      1.0  0.35398  0.54658  0.53981  1.0000
  C   C257      1.0  0.47152  0.72907  0.68504  1.0000
  C   C258      1.0  0.45660  0.72265  0.66503  1.0000
  C   C259      1.0  0.44853  0.70484  0.65930  1.0000
  C   C260      1.0  0.47852  0.71757  0.69832  1.0000
  H   H443      1.0  0.37678  0.51335  0.50564  1.0000
  H   H444      1.0  0.45107  0.73135  0.65472  1.0000
  H   H445      1.0  0.43678  0.69994  0.64458  1.0000
  H   H446      1.0  0.37296  0.61219  0.28937  1.0000
  H   H447      1.0  0.32615  0.55723  0.29239  1.0000
  N   N20       1.0  0.27725  0.74223  0.21462  1.0000
  H   H448      1.0  0.27301  0.50970  0.80245  1.0000
  C   C261      1.0  0.37358  0.56179  0.64824  1.0000
  C   C262      1.0  0.38251  0.55138  0.65571  1.0000
  C   C263      1.0  0.39983  0.55841  0.65942  1.0000
  C   C264      1.0  0.40847  0.57609  0.65730  1.0000
  C   C265      1.0  0.39965  0.58679  0.65074  1.0000
  C   C266      1.0  0.38219  0.57960  0.64593  1.0000
  H   H449      1.0  0.37613  0.53792  0.65954  1.0000
  H   H450      1.0  0.40659  0.55010  0.66451  1.0000
  H   H451      1.0  0.40626  0.60051  0.64927  1.0000
  H   H452      1.0  0.37538  0.58783  0.64057  1.0000
  H   H453      1.0  0.29785  0.51786  0.83121  1.0000
  H   H454      1.0  0.26079  0.50432  0.70801  1.0000
  H   H455      1.0  0.26884  0.71016  0.56685  1.0000
  H   H456      1.0  0.35979  0.54324  0.46665  1.0000
  C   C267      1.0  0.39536  0.52749  0.54561  1.0000
  H   H457      1.0  0.42508  0.54382  0.04998  1.0000
  H   H458      1.0  0.26570  0.52904  0.63232  1.0000
  C   C268      1.0  0.40425  0.53910  0.81014  1.0000
  C   C269      1.0  0.29898  0.52594  0.80668  1.0000
  S   S88       1.0  0.31716  0.49770  0.38321  1.0000
  C   C270      1.0  0.26117  0.51524  0.63457  1.0000
  H   H459      1.0  0.47241  0.54695  0.12185  1.0000
  H   H460      1.0  0.33155  0.58018  0.20755  1.0000
  H   H461      1.0  0.27403  0.49898  0.54002  1.0000
  H   H462      1.0  0.37680  0.58565  0.26110  1.0000
  H   H463      1.0  0.28085  0.68110  0.62658  1.0000
  H   H464      1.0  0.44417  0.50512  0.06007  1.0000
  H   H465      1.0  0.37140  0.56878  0.48897  1.0000
  H   H466      1.0  0.47604  0.69104  0.70257  1.0000
  S   S89       1.0  0.33222  0.50914  0.21877  1.0000
  H   H467      1.0  0.23840  0.71990  0.39890  1.0000
  H   H468      1.0  0.35149  0.54831  0.19062  1.0000
  H   H469      1.0  0.34597  0.54484  0.51518  1.0000
  H   H470      1.0  0.47196  0.70158  0.55893  1.0000
  C   C271      1.0  0.36725  0.53520  0.47080  1.0000
  H   H471      1.0  0.27715  0.53144  0.79481  1.0000
  S   S90       1.0  0.32150  0.50855  0.59789  1.0000
  S   S91       1.0  0.29365  0.52304  0.23769  1.0000
  H   H472      1.0  0.42256  0.54440  0.72005  1.0000
  C   C272      1.0  0.43664  0.52732  0.97293  1.0000
  H   H473      1.0  0.26705  0.68695  0.33662  1.0000
  H   H474      1.0  0.30214  0.51036  0.74111  1.0000
  H   H475      1.0  0.26887  0.53102  0.34427  1.0000
  C   C273      1.0  0.26093  0.51996  0.23043  1.0000
  H   H476      1.0  0.28997  0.72251  0.57544  1.0000
  H   H477      1.0  0.41239  0.56428  0.83909  1.0000
  H   H478      1.0  0.43854  0.72150  0.46630  1.0000
  H   H479      1.0  0.25308  0.50547  0.37921  1.0000
  H   H480      1.0  0.28613  0.69842  0.69342  1.0000
  H   H481      1.0  0.46512  0.69006  0.43188  1.0000
  H   H482      1.0  0.39390  0.56120  0.53692  1.0000
  H   H483      1.0  0.25930  0.51333  0.31379  1.0000
  N   N21       1.0  0.27816  0.70555  0.61981  1.0000
  H   H484      1.0  0.48247  0.51237  0.94941  1.0000
  C   C274      1.0  0.40736  0.56253  0.76481  1.0000
  C   C275      1.0  0.24217  0.72064  0.70630  1.0000
  H   H485      1.0  0.27870  0.69058  0.54571  1.0000
  H   H486      1.0  0.33511  0.55692  0.23215  1.0000
  H   H487      1.0  0.30574  0.71568  0.69555  1.0000
  H   H488      1.0  0.38673  0.52190  0.56853  1.0000
  C   C276      1.0  0.38988  0.55735  0.50800  1.0000
  C   C277      1.0  0.25975  0.69475  0.33163  1.0000
  H   H489      1.0  0.25091  0.53002  0.31864  1.0000
  H   H490      1.0  0.28764  0.72579  0.66133  1.0000
  C   C278      1.0  0.24082  0.71455  0.31737  1.0000
  C   C279      1.0  0.29333  0.72361  0.23903  1.0000
  H   H491      1.0  0.45130  0.54143  0.13506  1.0000
  H   H492      1.0  0.26109  0.67634  0.57117  1.0000
  C   C280      1.0  0.35639  0.56217  0.19802  1.0000
  C   C281      1.0  0.48821  0.71706  0.39378  1.0000
  H   H493      1.0  0.35104  0.59522  0.19424  1.0000
  H   H494      1.0  0.45271  0.67354  0.56431  1.0000
  N   N22       1.0  0.39784  0.54415  0.77533  1.0000
  C   C282      1.0  0.37988  0.54180  0.78203  1.0000
  C   C283      1.0  0.47146  0.71469  0.37493  1.0000
  C   C284      1.0  0.39789  0.53189  0.74486  1.0000
  S   S92       1.0  0.47947  0.61433  0.23403  1.0000
  C   C285      1.0  0.37007  0.54475  0.74898  1.0000
  C   C286      1.0  0.30714  0.54306  0.72577  1.0000
  C   C287      1.0  0.41497  0.53206  0.73276  1.0000
  H   H495      1.0  0.42931  0.69437  0.38326  1.0000
  H   H496      1.0  0.37268  0.52859  0.79197  1.0000
  H   H497      1.0  0.37902  0.55073  0.80392  1.0000
  H   H498      1.0  0.40307  0.57133  0.78128  1.0000
  C   C288      1.0  0.28762  0.73886  0.24481  1.0000
  H   H499      1.0  0.39012  0.51848  0.75235  1.0000
  H   H500      1.0  0.39215  0.53449  0.71954  1.0000
  H   H501      1.0  0.40453  0.56461  0.73587  1.0000
  C   C289      1.0  0.24357  0.51094  0.22765  1.0000
  H   H502      1.0  0.35803  0.54504  0.75871  1.0000
  H   H503      1.0  0.37668  0.55712  0.73531  1.0000
  H   H504      1.0  0.36682  0.53402  0.72872  1.0000
  H   H505      1.0  0.31025  0.50439  0.15559  1.0000
  C   C290      1.0  0.46283  0.55240  0.12840  1.0000
  H   H506      1.0  0.26385  0.73645  0.32563  1.0000
  S   S93       1.0  0.48186  0.65735  0.29364  1.0000
  H   H507      1.0  0.45850  0.72975  0.42174  1.0000
  S   S94       1.0  0.40452  0.50541  0.96403  1.0000
  C   C291      1.0  0.48675  0.61442  0.18805  1.0000
  C   C292      1.0  0.48242  0.74093  0.27914  1.0000
  H   H508      1.0  0.48491  0.63822  0.17216  1.0000
  H   H509      1.0  0.47006  0.66777  0.55591  1.0000
  C   C293      1.0  0.46516  0.67494  0.57518  1.0000
  H   H510      1.0  0.28465  0.71192  0.25245  1.0000
  H   H511      1.0  0.35787  0.52191  0.47120  1.0000
  C   C294      1.0  0.25664  0.52213  0.33345  1.0000
  C   C295      1.0  0.43891  0.71870  0.35751  1.0000
  C   C296      1.0  0.27480  0.68203  0.56968  1.0000
  C   C297      1.0  0.27267  0.73241  0.59994  1.0000
  H   H512      1.0  0.40134  0.55790  0.49331  1.0000
  Fe  Fe48      1.0  0.31231  0.51131  0.25559  1.0000
  H   H513      1.0  0.34541  0.54206  0.56328  1.0000
  H   H514      1.0  0.44232  0.69493  0.34606  1.0000
  H   H515      1.0  0.40302  0.51949  0.54247  1.0000
  H   H516      1.0  0.45685  0.50617  0.92714  1.0000
  H   H517      1.0  0.39068  0.57531  0.46391  1.0000
  C   C298      1.0  0.34870  0.56464  0.23469  1.0000
  H   H518      1.0  0.25891  0.72931  0.17271  1.0000
  C   C299      1.0  0.32190  0.50202  0.45762  1.0000
  H   H519      1.0  0.47298  0.59138  0.32775  1.0000
  H   H520      1.0  0.32383  0.50413  0.51673  1.0000
  C   C300      1.0  0.45665  0.68832  0.40780  1.0000
  H   H521      1.0  0.46747  0.56081  0.15285  1.0000
  H   H522      1.0  0.47282  0.69822  0.60586  1.0000
  C   C301      1.0  0.32751  0.49911  0.49233  1.0000
  C   C302      1.0  0.45578  0.71619  0.42941  1.0000
  H   H523      1.0  0.37422  0.62007  0.24244  1.0000
  H   H524      1.0  0.47993  0.59709  0.38823  1.0000
  H   H525      1.0  0.31879  0.57157  0.26810  1.0000
  H   H526      1.0  0.46363  0.66864  0.60221  1.0000
  C   C303      1.0  0.24590  0.51239  0.36569  1.0000
  C   C304      1.0  0.46069  0.56252  0.09499  1.0000
  C   C305      1.0  0.44604  0.57764  0.06115  1.0000
  C   C306      1.0  0.45999  0.59510  0.05369  1.0000
  H   H527      1.0  0.45884  0.55403  0.07041  1.0000
  H   H528      1.0  0.24284  0.67496  0.61857  1.0000
  H   H529      1.0  0.44632  0.56896  0.03806  1.0000
  H   H530      1.0  0.25853  0.74324  0.25308  1.0000
  S   S95       1.0  0.35644  0.50800  0.63299  1.0000
  H   H531      1.0  0.45914  0.59864  0.02472  1.0000
  H   H532      1.0  0.45887  0.60551  0.07115  1.0000
  C   C307      1.0  0.32724  0.57076  0.29031  1.0000
  C   C308      1.0  0.33770  0.60488  0.23260  1.0000
  C   C309      1.0  0.36520  0.53606  0.53818  1.0000
  H   H533      1.0  0.32277  0.57417  0.31663  1.0000
  H   H534      1.0  0.47250  0.59467  0.05770  1.0000
  H   H535      1.0  0.47811  0.68884  0.50548  1.0000
  H   H536      1.0  0.44113  0.70163  0.47542  1.0000
  C   C310      1.0  0.38490  0.57164  0.49122  1.0000
  H   H537      1.0  0.46399  0.59267  0.12531  1.0000
  S   S96       1.0  0.48285  0.65579  0.67198  1.0000
  N   N23       1.0  0.44712  0.56969  0.09754  1.0000
  C   C311      1.0  0.42368  0.51324  0.98711  1.0000
  H   H538      1.0  0.38163  0.52559  0.43282  1.0000
  C   C312      1.0  0.25802  0.72261  0.32514  1.0000
  C   C313      1.0  0.25893  0.72959  0.71663  1.0000
  H   H539      1.0  0.34674  0.59566  0.29406  1.0000
  H   H540      1.0  0.44332  0.71317  0.25707  1.0000
  H   H541      1.0  0.43315  0.53267  0.08248  1.0000
  H   H542      1.0  0.46214  0.68295  0.38552  1.0000
  H   H543      1.0  0.37540  0.59370  0.21723  1.0000
  H   H544      1.0  0.37013  0.56611  0.20041  1.0000
  C   C314      1.0  0.34311  0.59032  0.21868  1.0000
  C   C315      1.0  0.42660  0.56947  0.76898  1.0000
  H   H545      1.0  0.24667  0.70085  0.20614  1.0000
  N   N24       1.0  0.37703  0.53931  0.50636  1.0000
  H   H546      1.0  0.35338  0.55820  0.25619  1.0000
  H   H547      1.0  0.43395  0.57929  0.05762  1.0000
  C   C316      1.0  0.34554  0.58269  0.28441  1.0000
  C   C317      1.0  0.28170  0.52104  0.78780  1.0000
  C   C318      1.0  0.38581  0.52682  0.50938  1.0000
  H   H548      1.0  0.39632  0.52570  0.81751  1.0000
  H   H549      1.0  0.40397  0.54065  0.55303  1.0000
  H   H550      1.0  0.48821  0.58202  0.33793  1.0000
  H   H551      1.0  0.42834  0.70367  0.43776  1.0000
  H   H552      1.0  0.47860  0.59710  0.76862  1.0000
  Fe  Fe49      1.0  0.46868  0.63061  0.26984  1.0000
  H   H553      1.0  0.43208  0.55986  0.77516  1.0000
  H   H554      1.0  0.28191  0.74156  0.61882  1.0000
  H   H555      1.0  0.44576  0.60503  0.14493  1.0000
  H   H556      1.0  0.29679  0.69613  0.60011  1.0000
  C   C319      1.0  0.26567  0.72607  0.19579  1.0000
  C   C320      1.0  0.45132  0.58274  0.12834  1.0000
  H   H557      1.0  0.43012  0.55109  0.13386  1.0000
  C   C321      1.0  0.26200  0.69859  0.64039  1.0000
  C   C322      1.0  0.37754  0.53659  0.43570  1.0000
  H   H558      1.0  0.39513  0.52888  0.48724  1.0000
  S   S97       1.0  0.28863  0.73169  0.74960  1.0000
  H   H559      1.0  0.35690  0.52227  0.53878  1.0000
  C   C323      1.0  0.26796  0.72092  0.73362  1.0000
  C   C324      1.0  0.44007  0.67377  0.41731  1.0000
  C   C325      1.0  0.37707  0.61119  0.26104  1.0000
  H   H560      1.0  0.27897  0.67122  0.56428  1.0000
  H   H561      1.0  0.44922  0.72658  0.33979  1.0000
  H   H562      1.0  0.35332  0.57864  0.30389  1.0000
  H   H563      1.0  0.47302  0.57295  0.09083  1.0000
  H   H564      1.0  0.39090  0.61578  0.26264  1.0000
  C   C326      1.0  0.25234  0.71345  0.22048  1.0000
  S   S98       1.0  0.28955  0.72177  0.33868  1.0000
  H   H565      1.0  0.41679  0.53868  0.80688  1.0000
  H   H566      1.0  0.31324  0.53499  0.71271  1.0000
  C   C327      1.0  0.24255  0.68672  0.32452  1.0000
  C   C328      1.0  0.48737  0.65056  0.44758  1.0000
  C   C329      1.0  0.43889  0.59177  0.13447  1.0000
  C   C330      1.0  0.29674  0.70633  0.67650  1.0000
  H   H567      1.0  0.45206  0.57673  0.15495  1.0000
  C   C331      1.0  0.47386  0.64068  0.50674  1.0000
  C   C332      1.0  0.43049  0.55586  0.10539  1.0000
  C   C333      1.0  0.27260  0.50692  0.63623  1.0000
  S   S99       1.0  0.48610  0.57783  0.00067  1.0000
  H   H568      1.0  0.48476  0.74275  0.82547  1.0000
  H   H569      1.0  0.28398  0.53210  0.69678  1.0000
  H   H570      1.0  0.28049  0.73611  0.27070  1.0000
  C   C334      1.0  0.27185  0.51123  0.23543  1.0000
  H   H571      1.0  0.42740  0.71486  0.34039  1.0000
  N   N25       1.0  0.35182  0.58296  0.24585  1.0000
  C   C335      1.0  0.47622  0.69415  0.57897  1.0000
  Fe  Fe50      1.0  0.32530  0.49861  0.32317  1.0000
  H   H572      1.0  0.46265  0.63529  0.52271  1.0000
  C   C336      1.0  0.47279  0.64323  0.46836  1.0000
  C   C337      1.0  0.28800  0.53429  0.72610  1.0000
  C   C338      1.0  0.26023  0.70319  0.73930  1.0000
  C   C339      1.0  0.40516  0.55054  0.84413  1.0000
  H   H573      1.0  0.46075  0.63983  0.45511  1.0000
  H   H574      1.0  0.42042  0.56109  0.10432  1.0000
  H   H575      1.0  0.43250  0.59311  0.10907  1.0000
  C   C340      1.0  0.28314  0.69122  0.60552  1.0000
  H   H576      1.0  0.42933  0.58476  0.15480  1.0000
  H   H577      1.0  0.36952  0.53599  0.41139  1.0000
  H   H578      1.0  0.26594  0.53379  0.22864  1.0000
  H   H579      1.0  0.39262  0.54889  0.85428  1.0000
  C   C341      1.0  0.29153  0.71625  0.64651  1.0000
  H   H580      1.0  0.24543  0.52199  0.38650  1.0000
  H   H581      1.0  0.28584  0.51430  0.63513  1.0000
  H   H582      1.0  0.47120  0.70783  0.34859  1.0000
  C   C342      1.0  0.48070  0.71119  0.27967  1.0000
  C   C343      1.0  0.37043  0.59273  0.24552  1.0000
  H   H583      1.0  0.37209  0.53882  0.56482  1.0000
  C   C344      1.0  0.28866  0.50547  0.73511  1.0000
  C   C345      1.0  0.42632  0.50535  0.01878  1.0000
  C   C346      1.0  0.24589  0.68903  0.61826  1.0000
  H   H584      1.0  0.38846  0.54878  0.43446  1.0000
  C   C347      1.0  0.42514  0.54021  0.07911  1.0000
  H   H585      1.0  0.43730  0.72662  0.38056  1.0000
  H   H586      1.0  0.41224  0.53154  0.08572  1.0000
  H   H587      1.0  0.28832  0.49822  0.15255  1.0000
  C   C348      1.0  0.46558  0.73519  0.26931  1.0000
  H   H588      1.0  0.30888  0.52434  0.78995  1.0000
  H   H589      1.0  0.25996  0.70892  0.65641  1.0000
  H   H590      1.0  0.41154  0.54659  0.86680  1.0000
  C   C349      1.0  0.48492  0.59049  0.31917  1.0000
  C   C350      1.0  0.27760  0.71715  0.58899  1.0000
  N   N26       1.0  0.45591  0.70528  0.39641  1.0000
  H   H591      1.0  0.43200  0.66907  0.39267  1.0000
  H   H592      1.0  0.47976  0.57732  0.81795  1.0000
  H   H593      1.0  0.29541  0.72074  0.21031  1.0000
  C   C351      1.0  0.26234  0.50962  0.73643  1.0000
  H   H594      1.0  0.48085  0.61427  0.41822  1.0000
  H   H595      1.0  0.31379  0.50915  0.45567  1.0000
  H   H596      1.0  0.31054  0.55474  0.70877  1.0000
  H   H597      1.0  0.26259  0.68950  0.66177  1.0000
  C   C352      1.0  0.44129  0.70238  0.37086  1.0000
  H   H598      1.0  0.26011  0.72812  0.61222  1.0000
  H   H599      1.0  0.23975  0.66922  0.43745  1.0000
  H   H600      1.0  0.27234  0.73974  0.57498  1.0000
  H   H601      1.0  0.28792  0.50387  0.70479  1.0000
  H   H602      1.0  0.46081  0.49580  0.88861  1.0000
  H   H603      1.0  0.23883  0.51343  0.73317  1.0000
  C   C353      1.0  0.32647  0.49556  0.42542  1.0000
  H   H604      1.0  0.47533  0.50211  0.99271  1.0000
  H   H605      1.0  0.48661  0.70202  0.28365  1.0000
  C   C354      1.0  0.48430  0.60222  0.79481  1.0000
  H   H606      1.0  0.29422  0.73527  0.15167  1.0000
  C   C355      1.0  0.48127  0.50112  0.96642  1.0000
  H   H607      1.0  0.30536  0.72651  0.25372  1.0000
  H   H608      1.0  0.48273  0.58378  0.29210  1.0000
  H   H609      1.0  0.43543  0.49858  0.87437  1.0000
  H   H610      1.0  0.26472  0.74325  0.71231  1.0000
  S   S100      1.0  0.48778  0.65577  0.40010  1.0000
  C   C356      1.0  0.48503  0.59101  0.82296  1.0000
  H   H611      1.0  0.24203  0.71796  0.22612  1.0000
  H   H612      1.0  0.37699  0.49530  0.79622  1.0000
  H   H613      1.0  0.45968  0.74434  0.26509  1.0000
  N   N27       1.0  0.42688  0.81199  0.40036  1.0000
  S   S101      1.0  0.30457  0.77998  0.70306  1.0000
  C   C357      1.0  0.46755  0.86151  0.14962  1.0000
  Fe  Fe51      1.0  0.34532  0.77153  0.71828  1.0000
  S   S102      1.0  0.34503  0.79485  0.68986  1.0000
  H   H614      1.0  0.41650  0.77549  0.39718  1.0000
  Fe  Fe52      1.0  0.32791  0.79570  0.73625  1.0000
  S   S103      1.0  0.33675  0.82128  0.76894  1.0000
  Fe  Fe53      1.0  0.32207  0.77719  0.65937  1.0000
  S   S104      1.0  0.31585  0.76909  0.59861  1.0000
  S   S105      1.0  0.32910  0.77277  0.76486  1.0000
  H   H615      1.0  0.43608  0.78329  0.37266  1.0000
  H   H616      1.0  0.34028  0.75856  0.56084  1.0000
  S   S106      1.0  0.46279  0.77246  0.61381  1.0000
  H   H617      1.0  0.36103  0.79307  0.18883  1.0000
  H   H618      1.0  0.40407  0.82776  0.38797  1.0000
  S   S107      1.0  0.46469  0.78984  0.69703  1.0000
  H   H619      1.0  0.42539  0.93957  0.01573  1.0000
  Fe  Fe54      1.0  0.47552  0.77254  0.66773  1.0000
  S   S108      1.0  0.48174  0.75127  0.69458  1.0000
  Fe  Fe55      1.0  0.45402  0.79169  0.64131  1.0000
  S   S109      1.0  0.42948  0.79365  0.62589  1.0000
  C   C358      1.0  0.37253  0.79111  0.19734  1.0000
  H   H620      1.0  0.34243  0.77158  0.84940  1.0000
  Fe  Fe56      1.0  0.34731  0.76626  0.34561  1.0000
  S   S110      1.0  0.34711  0.79277  0.34159  1.0000
  Fe  Fe57      1.0  0.30739  0.75699  0.72906  1.0000
  H   H621      1.0  0.35809  0.76217  0.45955  1.0000
  S   S111      1.0  0.30629  0.77454  0.33539  1.0000
  H   H622      1.0  0.41710  0.81187  0.13648  1.0000
  Fe  Fe58      1.0  0.32811  0.78198  0.29590  1.0000
  S   S112      1.0  0.32679  0.78938  0.23514  1.0000
  Fe  Fe59      1.0  0.32563  0.78289  0.38139  1.0000
  S   S113      1.0  0.32605  0.79800  0.43448  1.0000
  S   S114      1.0  0.32980  0.75586  0.29819  1.0000
  H   H623      1.0  0.34943  0.74815  0.49644  1.0000
  N   N28       1.0  0.46333  0.86469  0.07963  1.0000
  H   H624      1.0  0.44793  0.83496  0.41508  1.0000
  H   H625      1.0  0.29624  0.76644  0.19908  1.0000
  Fe  Fe60      1.0  0.45633  0.79760  0.27059  1.0000
  S   S115      1.0  0.47245  0.82416  0.28875  1.0000
  S   S116      1.0  0.43095  0.79548  0.25000  1.0000
  H   H626      1.0  0.40034  0.80017  0.55594  1.0000
  C   C359      1.0  0.40444  0.97240  0.99842  1.0000
  C   C360      1.0  0.43165  0.82885  0.46167  1.0000
  H   H627      1.0  0.38231  0.80236  0.76225  1.0000
  S   S117      1.0  0.47568  0.79425  0.23354  1.0000
  S   S118      1.0  0.46271  0.78486  0.31919  1.0000
  Fe  Fe61      1.0  0.38415  0.89166  0.01555  1.0000
  S   S119      1.0  0.39668  0.87955  0.05477  1.0000
  S   S120      1.0  0.38820  0.92041  0.00872  1.0000
  Fe  Fe62      1.0  0.36207  0.85610  0.98202  1.0000
  S   S121      1.0  0.37306  0.84175  0.01930  1.0000
  S   S122      1.0  0.34155  0.84066  0.94070  1.0000
  Fe  Fe63      1.0  0.37135  0.85896  0.06553  1.0000
  S   S123      1.0  0.36679  0.85090  0.12647  1.0000
  Fe  Fe64      1.0  0.39719  0.86294  0.00661  1.0000
  S   S124      1.0  0.41845  0.85563  0.98953  1.0000
  S   S125      1.0  0.35851  0.87219  0.02938  1.0000
  S   S126      1.0  0.38654  0.87617  0.96648  1.0000
  C   C361      1.0  0.36688  0.77305  0.21424  1.0000
  H   H628      1.0  0.38134  0.95053  0.99764  1.0000
  C   C362      1.0  0.43640  0.87382  0.98246  1.0000
  C   C363      1.0  0.44915  0.87242  0.96091  1.0000
  C   C364      1.0  0.46426  0.88638  0.95802  1.0000
  C   C365      1.0  0.46685  0.90155  0.97761  1.0000
  C   C366      1.0  0.45376  0.90332  0.99743  1.0000
  C   C367      1.0  0.43847  0.88945  0.99971  1.0000
  H   H629      1.0  0.44747  0.86048  0.94685  1.0000
  H   H630      1.0  0.47397  0.88531  0.94090  1.0000
  H   H631      1.0  0.45565  0.91512  0.01225  1.0000
  H   H632      1.0  0.42858  0.89066  0.01602  1.0000
  H   H633      1.0  0.26697  0.77278  0.26485  1.0000
  H   H634      1.0  0.42062  0.84569  0.10090  1.0000
  H   H635      1.0  0.36428  0.77407  0.24377  1.0000
  C   C368      1.0  0.47263  0.85982  0.10980  1.0000
  C   C369      1.0  0.33793  0.80679  0.20557  1.0000
  C   C370      1.0  0.35001  0.82214  0.21859  1.0000
  C   C371      1.0  0.35843  0.83545  0.19405  1.0000
  C   C372      1.0  0.35521  0.83363  0.15597  1.0000
  C   C373      1.0  0.34329  0.81817  0.14286  1.0000
  C   C374      1.0  0.33469  0.80494  0.16747  1.0000
  H   H636      1.0  0.35269  0.82389  0.24767  1.0000
  H   H637      1.0  0.36754  0.84731  0.20471  1.0000
  H   H638      1.0  0.34060  0.81647  0.11377  1.0000
  H   H639      1.0  0.32545  0.79316  0.15684  1.0000
  C   C375      1.0  0.41425  0.78567  0.27960  1.0000
  C   C376      1.0  0.41409  0.77238  0.30247  1.0000
  C   C377      1.0  0.40052  0.76465  0.32567  1.0000
  C   C378      1.0  0.38708  0.77016  0.32602  1.0000
  C   C379      1.0  0.38735  0.78359  0.30352  1.0000
  C   C380      1.0  0.40090  0.79131  0.28035  1.0000
  H   H640      1.0  0.42432  0.76793  0.30197  1.0000
  H   H641      1.0  0.35477  0.76447  0.20238  1.0000
  H   H642      1.0  0.37721  0.78815  0.30431  1.0000
  H   H643      1.0  0.40123  0.80200  0.26386  1.0000
  H   H644      1.0  0.47894  0.81738  0.52713  1.0000
  C   C381      1.0  0.39472  0.95478  0.00074  1.0000
  H   H645      1.0  0.47401  0.83817  0.05039  1.0000
  H   H646      1.0  0.37616  0.76690  0.21261  1.0000
  H   H647      1.0  0.38953  0.83902  0.91038  1.0000
  H   H648      1.0  0.45577  0.83713  0.02396  1.0000
  H   H649      1.0  0.40035  0.78317  0.19206  1.0000
  H   H650      1.0  0.41868  0.82112  0.46945  1.0000
  C   C382      1.0  0.40198  0.94263  0.00687  1.0000
  H   H651      1.0  0.35244  0.78827  0.58134  1.0000
  H   H652      1.0  0.44832  0.80657  0.41837  1.0000
  H   H653      1.0  0.39326  0.83831  0.15487  1.0000
  H   H654      1.0  0.39836  0.98134  0.99344  1.0000
  H   H655      1.0  0.37811  0.80057  0.21989  1.0000
  C   C383      1.0  0.31850  0.77765  0.55339  1.0000
  C   C384      1.0  0.31429  0.76616  0.52323  1.0000
  C   C385      1.0  0.31664  0.77213  0.48683  1.0000
  C   C386      1.0  0.32300  0.78975  0.47996  1.0000
  C   C387      1.0  0.32699  0.80123  0.51012  1.0000
  C   C388      1.0  0.32490  0.79526  0.54657  1.0000
  H   H656      1.0  0.36506  0.75621  0.62024  1.0000
  H   H657      1.0  0.31333  0.76310  0.46408  1.0000
  H   H658      1.0  0.33177  0.81488  0.50523  1.0000
  H   H659      1.0  0.32811  0.80429  0.56932  1.0000
  C   C389      1.0  0.33897  0.82555  0.81731  1.0000
  C   C390      1.0  0.35134  0.84087  0.83044  1.0000
  C   C391      1.0  0.35295  0.84521  0.86826  1.0000
  C   C392      1.0  0.34174  0.83463  0.89348  1.0000
  C   C393      1.0  0.32942  0.81930  0.88034  1.0000
  C   C394      1.0  0.32822  0.81463  0.84274  1.0000
  H   H660      1.0  0.35972  0.84947  0.81115  1.0000
  H   H661      1.0  0.36260  0.85691  0.87776  1.0000
  H   H662      1.0  0.32056  0.81104  0.89935  1.0000
  H   H663      1.0  0.31851  0.80290  0.83324  1.0000
  C   C395      1.0  0.41312  0.78678  0.65744  1.0000
  C   C396      1.0  0.41339  0.77646  0.68704  1.0000
  C   C397      1.0  0.33896  0.88465  0.87879  1.0000
  C   C398      1.0  0.38554  0.77448  0.70414  1.0000
  C   C399      1.0  0.38545  0.78509  0.67499  1.0000
  C   C400      1.0  0.39924  0.79127  0.65182  1.0000
  H   H664      1.0  0.42406  0.77293  0.69149  1.0000
  H   H665      1.0  0.43515  0.77476  0.41717  1.0000
  H   H666      1.0  0.37477  0.78853  0.67031  1.0000
  H   H667      1.0  0.39922  0.79959  0.62946  1.0000
  C   C401      1.0  0.41948  0.94867  0.01101  1.0000
  H   H668      1.0  0.38626  0.78266  0.11320  1.0000
  C   C402      1.0  0.42935  0.96658  0.00889  1.0000
  C   C403      1.0  0.39416  0.82730  0.17010  1.0000
  H   H669      1.0  0.35685  0.76501  0.10289  1.0000
  C   C404      1.0  0.46439  0.88295  0.08341  1.0000
  H   H670      1.0  0.37280  0.81057  0.14071  1.0000
  H   H671      1.0  0.40760  0.83005  0.17441  1.0000
  H   H672      1.0  0.37100  0.78668  0.49834  1.0000
  C   C405      1.0  0.42183  0.97860  0.00231  1.0000
  H   H673      1.0  0.39478  0.81822  0.43067  1.0000
  H   H674      1.0  0.38605  0.80866  0.38825  1.0000
  N   N29       1.0  0.38425  0.79426  0.16537  1.0000
  C   C406      1.0  0.38543  0.81074  0.14736  1.0000
  C   C407      1.0  0.36030  0.77622  0.12194  1.0000
  H   H675      1.0  0.35976  0.78713  0.10586  1.0000
  H   H676      1.0  0.35068  0.77294  0.14347  1.0000
  H   H677      1.0  0.46431  0.87285  0.15481  1.0000
  H   H678      1.0  0.45981  0.94760  0.92908  1.0000
  S   S127      1.0  0.32699  0.75702  0.38704  1.0000
  C   C408      1.0  0.37750  0.81710  0.87411  1.0000
  H   H679      1.0  0.42751  0.80173  0.34594  1.0000
  H   H680      1.0  0.38263  0.81109  0.53716  1.0000
  H   H681      1.0  0.44273  0.97101  0.01197  1.0000
  C   C409      1.0  0.35299  0.75922  0.56831  1.0000
  H   H682      1.0  0.41275  0.78912  0.13054  1.0000
  H   H683      1.0  0.43018  0.83922  0.34857  1.0000
  C   C410      1.0  0.37796  0.77989  0.13742  1.0000
  H   H684      1.0  0.39178  0.81228  0.12045  1.0000
  C   C411      1.0  0.40106  0.79539  0.17944  1.0000
  H   H685      1.0  0.40300  0.79372  0.38173  1.0000
  C   C412      1.0  0.47918  0.81902  0.46790  1.0000
  H   H686      1.0  0.37825  0.76773  0.14862  1.0000
  H   H687      1.0  0.38808  0.82699  0.19688  1.0000
  C   C413      1.0  0.39814  0.81558  0.40253  1.0000
  H   H688      1.0  0.41229  0.82041  0.33379  1.0000
  C   C414      1.0  0.42600  0.82593  0.33759  1.0000
  C   C415      1.0  0.47324  0.95511  0.92453  1.0000
  C   C416      1.0  0.41505  0.79970  0.15078  1.0000
  H   H689      1.0  0.40556  0.80507  0.20195  1.0000
  H   H690      1.0  0.35018  0.78764  0.88412  1.0000
  C   C417      1.0  0.36179  0.77549  0.51214  1.0000
  C   C418      1.0  0.40816  0.80369  0.40356  1.0000
  H   H691      1.0  0.45715  0.84971  0.15809  1.0000
  H   H692      1.0  0.36197  0.77455  0.87052  1.0000
  C   C419      1.0  0.43421  0.82914  0.41982  1.0000
  H   H693      1.0  0.37118  0.81810  0.56997  1.0000
  C   C420      1.0  0.43212  0.81420  0.36077  1.0000
  H   H694      1.0  0.37296  0.79321  0.59782  1.0000
  C   C421      1.0  0.43454  0.80037  0.41772  1.0000
  H   H695      1.0  0.40484  0.79672  0.42993  1.0000
  H   H696      1.0  0.43074  0.86808  0.09401  1.0000
  H   H697      1.0  0.28052  0.75715  0.16520  1.0000
  H   H698      1.0  0.43133  0.82677  0.30968  1.0000
  H   H699      1.0  0.46681  0.86920  0.02136  1.0000
  C   C422      1.0  0.36620  0.90699  0.89147  1.0000
  C   C423      1.0  0.27585  0.76897  0.24845  1.0000
  H   H700      1.0  0.46355  0.78792  0.77881  1.0000
  H   H701      1.0  0.35291  0.87826  0.93768  1.0000
  C   C424      1.0  0.48414  0.81379  0.43464  1.0000
  H   H702      1.0  0.37015  0.88854  0.85271  1.0000
  H   H703      1.0  0.46872  0.75614  0.80922  1.0000
  H   H704      1.0  0.35395  0.74730  0.55690  1.0000
  C   C425      1.0  0.43013  0.78251  0.39974  1.0000
  C   C426      1.0  0.39274  0.83318  0.88547  1.0000
  H   H705      1.0  0.44034  0.82397  0.47592  1.0000
  C   C427      1.0  0.48179  0.96151  0.96198  1.0000
  H   H706      1.0  0.44812  0.76760  0.78889  1.0000
  H   H707      1.0  0.36118  0.89871  0.95861  1.0000
  H   H708      1.0  0.34971  0.77728  0.50938  1.0000
  H   H709      1.0  0.44598  0.81910  0.35877  1.0000
  H   H710      1.0  0.42937  0.83859  0.40870  1.0000
  H   H711      1.0  0.43080  0.79792  0.44687  1.0000
  H   H712      1.0  0.37997  0.83094  0.81286  1.0000
  H   H713      1.0  0.44421  0.83918  0.08293  1.0000
  H   H714      1.0  0.42690  0.80129  0.16518  1.0000
  C   C428      1.0  0.36536  0.79058  0.57219  1.0000
  H   H715      1.0  0.47270  0.82781  0.46746  1.0000
  H   H716      1.0  0.40035  0.75428  0.34317  1.0000
  H   H717      1.0  0.43461  0.84216  0.47197  1.0000
  H   H718      1.0  0.43669  0.85788  0.13216  1.0000
  S   S128      1.0  0.47600  0.81478  0.62433  1.0000
  H   H719      1.0  0.48258  0.83163  0.83791  1.0000
  C   C429      1.0  0.43288  0.85647  0.10301  1.0000
  H   H720      1.0  0.40038  0.79572  0.79274  1.0000
  S   S129      1.0  0.36824  0.76615  0.73299  1.0000
  H   H721      1.0  0.40446  0.81001  0.85348  1.0000
  H   H722      1.0  0.47841  0.86338  0.16798  1.0000
  H   H723      1.0  0.31311  0.88252  0.89113  1.0000
  H   H724      1.0  0.36289  0.78664  0.80587  1.0000
  H   H725      1.0  0.33135  0.87162  0.97637  1.0000
  C   C430      1.0  0.38499  0.82058  0.80913  1.0000
  Fe  Fe65      1.0  0.48738  0.81173  0.67841  1.0000
  H   H726      1.0  0.38875  0.79212  0.87302  1.0000
  H   H727      1.0  0.47067  0.76134  0.76222  1.0000
  H   H728      1.0  0.38650  0.82404  0.74989  1.0000
  Fe  Fe66      1.0  0.30909  0.74905  0.33924  1.0000
  H   H729      1.0  0.37473  0.80855  0.89827  1.0000
  C   C431      1.0  0.37971  0.81389  0.76956  1.0000
  H   H730      1.0  0.35361  0.80064  0.82301  1.0000
  H   H731      1.0  0.40372  0.83006  0.89292  1.0000
  H   H732      1.0  0.48157  0.82167  0.77318  1.0000
  C   C432      1.0  0.47142  0.86324  0.04380  1.0000
  C   C433      1.0  0.39961  0.77035  0.71040  1.0000
  C   C434      1.0  0.35404  0.78141  0.86080  1.0000
  C   C435      1.0  0.48272  0.81313  0.50181  1.0000
  Fe  Fe67      1.0  0.48535  0.79549  0.59995  1.0000
  C   C436      1.0  0.40467  0.98824  0.12067  1.0000
  C   C437      1.0  0.37045  0.80750  0.55071  1.0000
  H   H733      1.0  0.31928  0.86594  0.91130  1.0000
  C   C438      1.0  0.35024  0.89007  0.94250  1.0000
  H   H734      1.0  0.38865  0.90330  0.87380  1.0000
  C   C439      1.0  0.34135  0.91164  0.91022  1.0000
  H   H735      1.0  0.41129  0.98593  0.09666  1.0000
  H   H736      1.0  0.45721  0.88587  0.06080  1.0000
  N   N30       1.0  0.34885  0.89811  0.90646  1.0000
  H   H737      1.0  0.32821  0.90633  0.91881  1.0000
  C   C440      1.0  0.46897  0.84492  0.03058  1.0000
  N   N31       1.0  0.37931  0.80773  0.83977  1.0000
  C   C441      1.0  0.44531  0.85258  0.07766  1.0000
  H   H738      1.0  0.33868  0.89296  0.99434  1.0000
  H   H739      1.0  0.36624  0.81100  0.76497  1.0000
  C   C442      1.0  0.28823  0.75400  0.18638  1.0000
  H   H740      1.0  0.39620  0.84320  0.86422  1.0000
  H   H741      1.0  0.30925  0.75252  0.52799  1.0000
  H   H742      1.0  0.45844  0.88511  0.10879  1.0000
  H   H743      1.0  0.48632  0.86689  0.10778  1.0000
  H   H744      1.0  0.47834  0.94627  0.91092  1.0000
  H   H745      1.0  0.28602  0.76914  0.26718  1.0000
  C   C443      1.0  0.36243  0.79433  0.83049  1.0000
  C   C444      1.0  0.46091  0.77655  0.79624  1.0000
  H   H746      1.0  0.38335  0.77731  0.81020  1.0000
  H   H747      1.0  0.39880  0.82715  0.80958  1.0000
  H   H748      1.0  0.36671  0.82114  0.87128  1.0000
  C   C445      1.0  0.39485  0.78835  0.81750  1.0000
  H   H749      1.0  0.40394  0.78290  0.82766  1.0000
  H   H750      1.0  0.32382  0.88666  0.95741  1.0000
  C   C446      1.0  0.39204  0.79988  0.84772  1.0000
  H   H751      1.0  0.47127  0.84621  0.10654  1.0000
  C   C447      1.0  0.33510  0.88527  0.96850  1.0000
  C   C448      1.0  0.39792  0.78779  0.54160  1.0000
  H   H752      1.0  0.29888  0.75054  0.25075  1.0000
  H   H753      1.0  0.44019  0.85241  0.04946  1.0000
  H   H754      1.0  0.47400  0.96567  0.90589  1.0000
  H   H755      1.0  0.40915  0.78461  0.54642  1.0000
  C   C449      1.0  0.35056  0.92656  0.93701  1.0000
  C   C450      1.0  0.26652  0.75110  0.23100  1.0000
  H   H756      1.0  0.37517  0.88592  0.89996  1.0000
  H   H757      1.0  0.35240  0.92203  0.96452  1.0000
  N   N32       1.0  0.36604  0.77497  0.55219  1.0000
  H   H758      1.0  0.39974  0.76216  0.73298  1.0000
  H   H759      1.0  0.39682  0.78906  0.51162  1.0000
  H   H760      1.0  0.34084  0.91735  0.88301  1.0000
  C   C451      1.0  0.32054  0.87438  0.88744  1.0000
  H   H761      1.0  0.31486  0.86562  0.86387  1.0000
  H   H762      1.0  0.36090  0.80686  0.52971  1.0000
  H   H763      1.0  0.37185  0.75683  0.48916  1.0000
  H   H764      1.0  0.25779  0.75263  0.20996  1.0000
  H   H765      1.0  0.36598  0.91505  0.86752  1.0000
  H   H766      1.0  0.37453  0.91594  0.91233  1.0000
  H   H767      1.0  0.34306  0.93470  0.94060  1.0000
  H   H768      1.0  0.38561  0.77306  0.58713  1.0000
  H   H769      1.0  0.36278  0.93498  0.92612  1.0000
  H   H770      1.0  0.33940  0.89049  0.85133  1.0000
  H   H771      1.0  0.48262  0.76997  0.16536  1.0000
  H   H772      1.0  0.34445  0.87470  0.87531  1.0000
  Fe  Fe68      1.0  0.48035  0.81132  0.33520  1.0000
  H   H773      1.0  0.47601  0.84580  0.00482  1.0000
  C   C452      1.0  0.37538  0.89532  0.87888  1.0000
  H   H774      1.0  0.28092  0.77892  0.22728  1.0000
  H   H775      1.0  0.31020  0.74687  0.18550  1.0000
  C   C453      1.0  0.38273  0.77344  0.55753  1.0000
  S   S130      1.0  0.37058  0.76076  0.35628  1.0000
  H   H776      1.0  0.46059  0.78032  0.82539  1.0000
  C   C454      1.0  0.47306  0.76715  0.79031  1.0000
  H   H777      1.0  0.34300  0.74587  0.61874  1.0000
  H   H778      1.0  0.30716  0.75719  0.14544  1.0000
  H   H779      1.0  0.38254  0.76109  0.54588  1.0000
  S   S131      1.0  0.32401  0.75381  0.68529  1.0000
  C   C455      1.0  0.36030  0.75962  0.48858  1.0000
  H   H780      1.0  0.47418  0.96750  0.97722  1.0000
  C   C456      1.0  0.48208  0.89687  0.08303  1.0000
  H   H781      1.0  0.48123  0.90957  0.08833  1.0000
  H   H782      1.0  0.39170  0.98602  0.11190  1.0000
  C   C457      1.0  0.35350  0.75762  0.61046  1.0000
  H   H783      1.0  0.48799  0.89771  0.05581  1.0000
  C   C458      1.0  0.30049  0.74762  0.16637  1.0000
  Fe  Fe69      1.0  0.48369  0.78391  0.28403  1.0000
  H   H784      1.0  0.35184  0.76847  0.62518  1.0000
  H   H785      1.0  0.48039  0.94972  0.97739  1.0000
  H   H786      1.0  0.43591  0.98864  0.12391  1.0000
  H   H787      1.0  0.48565  0.77846  0.85350  1.0000
  H   H788      1.0  0.40374  0.97798  0.14047  1.0000
  S   S132      1.0  0.47990  0.82215  0.39280  1.0000
  H   H789      1.0  0.48512  0.87044  0.04519  1.0000
  S   S133      1.0  0.48680  0.91758  0.98023  1.0000
  H   H790      1.0  0.47907  0.99381  0.92767  1.0000
  Fe  Fe70      1.0  0.68881  0.17041  0.64270  1.0000
  S   S134      1.0  0.67998  0.14272  0.62312  1.0000
  S   S135      1.0  0.71690  0.18537  0.64631  1.0000
  Fe  Fe71      1.0  0.65339  0.16933  0.64810  1.0000
  S   S136      1.0  0.64257  0.14224  0.62775  1.0000
  S   S137      1.0  0.63651  0.18372  0.66036  1.0000
  Fe  Fe72      1.0  0.66047  0.13760  0.66758  1.0000
  S   S138      1.0  0.64796  0.11391  0.70361  1.0000
  Fe  Fe73      1.0  0.66288  0.15000  0.58572  1.0000
  S   S139      1.0  0.65461  0.14393  0.52554  1.0000
  S   S140      1.0  0.67056  0.16471  0.68948  1.0000
  S   S141      1.0  0.67248  0.17767  0.60371  1.0000
  Fe  Fe74      1.0  0.68410  0.18185  0.26674  1.0000
  S   S142      1.0  0.69743  0.16356  0.26858  1.0000
  S   S143      1.0  0.69776  0.21062  0.25965  1.0000
  Fe  Fe75      1.0  0.65020  0.15297  0.27759  1.0000
  S   S144      1.0  0.66176  0.13315  0.28034  1.0000
  S   S145      1.0  0.62242  0.13970  0.28340  1.0000
  Fe  Fe76      1.0  0.68087  0.15228  0.31707  1.0000
  S   S146      1.0  0.68962  0.14506  0.37164  1.0000
  Fe  Fe77      1.0  0.67647  0.14649  0.23171  1.0000
  S   S147      1.0  0.68066  0.13321  0.17943  1.0000
  S   S148      1.0  0.66848  0.17136  0.31678  1.0000
  S   S149      1.0  0.66408  0.16555  0.22727  1.0000
  Fe  Fe78      1.0  0.61301  0.04733  0.95296  1.0000
  S   S150      1.0  0.59964  0.06041  0.98738  1.0000
  Fe  Fe79      1.0  0.63352  0.08105  0.91375  1.0000
  S   S151      1.0  0.62142  0.09620  0.94574  1.0000
  S   S152      1.0  0.65370  0.09538  0.87237  1.0000
  Fe  Fe80      1.0  0.62441  0.08227  0.99610  1.0000
  S   S153      1.0  0.62732  0.09646  0.05184  1.0000
  Fe  Fe81      1.0  0.59793  0.07359  0.93520  1.0000
  S   S154      1.0  0.57529  0.07861  0.91747  1.0000
  S   S155      1.0  0.63824  0.06835  0.96506  1.0000
  S   S156      1.0  0.60963  0.05927  0.89983  1.0000
  Fe  Fe82      1.0  0.52599  0.16865  0.72409  1.0000
  S   S157      1.0  0.50364  0.14984  0.69454  1.0000
  S   S158      1.0  0.52884  0.19468  0.74877  1.0000
  Fe  Fe83      1.0  0.54553  0.14498  0.71625  1.0000
  S   S159      1.0  0.52479  0.12502  0.68532  1.0000
  S   S160      1.0  0.56757  0.13768  0.72866  1.0000
  Fe  Fe84      1.0  0.52227  0.14693  0.65374  1.0000
  S   S161      1.0  0.52605  0.15387  0.59229  1.0000
  Fe  Fe85      1.0  0.50845  0.12963  0.72925  1.0000
  H   H791      1.0  0.62075  0.03259  0.85963  1.0000
  S   S162      1.0  0.54434  0.16663  0.68282  1.0000
  S   S163      1.0  0.52953  0.14878  0.76084  1.0000
  Fe  Fe86      1.0  0.51475  0.16765  0.31950  1.0000
  S   S164      1.0  0.50101  0.18617  0.31739  1.0000
  Fe  Fe87      1.0  0.54797  0.16343  0.32555  1.0000
  S   S165      1.0  0.53624  0.13493  0.33174  1.0000
  S   S166      1.0  0.57549  0.17926  0.32351  1.0000
  Fe  Fe88      1.0  0.51931  0.13565  0.28472  1.0000
  Fe  Fe89      1.0  0.51867  0.14076  0.37043  1.0000
  S   S167      1.0  0.50993  0.12713  0.42534  1.0000
  S   S168      1.0  0.53212  0.16422  0.27729  1.0000
  S   S169      1.0  0.53172  0.16925  0.36729  1.0000
  S   S170      1.0  0.51541  0.02950  0.00819  1.0000
  C   C459      1.0  0.71928  0.19705  0.45273  1.0000
  C   C460      1.0  0.52161  0.14588  0.54620  1.0000
  C   C461      1.0  0.52937  0.15682  0.51716  1.0000
  C   C462      1.0  0.52618  0.15128  0.48017  1.0000
  C   C463      1.0  0.51508  0.13467  0.47158  1.0000
  C   C464      1.0  0.50737  0.12370  0.50062  1.0000
  C   C465      1.0  0.51063  0.12922  0.53763  1.0000
  H   H792      1.0  0.50539  0.11553  0.89233  1.0000
  H   H793      1.0  0.53221  0.15991  0.45830  1.0000
  H   H794      1.0  0.58644  0.06608  0.11851  1.0000
  H   H795      1.0  0.64573  0.05283  0.86992  1.0000
  C   C466      1.0  0.55767  0.06371  0.93795  1.0000
  C   C467      1.0  0.54337  0.06753  0.94243  1.0000
  C   C468      1.0  0.52991  0.05650  0.96235  1.0000
  C   C469      1.0  0.53081  0.04175  0.97803  1.0000
  C   C470      1.0  0.54468  0.03742  0.97166  1.0000
  C   C471      1.0  0.55810  0.04839  0.95152  1.0000
  H   H796      1.0  0.54293  0.07931  0.93172  1.0000
  H   H797      1.0  0.51908  0.05974  0.96647  1.0000
  H   H798      1.0  0.54533  0.02589  0.98330  1.0000
  H   H799      1.0  0.56887  0.04507  0.94694  1.0000
  C   C472      1.0  0.61051  0.15115  0.29970  1.0000
  C   C473      1.0  0.61650  0.16904  0.29916  1.0000
  C   C474      1.0  0.60577  0.17764  0.30767  1.0000
  C   C475      1.0  0.58910  0.16836  0.31663  1.0000
  C   C476      1.0  0.58341  0.15052  0.31868  1.0000
  C   C477      1.0  0.59413  0.14194  0.31056  1.0000
  H   H800      1.0  0.62918  0.17621  0.29098  1.0000
  H   H801      1.0  0.61027  0.19147  0.30637  1.0000
  H   H802      1.0  0.57070  0.14329  0.32604  1.0000
  H   H803      1.0  0.58948  0.12809  0.31112  1.0000
  C   C478      1.0  0.66561  0.12283  0.14443  1.0000
  C   C479      1.0  0.64922  0.12221  0.14579  1.0000
  C   C480      1.0  0.63780  0.11411  0.11723  1.0000
  C   C481      1.0  0.64253  0.10656  0.08677  1.0000
  C   C482      1.0  0.65895  0.10729  0.08525  1.0000
  C   C483      1.0  0.67038  0.11536  0.11389  1.0000
  H   H804      1.0  0.64533  0.12790  0.16896  1.0000
  H   H805      1.0  0.62517  0.11366  0.11881  1.0000
  H   H806      1.0  0.66284  0.10156  0.06215  1.0000
  H   H807      1.0  0.68300  0.11576  0.11241  1.0000
  C   C484      1.0  0.71968  0.22065  0.25476  1.0000
  H   H808      1.0  0.49756  0.22639  0.42322  1.0000
  C   C485      1.0  0.66667  0.14676  0.48505  1.0000
  C   C486      1.0  0.66283  0.15502  0.45502  1.0000
  C   C487      1.0  0.67011  0.15507  0.42047  1.0000
  C   C488      1.0  0.68123  0.14669  0.41539  1.0000
  C   C489      1.0  0.68549  0.13891  0.44574  1.0000
  C   C490      1.0  0.67822  0.13887  0.48032  1.0000
  H   H809      1.0  0.65379  0.16100  0.45822  1.0000
  H   H810      1.0  0.66678  0.16123  0.39754  1.0000
  H   H811      1.0  0.69408  0.13238  0.44219  1.0000
  H   H812      1.0  0.68103  0.13211  0.50289  1.0000
  C   C491      1.0  0.64986  0.10914  0.75071  1.0000
  C   C492      1.0  0.63774  0.09443  0.76582  1.0000
  C   C493      1.0  0.63852  0.09018  0.80301  1.0000
  C   C494      1.0  0.65161  0.10052  0.82565  1.0000
  C   C495      1.0  0.66378  0.11515  0.81050  1.0000
  C   C496      1.0  0.66285  0.11954  0.77346  1.0000
  H   H813      1.0  0.62765  0.08624  0.74855  1.0000
  H   H814      1.0  0.62913  0.07880  0.81399  1.0000
  H   H815      1.0  0.67406  0.12316  0.82754  1.0000
  H   H816      1.0  0.67234  0.13082  0.76235  1.0000
  C   C497      1.0  0.58637  0.15061  0.70865  1.0000
  C   C498      1.0  0.58981  0.16788  0.70128  1.0000
  C   C499      1.0  0.60528  0.17806  0.68656  1.0000
  C   C500      1.0  0.61733  0.17099  0.67937  1.0000
  C   C501      1.0  0.61383  0.15375  0.68691  1.0000
  C   C502      1.0  0.59835  0.14356  0.70118  1.0000
  H   H817      1.0  0.58066  0.17344  0.70738  1.0000
  H   H818      1.0  0.60797  0.19142  0.68091  1.0000
  H   H819      1.0  0.62309  0.14825  0.68218  1.0000
  H   H820      1.0  0.59569  0.13016  0.70640  1.0000
  H   H821      1.0  0.63253  0.14257  0.41057  1.0000
  H   H822      1.0  0.70470  0.21289  0.63205  1.0000
  C   C503      1.0  0.71305  0.18305  0.48179  1.0000
  H   H823      1.0  0.55416  0.06628  0.11859  1.0000
  C   C504      1.0  0.51214  0.20837  0.31048  1.0000
  C   C505      1.0  0.49898  0.11178  0.83462  1.0000
  H   H824      1.0  0.60651  0.17036  0.81708  1.0000
  H   H825      1.0  0.70799  0.16190  0.13753  1.0000
  C   C506      1.0  0.51004  0.21959  0.67616  1.0000
  C   C507      1.0  0.51419  0.20674  0.69323  1.0000
  C   C508      1.0  0.52248  0.21004  0.72711  1.0000
  H   H826      1.0  0.53620  0.20648  0.30638  1.0000
  H   H827      1.0  0.51088  0.19424  0.68031  1.0000
  S   S171      1.0  0.51960  0.11882  0.23392  1.0000
  S   S172      1.0  0.50050  0.13907  0.32407  1.0000
  H   H828      1.0  0.59379  0.08488  0.06492  1.0000
  N   N33       1.0  0.57722  0.15189  0.57994  1.0000
  C   C509      1.0  0.57446  0.16546  0.60362  1.0000
  C   C510      1.0  0.56249  0.13544  0.58568  1.0000
  C   C511      1.0  0.57757  0.15741  0.54062  1.0000
  C   C512      1.0  0.59359  0.15076  0.59128  1.0000
  C   C513      1.0  0.58729  0.18392  0.59994  1.0000
  C   C514      1.0  0.56067  0.12817  0.62476  1.0000
  C   C515      1.0  0.57668  0.14411  0.51045  1.0000
  C   C516      1.0  0.59737  0.13509  0.57766  1.0000
  H   H829      1.0  0.56195  0.16592  0.59806  1.0000
  H   H830      1.0  0.57449  0.16239  0.63312  1.0000
  H   H831      1.0  0.56250  0.12499  0.56705  1.0000
  H   H832      1.0  0.55068  0.13722  0.57864  1.0000
  H   H833      1.0  0.56696  0.16160  0.53507  1.0000
  H   H834      1.0  0.58914  0.16870  0.53529  1.0000
  H   H835      1.0  0.60422  0.16231  0.58240  1.0000
  H   H836      1.0  0.59483  0.15119  0.62168  1.0000
  H   H837      1.0  0.58671  0.18924  0.57253  1.0000
  H   H838      1.0  0.57201  0.12620  0.63429  1.0000
  H   H839      1.0  0.55738  0.13637  0.64476  1.0000
  H   H840      1.0  0.55025  0.11548  0.62492  1.0000
  H   H841      1.0  0.57757  0.15031  0.48336  1.0000
  H   H842      1.0  0.56458  0.13311  0.51003  1.0000
  H   H843      1.0  0.58721  0.13970  0.51194  1.0000
  H   H844      1.0  0.60757  0.13915  0.55727  1.0000
  H   H845      1.0  0.58676  0.12453  0.56535  1.0000
  H   H846      1.0  0.60182  0.12953  0.60108  1.0000
  N   N34       1.0  0.53358  0.08404  0.81239  1.0000
  C   C517      1.0  0.53611  0.10161  0.79770  1.0000
  C   C518      1.0  0.52615  0.07136  0.78147  1.0000
  C   C519      1.0  0.55048  0.08404  0.82280  1.0000
  C   C520      1.0  0.52244  0.08088  0.84537  1.0000
  C   C521      1.0  0.54525  0.11700  0.82338  1.0000
  H   H847      1.0  0.54181  0.04026  0.07572  1.0000
  C   C522      1.0  0.55140  0.06681  0.83409  1.0000
  H   H848      1.0  0.55922  0.15535  0.13161  1.0000
  H   H849      1.0  0.54315  0.10393  0.77148  1.0000
  H   H850      1.0  0.52398  0.10268  0.79095  1.0000
  H   H851      1.0  0.52460  0.05815  0.78884  1.0000
  H   H852      1.0  0.53477  0.07438  0.75770  1.0000
  H   H853      1.0  0.55931  0.08894  0.79973  1.0000
  H   H854      1.0  0.55584  0.09285  0.84656  1.0000
  C   C523      1.0  0.51286  0.09806  0.17163  1.0000
  H   H855      1.0  0.69230  0.16586  0.53486  1.0000
  H   H856      1.0  0.53901  0.11594  0.85021  1.0000
  H   H857      1.0  0.55855  0.11894  0.82723  1.0000
  H   H858      1.0  0.54507  0.12884  0.81041  1.0000
  H   H859      1.0  0.70030  0.17439  0.47337  1.0000
  H   H860      1.0  0.50824  0.08189  0.12278  1.0000
  H   H861      1.0  0.57998  0.05543  0.06293  1.0000
  H   H862      1.0  0.54486  0.06224  0.86019  1.0000
  H   H863      1.0  0.68137  0.04327  0.80048  1.0000
  H   H864      1.0  0.54705  0.05678  0.81239  1.0000
  H   H865      1.0  0.65465  0.04175  0.82017  1.0000
  H   H866      1.0  0.55536  0.07871  0.01758  1.0000
  H   H867      1.0  0.57618  0.10803  0.03618  1.0000
  N   N35       1.0  0.62682  0.10910  0.38837  1.0000
  C   C524      1.0  0.61624  0.09056  0.38040  1.0000
  C   C525      1.0  0.63073  0.11111  0.42889  1.0000
  C   C526      1.0  0.64290  0.11461  0.36756  1.0000
  C   C527      1.0  0.61732  0.12000  0.37644  1.0000
  C   C528      1.0  0.61358  0.08518  0.33949  1.0000
  C   C529      1.0  0.61611  0.10998  0.45405  1.0000
  C   C530      1.0  0.65413  0.10443  0.37550  1.0000
  C   C531      1.0  0.62587  0.13946  0.38398  1.0000
  H   H868      1.0  0.62150  0.08185  0.39391  1.0000
  H   H869      1.0  0.60362  0.08724  0.39229  1.0000
  H   H870      1.0  0.64113  0.12339  0.43520  1.0000
  H   H871      1.0  0.63544  0.10118  0.43837  1.0000
  H   H872      1.0  0.64052  0.11419  0.33755  1.0000
  H   H873      1.0  0.65060  0.12827  0.37362  1.0000
  H   H874      1.0  0.61508  0.11874  0.34638  1.0000
  H   H875      1.0  0.60451  0.11546  0.38777  1.0000
  H   H876      1.0  0.62534  0.08596  0.32619  1.0000
  H   H877      1.0  0.60499  0.07155  0.33737  1.0000
  H   H878      1.0  0.60781  0.09275  0.32370  1.0000
  H   H879      1.0  0.62032  0.11067  0.48308  1.0000
  H   H880      1.0  0.61206  0.12092  0.45012  1.0000
  H   H881      1.0  0.60537  0.09772  0.45019  1.0000
  H   H882      1.0  0.64776  0.09049  0.37031  1.0000
  H   H883      1.0  0.65913  0.10678  0.40396  1.0000
  H   H884      1.0  0.66504  0.10898  0.35704  1.0000
  H   H885      1.0  0.63475  0.14579  0.36189  1.0000
  H   H886      1.0  0.58428  0.19227  0.62023  1.0000
  H   H887      1.0  0.52938  0.08849  0.86949  1.0000
  H   H888      1.0  0.61623  0.14524  0.38546  1.0000
  C   C532      1.0  0.56526  0.15461  0.21784  1.0000
  H   H889      1.0  0.60018  0.18491  0.60624  1.0000
  H   H890      1.0  0.67749  0.03302  0.89795  1.0000
  C   C533      1.0  0.50599  0.10505  0.19963  1.0000
  H   H891      1.0  0.68172  0.17549  0.15671  1.0000
  C   C534      1.0  0.58082  0.07484  0.13020  1.0000
  H   H892      1.0  0.68757  0.16967  0.07465  1.0000
  H   H893      1.0  0.54181  0.06183  0.04301  1.0000
  C   C535      1.0  0.56168  0.16920  0.19901  1.0000
  N   N36       1.0  0.56693  0.07324  0.06653  1.0000
  H   H894      1.0  0.50451  0.12062  0.55949  1.0000
  C   C536      1.0  0.58911  0.15580  0.17771  1.0000
  H   H895      1.0  0.57259  0.15977  0.24342  1.0000
  C   C537      1.0  0.71817  0.21818  0.63137  1.0000
  C   C538      1.0  0.56519  0.22533  0.69173  1.0000
  S   S173      1.0  0.49054  0.10608  0.75976  1.0000
  H   H896      1.0  0.54705  0.24250  0.65828  1.0000
  H   H897      1.0  0.50020  0.23248  0.16977  1.0000
  C   C539      1.0  0.48872  0.10078  0.19950  1.0000
  C   C540      1.0  0.52661  0.22632  0.74361  1.0000
  H   H898      1.0  0.70875  0.21263  0.51068  1.0000
  C   C541      1.0  0.65976  0.03340  0.83567  1.0000
  H   H899      1.0  0.57222  0.14466  0.11284  1.0000
  C   C542      1.0  0.71143  0.20274  0.07453  1.0000
  C   C543      1.0  0.72984  0.21113  0.25058  1.0000
  C   C544      1.0  0.49795  0.10660  0.87166  1.0000
  H   H900      1.0  0.60806  0.15930  0.22124  1.0000
  C   C545      1.0  0.56068  0.13418  0.16543  1.0000
  H   H901      1.0  0.72677  0.23149  0.78377  1.0000
  C   C546      1.0  0.65266  0.04773  0.88934  1.0000
  C   C547      1.0  0.50355  0.21969  0.31017  1.0000
  C   C548      1.0  0.52941  0.21501  0.30611  1.0000
  H   H902      1.0  0.64030  0.12551  0.87831  1.0000
  H   H903      1.0  0.59381  0.15204  0.79138  1.0000
  N   N37       1.0  0.70705  0.18742  0.13768  1.0000
  H   H904      1.0  0.49873  0.11083  0.49445  1.0000
  H   H905      1.0  0.51683  0.21757  0.38874  1.0000
  H   H906      1.0  0.70069  0.20602  0.08251  1.0000
  C   C549      1.0  0.53799  0.23273  0.30137  1.0000
  H   H907      1.0  0.70826  0.19551  0.04809  1.0000
  C   C550      1.0  0.57676  0.13212  0.21912  1.0000
  H   H908      1.0  0.66873  0.01883  0.95469  1.0000
  C   C551      1.0  0.73074  0.19844  0.53495  1.0000
  C   C552      1.0  0.72699  0.23863  0.25315  1.0000
  H   H909      1.0  0.66755  0.07113  0.91877  1.0000
  H   H910      1.0  0.56609  0.10962  0.25309  1.0000
  H   H911      1.0  0.55007  0.13449  0.11138  1.0000
  H   H912      1.0  0.67944  0.05898  0.90684  1.0000
  C   C553      1.0  0.66413  0.02470  0.89868  1.0000
  N   N38       1.0  0.57289  0.14453  0.19463  1.0000
  S   S174      1.0  0.60935  0.01868  0.95322  1.0000
  C   C554      1.0  0.62228  0.12384  0.83550  1.0000
  H   H913      1.0  0.57647  0.06983  0.15789  1.0000
  N   N39       1.0  0.65357  0.03127  0.87469  1.0000
  H   H914      1.0  0.65495  0.14989  0.78678  1.0000
  H   H915      1.0  0.71144  0.22742  0.17659  1.0000
  H   H916      1.0  0.73511  0.22634  0.74260  1.0000
  C   C555      1.0  0.56072  0.14292  0.12844  1.0000
  C   C556      1.0  0.64459  0.15449  0.78252  1.0000
  H   H917      1.0  0.63141  0.12852  0.76584  1.0000
  H   H918      1.0  0.64464  0.16320  0.80534  1.0000
  H   H919      1.0  0.63636  0.00502  0.86567  1.0000
  C   C557      1.0  0.62798  0.13921  0.77616  1.0000
  H   H920      1.0  0.62176  0.14226  0.75207  1.0000
  H   H921      1.0  0.56956  0.23293  0.60339  1.0000
  H   H922      1.0  0.64764  0.14279  0.84745  1.0000
  H   H923      1.0  0.70255  0.20382  0.55450  1.0000
  C   C558      1.0  0.72673  0.23579  0.62497  1.0000
  C   C559      1.0  0.58277  0.08614  0.05148  1.0000
  H   H924      1.0  0.56289  0.12227  0.15823  1.0000
  H   H925      1.0  0.66829  0.16205  0.09863  1.0000
  H   H926      1.0  0.60798  0.10695  0.75113  1.0000
  H   H927      1.0  0.56567  0.05330  0.02745  1.0000
  H   H928      1.0  0.64750  0.16260  0.75770  1.0000
  H   H929      1.0  0.64717  0.01246  0.94438  1.0000
  H   H930      1.0  0.59079  0.08778  0.13296  1.0000
  C   C560      1.0  0.59959  0.12116  0.79315  1.0000
  C   C561      1.0  0.55207  0.07452  0.04636  1.0000
  C   C562      1.0  0.59965  0.10444  0.77517  1.0000
  H   H931      1.0  0.62682  0.11471  0.82131  1.0000
  H   H932      1.0  0.58692  0.09682  0.76475  1.0000
  H   H933      1.0  0.70791  0.15083  0.56626  1.0000
  H   H934      1.0  0.60296  0.09628  0.79499  1.0000
  H   H935      1.0  0.52611  0.10099  0.17146  1.0000
  C   C563      1.0  0.63641  0.13448  0.86186  1.0000
  N   N40       1.0  0.61614  0.13344  0.80789  1.0000
  C   C564      1.0  0.56172  0.11858  0.23796  1.0000
  H   H936      1.0  0.55203  0.11078  0.21818  1.0000
  H   H937      1.0  0.59449  0.12733  0.77202  1.0000
  H   H938      1.0  0.62408  0.15696  0.84099  1.0000
  C   C565      1.0  0.49536  0.17846  0.41423  1.0000
  H   H939      1.0  0.61189  0.11586  0.85327  1.0000
  H   H940      1.0  0.63219  0.14203  0.88180  1.0000
  C   C566      1.0  0.61291  0.14800  0.82651  1.0000
  H   H941      1.0  0.55604  0.12450  0.25857  1.0000
  H   H942      1.0  0.58537  0.13903  0.24152  1.0000
  H   H943      1.0  0.54974  0.23419  0.59468  1.0000
  H   H944      1.0  0.59012  0.11735  0.81530  1.0000
  H   H945      1.0  0.72443  0.19731  0.25189  1.0000
  H   H946      1.0  0.50403  0.05947  0.74732  1.0000
  H   H947      1.0  0.60356  0.14298  0.84862  1.0000
  H   H948      1.0  0.58338  0.12510  0.20360  1.0000
  H   H949      1.0  0.61502  0.16409  0.77754  1.0000
  C   C567      1.0  0.55468  0.04046  0.07718  1.0000
  H   H950      1.0  0.50710  0.12458  0.82726  1.0000
  C   C568      1.0  0.60674  0.15908  0.80126  1.0000
  H   H951      1.0  0.49900  0.16308  0.48295  1.0000
  H   H952      1.0  0.56149  0.17872  0.22023  1.0000
  H   H953      1.0  0.56525  0.08813  0.11432  1.0000
  H   H954      1.0  0.72506  0.20719  0.17136  1.0000
  H   H955      1.0  0.53691  0.08030  0.08884  1.0000
  H   H956      1.0  0.54768  0.12971  0.17583  1.0000
  H   H957      1.0  0.59823  0.17499  0.22295  1.0000
  C   C569      1.0  0.71153  0.20220  0.16467  1.0000
  H   H958      1.0  0.55302  0.14603  0.22852  1.0000
  H   H959      1.0  0.68430  0.03119  0.83789  1.0000
  H   H960      1.0  0.73036  0.20023  0.11006  1.0000
  H   H961      1.0  0.71197  0.20543  0.45226  1.0000
  C   C570      1.0  0.71109  0.17333  0.15588  1.0000
  H   H962      1.0  0.67713  0.18088  0.52434  1.0000
  H   H963      1.0  0.49810  0.18211  0.44337  1.0000
  H   H964      1.0  0.68434  0.19032  0.48030  1.0000
  C   C571      1.0  0.60272  0.16703  0.20468  1.0000
  C   C572      1.0  0.63619  0.01774  0.87425  1.0000
  C   C573      1.0  0.70296  0.20029  0.52504  1.0000
  H   H965      1.0  0.49978  0.06798  0.78940  1.0000
  H   H966      1.0  0.57141  0.17662  0.17975  1.0000
  H   H967      1.0  0.65516  0.02083  0.82074  1.0000
  H   H968      1.0  0.61323  0.17600  0.18884  1.0000
  H   H969      1.0  0.48970  0.24311  0.14392  1.0000
  H   H970      1.0  0.69476  0.21539  0.14719  1.0000
  H   H971      1.0  0.54937  0.16420  0.18479  1.0000
  H   H972      1.0  0.71771  0.19077  0.42524  1.0000
  H   H973      1.0  0.59769  0.11308  0.04565  1.0000
  C   C574      1.0  0.54374  0.08613  0.06366  1.0000
  C   C575      1.0  0.56598  0.07556  0.10738  1.0000
  C   C576      1.0  0.70515  0.17355  0.54428  1.0000
  C   C577      1.0  0.50899  0.07034  0.76715  1.0000
  H   H974      1.0  0.65989  0.03486  0.95251  1.0000
  H   H975      1.0  0.49641  0.01206  0.94107  1.0000
  H   H976      1.0  0.71382  0.15421  0.51951  1.0000
  N   N41       1.0  0.71310  0.18913  0.52083  1.0000
  H   H977      1.0  0.49602  0.15311  0.41229  1.0000
  C   C578      1.0  0.71710  0.19248  0.10313  1.0000
  H   H978      1.0  0.56611  0.20794  0.73449  1.0000
  H   H979      1.0  0.55827  0.04018  0.10633  1.0000
  H   H980      1.0  0.59454  0.14779  0.16169  1.0000
  H   H981      1.0  0.53437  0.08728  0.04400  1.0000
  H   H982      1.0  0.71974  0.24395  0.62080  1.0000
  H   H983      1.0  0.50746  0.18297  0.39977  1.0000
  H   H984      1.0  0.56980  0.21757  0.67292  1.0000
  H   H985      1.0  0.50981  0.08200  0.75203  1.0000
  H   H986      1.0  0.55091  0.21826  0.62500  1.0000
  H   H987      1.0  0.68522  0.05289  0.84502  1.0000
  H   H988      1.0  0.53787  0.16974  0.52332  1.0000
  H   H989      1.0  0.58380  0.10908  0.08332  1.0000
  H   H990      1.0  0.58401  0.08350  0.02180  1.0000
  C   C579      1.0  0.68197  0.16577  0.10189  1.0000
  H   H991      1.0  0.70337  0.16880  0.18084  1.0000
  H   H992      1.0  0.58733  0.16471  0.15752  1.0000
  H   H993      1.0  0.55263  0.09924  0.07000  1.0000
  C   C580      1.0  0.72706  0.20755  0.63755  1.0000
  N   N42       1.0  0.57100  0.24375  0.67950  1.0000
  H   H994      1.0  0.55453  0.02842  0.06398  1.0000
  C   C581      1.0  0.71430  0.16091  0.54611  1.0000
  H   H995      1.0  0.73270  0.20480  0.45638  1.0000
  H   H996      1.0  0.68380  0.19035  0.12219  1.0000
  C   C582      1.0  0.50273  0.08713  0.14390  1.0000
  H   H997      1.0  0.70396  0.17754  0.57298  1.0000
  C   C583      1.0  0.50713  0.23659  0.40737  1.0000
  S   S175      1.0  0.49753  0.06667  0.01761  1.0000
  C   C584      1.0  0.68488  0.19272  0.51030  1.0000
  H   H998      1.0  0.67345  0.07072  0.87177  1.0000
  C   C585      1.0  0.66931  0.06280  0.89665  1.0000
  H   H999      1.0  0.70489  0.19774  0.19091  1.0000
  C   C586      1.0  0.72938  0.17774  0.16784  1.0000
  C   C587      1.0  0.59642  0.99621  0.95480  1.0000
  H   H1000     1.0  0.66363  0.01200  0.88823  1.0000
  H   H1001     1.0  0.67887  0.20214  0.51531  1.0000
  H   H1002     1.0  0.50340  0.21684  0.65020  1.0000
  C   C588      1.0  0.56746  0.05588  0.05744  1.0000
  H   H1003     1.0  0.62687  0.02277  0.82049  1.0000
  H   H1004     1.0  0.68392  0.15407  0.11040  1.0000
  C   C589      1.0  0.51367  0.06212  0.85795  1.0000
  Fe  Fe90      1.0  0.49445  0.03916  0.00959  1.0000
  H   H1005     1.0  0.51237  0.08572  0.84006  1.0000
  H   H1006     1.0  0.61124  0.01019  0.85136  1.0000
  C   C590      1.0  0.65950  0.02268  0.93970  1.0000
  C   C591      1.0  0.62327  0.02128  0.84973  1.0000
  C   C592      1.0  0.48995  0.99819  0.94666  1.0000
  H   H1007     1.0  0.72088  0.17520  0.47896  1.0000
  C   C593      1.0  0.58493  0.10510  0.05475  1.0000
  H   H1008     1.0  0.56465  0.06882  0.83954  1.0000
  H   H1009     1.0  0.63085  0.01581  0.90204  1.0000
  H   H1010     1.0  0.53299  0.22896  0.76987  1.0000
  C   C594      1.0  0.67877  0.04068  0.83008  1.0000
  H   H1011     1.0  0.71603  0.22485  0.13017  1.0000
  H   H1012     1.0  0.64501  0.04547  0.91457  1.0000
  C   C595      1.0  0.56973  0.22199  0.73107  1.0000
  H   H1013     1.0  0.58315  0.22799  0.73742  1.0000
  H   H1014     1.0  0.72738  0.16712  0.55574  1.0000
  C   C596      1.0  0.51217  0.23748  0.30578  1.0000
  C   C597      1.0  0.68847  0.18038  0.13076  1.0000
  C   C598      1.0  0.51451  0.23599  0.69224  1.0000
  H   H1015     1.0  0.51577  0.06141  0.88786  1.0000
  H   H1016     1.0  0.51767  0.05253  0.84445  1.0000
  C   C599      1.0  0.70806  0.21814  0.15318  1.0000
  H   H1017     1.0  0.56249  0.22609  0.75164  1.0000
  H   H1018     1.0  0.49996  0.05801  0.85429  1.0000
  H   H1019     1.0  0.73073  0.16583  0.17758  1.0000
  H   H1020     1.0  0.55138  0.21921  0.69008  1.0000
  H   H1021     1.0  0.60486  0.23996  0.69718  1.0000
  C   C600      1.0  0.73460  0.23713  0.75965  1.0000
  C   C601      1.0  0.52176  0.23068  0.40102  1.0000
  H   H1022     1.0  0.52828  0.22981  0.42665  1.0000
  H   H1023     1.0  0.71739  0.18084  0.08862  1.0000
  C   C602      1.0  0.55760  0.23168  0.61629  1.0000
  H   H1024     1.0  0.53064  0.23886  0.38085  1.0000
  C   C603      1.0  0.51237  0.24371  0.11982  1.0000
  C   C604      1.0  0.48942  0.10047  0.80735  1.0000
  H   H1025     1.0  0.50656  0.23085  0.10661  1.0000
  H   H1026     1.0  0.50965  0.24231  0.47924  1.0000
  H   H1027     1.0  0.72188  0.21499  0.06876  1.0000
  H   H1028     1.0  0.73225  0.22436  0.55048  1.0000
  H   H1029     1.0  0.55136  0.23769  0.29796  1.0000
  H   H1030     1.0  0.51491  0.99875  0.94174  1.0000
  C   C605      1.0  0.50228  0.24443  0.15424  1.0000
  C   C606      1.0  0.52946  0.24407  0.30128  1.0000
  H   H1031     1.0  0.73164  0.19629  0.56487  1.0000
  H   H1032     1.0  0.58985  0.24050  0.64482  1.0000
  H   H1033     1.0  0.57317  0.99839  0.96970  1.0000
  C   C607      1.0  0.52278  0.23929  0.72612  1.0000
  H   H1034     1.0  0.73761  0.22257  0.50326  1.0000
  H   H1035     1.0  0.50160  0.23638  0.37976  1.0000
  H   H1036     1.0  0.53289  0.24135  0.18172  1.0000
  H   H1037     1.0  0.73301  0.18689  0.19133  1.0000
  C   C608      1.0  0.55982  0.24462  0.64821  1.0000
  H   H1038     1.0  0.49019  0.21467  0.31357  1.0000
  H   H1039     1.0  0.49183  0.24414  0.76150  1.0000
  H   H1040     1.0  0.72813  0.24414  0.74410  1.0000
  H   H1041     1.0  0.73822  0.18257  0.14499  1.0000
  Fe  Fe91      1.0  0.68375  0.42844  0.71894  1.0000
  S   S176      1.0  0.68371  0.45121  0.68729  1.0000
  S   S177      1.0  0.70641  0.42284  0.73743  1.0000
  Fe  Fe92      1.0  0.64539  0.41313  0.72381  1.0000
  S   S178      1.0  0.64299  0.43474  0.69200  1.0000
  S   S179      1.0  0.62101  0.39580  0.74801  1.0000
  Fe  Fe93      1.0  0.66248  0.43203  0.65444  1.0000
  S   S180      1.0  0.65901  0.42479  0.59318  1.0000
  Fe  Fe94      1.0  0.66402  0.45152  0.72811  1.0000
  S   S181      1.0  0.66147  0.47432  0.75838  1.0000
  S   S182      1.0  0.66356  0.40915  0.68473  1.0000
  S   S183      1.0  0.66549  0.43003  0.76138  1.0000
  Fe  Fe95      1.0  0.55527  0.31125  0.68406  1.0000
  S   S184      1.0  0.54455  0.32991  0.66301  1.0000
  S   S185      1.0  0.58261  0.31870  0.69734  1.0000
  Fe  Fe96      1.0  0.52298  0.28057  0.67201  1.0000
  C   C609      1.0  0.70094  0.45014  0.43942  1.0000
  Fe  Fe97      1.0  0.53342  0.31060  0.61731  1.0000
  H   H1042     1.0  0.53007  0.25132  0.46277  1.0000
  H   H1043     1.0  0.52617  0.25180  0.73889  1.0000
  S   S186      1.0  0.54546  0.29272  0.63714  1.0000
  S   S187      1.0  0.53384  0.29748  0.72130  1.0000
  Fe  Fe98      1.0  0.65651  0.44585  0.38100  1.0000
  S   S188      1.0  0.67020  0.42820  0.37144  1.0000
  S   S189      1.0  0.65770  0.45858  0.43741  1.0000
  Fe  Fe99      1.0  0.64614  0.44462  0.29808  1.0000
  S   S190      1.0  0.65976  0.42719  0.28374  1.0000
  S   S191      1.0  0.62838  0.44930  0.25594  1.0000
  Fe  Fe100     1.0  0.64837  0.41328  0.33510  1.0000
  S   S192      1.0  0.63632  0.38444  0.33823  1.0000
  Fe  Fe101     1.0  0.68032  0.44386  0.32155  1.0000
  S   S193      1.0  0.70809  0.45614  0.30955  1.0000
  S   S194      1.0  0.63382  0.42975  0.34830  1.0000
  S   S195      1.0  0.66749  0.46244  0.33208  1.0000
  Fe  Fe102     1.0  0.50948  0.30539  0.26037  1.0000
  S   S196      1.0  0.53559  0.30701  0.25020  1.0000
  Fe  Fe103     1.0  0.51496  0.30610  0.34540  1.0000
  S   S197      1.0  0.54153  0.30868  0.33979  1.0000
  C   C610      1.0  0.52250  0.26806  0.40237  1.0000
  Fe  Fe104     1.0  0.54282  0.32717  0.29476  1.0000
  S   S198      1.0  0.56095  0.35420  0.28535  1.0000
  Fe  Fe105     1.0  0.53148  0.28811  0.29616  1.0000
  S   S199      1.0  0.54102  0.26627  0.29558  1.0000
  S   S200      1.0  0.51676  0.32622  0.30343  1.0000
  Fe  Fe106     1.0  0.59771  0.45686  0.00622  1.0000
  S   S201      1.0  0.58411  0.42844  0.00454  1.0000
  S   S202      1.0  0.62507  0.46483  0.01387  1.0000
  S   S203      1.0  0.51078  0.40858  0.94607  1.0000
  C   C611      1.0  0.53149  0.41412  0.96025  1.0000
  C   C612      1.0  0.54169  0.43141  0.96490  1.0000
  C   C613      1.0  0.55812  0.43596  0.97754  1.0000
  C   C614      1.0  0.56437  0.42319  0.98504  1.0000
  C   C615      1.0  0.55439  0.40596  0.97910  1.0000
  C   C616      1.0  0.53797  0.40145  0.96673  1.0000
  H   H1044     1.0  0.53675  0.44127  0.95969  1.0000
  H   H1045     1.0  0.56573  0.44930  0.98246  1.0000
  H   H1046     1.0  0.55924  0.39608  0.98475  1.0000
  H   H1047     1.0  0.53041  0.38819  0.96199  1.0000
  H   H1048     1.0  0.64246  0.44913  0.09288  1.0000
  C   C617      1.0  0.57503  0.27441  0.70140  1.0000
  S   S204      1.0  0.50743  0.32809  0.72970  1.0000
  H   H1049     1.0  0.51786  0.35625  0.14074  1.0000
  H   H1050     1.0  0.51609  0.33718  0.19345  1.0000
  C   C618      1.0  0.63149  0.46093  0.21423  1.0000
  H   H1051     1.0  0.53441  0.40267  0.88692  1.0000
  C   C619      1.0  0.52953  0.31398  0.51523  1.0000
  C   C620      1.0  0.53484  0.40480  0.85687  1.0000
  Fe  Fe107     1.0  0.52220  0.31499  0.69711  1.0000
  C   C621      1.0  0.61558  0.37572  0.32207  1.0000
  C   C622      1.0  0.60852  0.38602  0.30415  1.0000
  C   C623      1.0  0.59189  0.37906  0.29211  1.0000
  C   C624      1.0  0.58217  0.36175  0.29785  1.0000
  C   C625      1.0  0.58923  0.35133  0.31542  1.0000
  C   C626      1.0  0.60593  0.35832  0.32745  1.0000
  H   H1052     1.0  0.61587  0.39940  0.29960  1.0000
  H   H1053     1.0  0.58647  0.38720  0.27871  1.0000
  H   H1054     1.0  0.58178  0.33798  0.32009  1.0000
  H   H1055     1.0  0.61137  0.35029  0.34121  1.0000
  S   S205      1.0  0.50888  0.25167  0.66985  1.0000
  N   N43       1.0  0.50951  0.25996  0.17920  1.0000
  H   H1056     1.0  0.50055  0.27462  0.21678  1.0000
  H   H1057     1.0  0.51449  0.31850  0.86142  1.0000
  H   H1058     1.0  0.70738  0.42478  0.34524  1.0000
  C   C627      1.0  0.52660  0.37449  0.84068  1.0000
  H   H1059     1.0  0.49834  0.26972  0.74206  1.0000
  H   H1060     1.0  0.53569  0.37829  0.09009  1.0000
  C   C628      1.0  0.53096  0.31376  0.44807  1.0000
  C   C629      1.0  0.53886  0.31715  0.48277  1.0000
  H   H1061     1.0  0.53829  0.31580  0.42351  1.0000
  H   H1062     1.0  0.55232  0.32209  0.48454  1.0000
  H   H1063     1.0  0.56161  0.41361  0.13396  1.0000
  H   H1064     1.0  0.69419  0.42416  0.45907  1.0000
  H   H1065     1.0  0.55578  0.25091  0.71794  1.0000
  H   H1066     1.0  0.51682  0.35239  0.41507  1.0000
  H   H1067     1.0  0.56219  0.36889  0.49690  1.0000
  C   C630      1.0  0.65883  0.43471  0.55042  1.0000
  C   C631      1.0  0.65612  0.42464  0.51819  1.0000
  C   C632      1.0  0.65569  0.43171  0.48349  1.0000
  C   C633      1.0  0.65800  0.44902  0.48057  1.0000
  C   C634      1.0  0.50672  0.33316  0.17196  1.0000
  S   S206      1.0  0.49751  0.35374  0.07681  1.0000
  H   H1068     1.0  0.65444  0.41127  0.52003  1.0000
  H   H1069     1.0  0.65358  0.42378  0.45900  1.0000
  H   H1070     1.0  0.52939  0.27484  0.14280  1.0000
  H   H1071     1.0  0.49944  0.27169  0.11585  1.0000
  S   S207      1.0  0.49159  0.30305  0.21185  1.0000
  H   H1072     1.0  0.54419  0.25424  0.21890  1.0000
  C   C635      1.0  0.61069  0.37462  0.73215  1.0000
  C   C636      1.0  0.61945  0.36421  0.72256  1.0000
  C   C637      1.0  0.61074  0.34704  0.71185  1.0000
  C   C638      1.0  0.59327  0.34029  0.71038  1.0000
  C   C639      1.0  0.58455  0.35078  0.71979  1.0000
  C   C640      1.0  0.59324  0.36784  0.73098  1.0000
  H   H1073     1.0  0.63292  0.36929  0.72411  1.0000
  H   H1074     1.0  0.61755  0.33893  0.70493  1.0000
  H   H1075     1.0  0.57109  0.34563  0.71928  1.0000
  H   H1076     1.0  0.58640  0.37579  0.73880  1.0000
  C   C641      1.0  0.72773  0.43382  0.72677  1.0000
  H   H1077     1.0  0.71505  0.45161  0.83071  1.0000
  C   C642      1.0  0.54776  0.40875  0.13465  1.0000
  H   H1078     1.0  0.72057  0.35684  0.34010  1.0000
  H   H1079     1.0  0.72434  0.45415  0.69673  1.0000
  H   H1080     1.0  0.49631  0.27213  0.84588  1.0000
  H   H1081     1.0  0.49722  0.26937  0.44332  1.0000
  N   N44       1.0  0.55284  0.36664  0.40377  1.0000
  C   C643      1.0  0.53877  0.35341  0.38266  1.0000
  C   C644      1.0  0.56887  0.36458  0.39354  1.0000
  C   C645      1.0  0.55428  0.38455  0.39451  1.0000
  C   C646      1.0  0.57116  0.34839  0.40776  1.0000
  H   H1082     1.0  0.54159  0.35375  0.35290  1.0000
  H   H1083     1.0  0.53722  0.34026  0.39116  1.0000
  H   H1084     1.0  0.57998  0.37592  0.40205  1.0000
  H   H1085     1.0  0.56990  0.36409  0.36335  1.0000
  H   H1086     1.0  0.54337  0.38722  0.40471  1.0000
  H   H1087     1.0  0.52126  0.36691  0.37651  1.0000
  H   H1088     1.0  0.57110  0.34781  0.43809  1.0000
  H   H1089     1.0  0.56168  0.33660  0.39591  1.0000
  H   H1090     1.0  0.58346  0.34856  0.39867  1.0000
  H   H1091     1.0  0.55736  0.40250  0.35006  1.0000
  H   H1092     1.0  0.56777  0.27719  0.67897  1.0000
  H   H1093     1.0  0.51467  0.36330  0.89291  1.0000
  C   C647      1.0  0.61231  0.43334  0.79031  1.0000
  H   H1094     1.0  0.60769  0.41100  0.18052  1.0000
  H   H1095     1.0  0.54795  0.39713  0.18760  1.0000
  C   C648      1.0  0.69987  0.48119  0.39639  1.0000
  C   C649      1.0  0.50862  0.28229  0.13195  1.0000
  H   H1096     1.0  0.61573  0.44564  0.77547  1.0000
  C   C650      1.0  0.64682  0.47352  0.20515  1.0000
  C   C651      1.0  0.66121  0.45205  0.54753  1.0000
  H   H1097     1.0  0.54516  0.26191  0.41576  1.0000
  H   H1098     1.0  0.54713  0.27578  0.37841  1.0000
  H   H1099     1.0  0.54558  0.38088  0.33656  1.0000
  C   C652      1.0  0.52147  0.35461  0.38660  1.0000
  H   H1100     1.0  0.62939  0.43744  0.89522  1.0000
  C   C653      1.0  0.53419  0.42279  0.85235  1.0000
  H   H1101     1.0  0.53919  0.37720  0.82933  1.0000
  C   C654      1.0  0.54348  0.39078  0.07789  1.0000
  H   H1102     1.0  0.54758  0.40564  0.84945  1.0000
  H   H1103     1.0  0.53084  0.35656  0.87822  1.0000
  H   H1104     1.0  0.50190  0.28926  0.14689  1.0000
  H   H1105     1.0  0.56797  0.38825  0.34225  1.0000
  H   H1106     1.0  0.52857  0.28139  0.47293  1.0000
  H   H1107     1.0  0.53800  0.36649  0.45138  1.0000
  H   H1108     1.0  0.51702  0.29155  0.11251  1.0000
  H   H1109     1.0  0.54639  0.40882  0.78656  1.0000
  H   H1110     1.0  0.50477  0.30501  0.53717  1.0000
  H   H1111     1.0  0.70211  0.48675  0.36851  1.0000
  H   H1112     1.0  0.50727  0.28975  0.81764  1.0000
  H   H1113     1.0  0.51499  0.39233  0.04128  1.0000
  H   H1114     1.0  0.54480  0.38236  0.15027  1.0000
  H   H1115     1.0  0.62643  0.44663  0.83681  1.0000
  H   H1116     1.0  0.51524  0.40314  0.79233  1.0000
  C   C655      1.0  0.64343  0.38874  0.15246  1.0000
  H   H1117     1.0  0.60026  0.25657  0.72126  1.0000
  C   C656      1.0  0.54631  0.43781  0.08823  1.0000
  H   H1118     1.0  0.52337  0.27228  0.82770  1.0000
  H   H1119     1.0  0.51777  0.26983  0.78053  1.0000
  H   H1120     1.0  0.51870  0.40934  0.11834  1.0000
  C   C657      1.0  0.54146  0.27235  0.40590  1.0000
  H   H1121     1.0  0.58785  0.40623  0.88662  1.0000
  H   H1122     1.0  0.51055  0.38119  0.78419  1.0000
  H   H1123     1.0  0.72593  0.48976  0.40932  1.0000
  H   H1124     1.0  0.68830  0.45040  0.43537  1.0000
  H   H1125     1.0  0.52808  0.38884  0.16530  1.0000
  C   C658      1.0  0.50496  0.38546  0.85582  1.0000
  H   H1126     1.0  0.52892  0.26909  0.51225  1.0000
  C   C659      1.0  0.52004  0.39283  0.79728  1.0000
  H   H1127     1.0  0.49079  0.29968  0.47596  1.0000
  C   C660      1.0  0.52145  0.26956  0.48772  1.0000
  H   H1128     1.0  0.61188  0.39134  0.18149  1.0000
  H   H1129     1.0  0.62148  0.42378  0.13199  1.0000
  H   H1130     1.0  0.54741  0.28402  0.42324  1.0000
  H   H1131     1.0  0.58699  0.40016  0.80304  1.0000
  N   N45       1.0  0.61134  0.37733  0.59141  1.0000
  C   C661      1.0  0.59970  0.35996  0.57800  1.0000
  C   C662      1.0  0.62862  0.37708  0.59519  1.0000
  C   C663      1.0  0.61206  0.39122  0.56481  1.0000
  C   C664      1.0  0.60506  0.38115  0.62764  1.0000
  C   C665      1.0  0.58166  0.35830  0.56959  1.0000
  C   C666      1.0  0.63095  0.36516  0.62468  1.0000
  C   C667      1.0  0.61522  0.38783  0.52437  1.0000
  C   C668      1.0  0.61637  0.39769  0.64746  1.0000
  H   H1132     1.0  0.60469  0.35583  0.55312  1.0000
  H   H1133     1.0  0.59861  0.35000  0.59878  1.0000
  H   H1134     1.0  0.63791  0.39014  0.60117  1.0000
  H   H1135     1.0  0.63267  0.37309  0.56896  1.0000
  H   H1136     1.0  0.60048  0.39405  0.56574  1.0000
  H   H1137     1.0  0.62224  0.40354  0.57261  1.0000
  H   H1138     1.0  0.59280  0.38243  0.62404  1.0000
  H   H1139     1.0  0.60271  0.37033  0.64696  1.0000
  H   H1140     1.0  0.57486  0.35886  0.59500  1.0000
  H   H1141     1.0  0.58092  0.36799  0.55011  1.0000
  H   H1142     1.0  0.57485  0.34552  0.55680  1.0000
  H   H1143     1.0  0.62878  0.36920  0.65241  1.0000
  H   H1144     1.0  0.62299  0.35153  0.61975  1.0000
  H   H1145     1.0  0.64409  0.36605  0.62438  1.0000
  H   H1146     1.0  0.61628  0.39931  0.50818  1.0000
  H   H1147     1.0  0.60484  0.37685  0.51215  1.0000
  H   H1148     1.0  0.62709  0.38586  0.52084  1.0000
  H   H1149     1.0  0.62825  0.39685  0.65659  1.0000
  H   H1150     1.0  0.60997  0.39964  0.67245  1.0000
  H   H1151     1.0  0.61901  0.40925  0.63053  1.0000
  H   H1152     1.0  0.66757  0.42730  0.13748  1.0000
  C   C669      1.0  0.66106  0.46530  0.83154  1.0000
  H   H1153     1.0  0.73618  0.48577  0.73294  1.0000
  H   H1154     1.0  0.53944  0.38960  0.04866  1.0000
  H   H1155     1.0  0.72963  0.42566  0.61066  1.0000
  C   C670      1.0  0.59131  0.41203  0.85903  1.0000
  H   H1156     1.0  0.64377  0.42254  0.87245  1.0000
  H   H1157     1.0  0.51671  0.41415  0.05080  1.0000
  H   H1158     1.0  0.52848  0.42464  0.82648  1.0000
  H   H1159     1.0  0.73719  0.46567  0.77911  1.0000
  C   C671      1.0  0.66675  0.44604  0.17751  1.0000
  C   C672      1.0  0.61362  0.43723  0.83178  1.0000
  H   H1160     1.0  0.56645  0.39135  0.10600  1.0000
  C   C673      1.0  0.52077  0.25720  0.20811  1.0000
  C   C674      1.0  0.64836  0.47643  0.88054  1.0000
  H   H1161     1.0  0.64519  0.40566  0.10779  1.0000
  H   H1162     1.0  0.60538  0.44443  0.83750  1.0000
  H   H1163     1.0  0.52517  0.28694  0.17840  1.0000
  H   H1164     1.0  0.59192  0.26186  0.65008  1.0000
  H   H1165     1.0  0.64225  0.43033  0.82689  1.0000
  C   C675      1.0  0.54168  0.39326  0.16049  1.0000
  Fe  Fe108     1.0  0.62313  0.48477  0.05241  1.0000
  C   C676      1.0  0.63386  0.41494  0.19384  1.0000
  H   H1166     1.0  0.66299  0.46089  0.88928  1.0000
  H   H1167     1.0  0.63482  0.42718  0.07644  1.0000
  C   C677      1.0  0.64575  0.48323  0.81655  1.0000
  H   H1168     1.0  0.66848  0.45802  0.82329  1.0000
  C   C678      1.0  0.72011  0.43236  0.33817  1.0000
  C   C679      1.0  0.56903  0.25514  0.70994  1.0000
  H   H1169     1.0  0.65702  0.39332  0.15799  1.0000
  H   H1170     1.0  0.57556  0.25415  0.73546  1.0000
  H   H1171     1.0  0.70303  0.44411  0.41352  1.0000
  C   C680      1.0  0.53631  0.25420  0.19470  1.0000
  C   C681      1.0  0.66057  0.42740  0.16290  1.0000
  H   H1172     1.0  0.66253  0.47253  0.51085  1.0000
  H   H1173     1.0  0.69373  0.46314  0.77589  1.0000
  C   C682      1.0  0.49080  0.27668  0.75356  1.0000
  S   S208      1.0  0.63805  0.49114  0.10630  1.0000
  H   H1174     1.0  0.50713  0.25307  0.81317  1.0000
  H   H1175     1.0  0.58850  0.27992  0.69508  1.0000
  H   H1176     1.0  0.54709  0.43252  0.85232  1.0000
  C   C683      1.0  0.51820  0.25343  0.46367  1.0000
  C   C684      1.0  0.51261  0.26707  0.80845  1.0000
  H   H1177     1.0  0.59354  0.43318  0.91608  1.0000
  N   N46       1.0  0.71358  0.46811  0.44463  1.0000
  H   H1178     1.0  0.61077  0.40231  0.22283  1.0000
  C   C685      1.0  0.56308  0.37558  0.47044  1.0000
  H   H1179     1.0  0.72470  0.48168  0.52053  1.0000
  H   H1180     1.0  0.49666  0.37202  0.84882  1.0000
  H   H1181     1.0  0.72970  0.44516  0.42366  1.0000
  Fe  Fe109     1.0  0.59905  0.49357  0.00116  1.0000
  H   H1182     1.0  0.55646  0.44514  0.10764  1.0000
  C   C686      1.0  0.63521  0.47883  0.14699  1.0000
  H   H1183     1.0  0.63656  0.38403  0.17818  1.0000
  H   H1184     1.0  0.53421  0.43529  0.10161  1.0000
  C   C687      1.0  0.49496  0.25652  0.43093  1.0000
  C   C688      1.0  0.58378  0.39676  0.83191  1.0000
  C   C689      1.0  0.49552  0.26292  0.19906  1.0000
  H   H1185     1.0  0.54028  0.38648  0.77229  1.0000
  C   C690      1.0  0.52191  0.40088  0.09867  1.0000
  H   H1186     1.0  0.61479  0.40473  0.81889  1.0000
  H   H1187     1.0  0.52513  0.26835  0.22752  1.0000
  C   C691      1.0  0.70570  0.48809  0.82471  1.0000
  H   H1188     1.0  0.62126  0.42756  0.78117  1.0000
  C   C692      1.0  0.61592  0.42920  0.89512  1.0000
  C   C693      1.0  0.70324  0.45117  0.81796  1.0000
  H   H1189     1.0  0.70372  0.48054  0.85028  1.0000
  C   C694      1.0  0.50812  0.32333  0.84140  1.0000
  H   H1190     1.0  0.56235  0.42482  0.07337  1.0000
  C   C695      1.0  0.65534  0.47377  0.80508  1.0000
  C   C696      1.0  0.61499  0.40426  0.19391  1.0000
  H   H1191     1.0  0.57322  0.28142  0.72601  1.0000
  S   S209      1.0  0.54035  0.31928  0.55799  1.0000
  N   N47       1.0  0.71610  0.48271  0.79768  1.0000
  C   C697      1.0  0.65789  0.46691  0.86900  1.0000
  H   H1192     1.0  0.49943  0.39651  0.06722  1.0000
  H   H1193     1.0  0.57000  0.39180  0.83384  1.0000
  S   S210      1.0  0.50477  0.28474  0.30328  1.0000
  C   C698      1.0  0.51360  0.30769  0.44527  1.0000
  C   C699      1.0  0.61802  0.45738  0.18945  1.0000
  H   H1194     1.0  0.60609  0.44772  0.19623  1.0000
  H   H1195     1.0  0.61242  0.44433  0.94059  1.0000
  H   H1196     1.0  0.58416  0.42055  0.85577  1.0000
  H   H1197     1.0  0.61464  0.41857  0.91437  1.0000
  H   H1198     1.0  0.70685  0.46173  0.52167  1.0000
  C   C700      1.0  0.50768  0.34400  0.14194  1.0000
  C   C701      1.0  0.51214  0.30740  0.51250  1.0000
  H   H1199     1.0  0.59955  0.42530  0.78144  1.0000
  H   H1200     1.0  0.66327  0.45997  0.57203  1.0000
  C   C702      1.0  0.55637  0.38904  0.35344  1.0000
  H   H1201     1.0  0.69714  0.43806  0.80612  1.0000
  H   H1202     1.0  0.56523  0.39415  0.40890  1.0000
  H   H1203     1.0  0.64294  0.40963  0.83276  1.0000
  C   C703      1.0  0.54937  0.36400  0.44411  1.0000
  H   H1204     1.0  0.54611  0.35038  0.45184  1.0000
  H   H1205     1.0  0.51230  0.34429  0.36971  1.0000
  C   C704      1.0  0.63806  0.41902  0.84480  1.0000
  N   N48       1.0  0.51117  0.25383  0.42588  1.0000
  S   S211      1.0  0.50254  0.36050  0.97459  1.0000
  C   C705      1.0  0.61990  0.46609  0.15584  1.0000
  H   H1206     1.0  0.60944  0.46317  0.13713  1.0000
  C   C706      1.0  0.66078  0.45914  0.51278  1.0000
  H   H1207     1.0  0.57586  0.37822  0.46069  1.0000
  C   C707      1.0  0.71515  0.47727  0.40859  1.0000
  N   N49       1.0  0.54047  0.40548  0.09648  1.0000
  H   H1208     1.0  0.73064  0.48039  0.84466  1.0000
  H   H1209     1.0  0.54476  0.41927  0.04512  1.0000
  H   H1210     1.0  0.52758  0.42592  0.87573  1.0000
  C   C708      1.0  0.50424  0.30444  0.47770  1.0000
  H   H1211     1.0  0.73096  0.46296  0.48174  1.0000
  S   S212      1.0  0.50310  0.30380  0.40202  1.0000
  H   H1212     1.0  0.58770  0.38599  0.83909  1.0000
  C   C709      1.0  0.73065  0.46840  0.45438  1.0000
  H   H1213     1.0  0.50644  0.38586  0.88612  1.0000
  C   C710      1.0  0.69904  0.43739  0.47072  1.0000
  C   C711      1.0  0.70614  0.46432  0.78701  1.0000
  H   H1214     1.0  0.51904  0.26536  0.37283  1.0000
  C   C712      1.0  0.52707  0.36782  0.87981  1.0000
  N   N50       1.0  0.60989  0.42220  0.85714  1.0000
  H   H1215     1.0  0.56211  0.38039  0.06285  1.0000
  C   C713      1.0  0.54866  0.42142  0.07438  1.0000
  H   H1216     1.0  0.61423  0.26218  0.68471  1.0000
  C   C714      1.0  0.51301  0.40107  0.06210  1.0000
  C   C715      1.0  0.56166  0.39176  0.07796  1.0000
  H   H1217     1.0  0.57016  0.40317  0.06359  1.0000
  H   H1218     1.0  0.61581  0.39965  0.86548  1.0000
  H   H1219     1.0  0.54650  0.44604  0.06443  1.0000
  C   C716      1.0  0.53619  0.39747  0.77496  1.0000
  H   H1220     1.0  0.52202  0.31906  0.79545  1.0000
  H   H1221     1.0  0.52076  0.28024  0.40883  1.0000
  C   C717      1.0  0.73328  0.44910  0.70717  1.0000
  H   H1222     1.0  0.51568  0.38777  0.10989  1.0000
  H   H1223     1.0  0.51806  0.36353  0.82401  1.0000
  C   C718      1.0  0.51236  0.32353  0.80398  1.0000
  H   H1224     1.0  0.62506  0.39682  0.12649  1.0000
  H   H1225     1.0  0.64140  0.49001  0.79643  1.0000
  C   C719      1.0  0.60710  0.44027  0.91269  1.0000
  H   H1226     1.0  0.56156  0.38798  0.47548  1.0000
  S   S213      1.0  0.50998  0.29722  0.64929  1.0000
  H   H1227     1.0  0.54481  0.41916  0.14842  1.0000
  H   H1228     1.0  0.66503  0.42014  0.18301  1.0000
  N   N51       1.0  0.52164  0.38988  0.83759  1.0000
  C   C720      1.0  0.61892  0.41061  0.84631  1.0000
  H   H1229     1.0  0.71925  0.24613  0.25630  1.0000
  H   H1230     1.0  0.60935  0.45220  0.89720  1.0000
  C   C721      1.0  0.50378  0.32908  0.77758  1.0000
  C   C722      1.0  0.49354  0.31728  0.17435  1.0000
  H   H1231     1.0  0.68037  0.45056  0.18299  1.0000
  H   H1232     1.0  0.53631  0.37749  0.89773  1.0000
  H   H1233     1.0  0.65550  0.43724  0.09527  1.0000
  Fe  Fe110     1.0  0.49406  0.38184  0.96128  1.0000
  H   H1234     1.0  0.50970  0.27032  0.49808  1.0000
  S   S214      1.0  0.59913  0.47373  0.95833  1.0000
  S   S215      1.0  0.59530  0.47529  0.04842  1.0000
  H   H1235     1.0  0.49928  0.29043  0.75330  1.0000
  H   H1236     1.0  0.69414  0.47477  0.47029  1.0000
  C   C723      1.0  0.49477  0.39659  0.84665  1.0000
  C   C724      1.0  0.63847  0.40268  0.13433  1.0000
  H   H1237     1.0  0.69306  0.48556  0.81304  1.0000
  N   N52       1.0  0.64200  0.41881  0.15680  1.0000
  H   H1238     1.0  0.71763  0.46968  0.38574  1.0000
  H   H1239     1.0  0.71479  0.47687  0.71678  1.0000
  H   H1240     1.0  0.56441  0.25755  0.63574  1.0000
  C   C725      1.0  0.70780  0.47784  0.47310  1.0000
  C   C726      1.0  0.63512  0.43027  0.13648  1.0000
  C   C727      1.0  0.71126  0.47530  0.51372  1.0000
  C   C728      1.0  0.72378  0.44808  0.32082  1.0000
  H   H1241     1.0  0.71187  0.45971  0.76426  1.0000
  H   H1242     1.0  0.63998  0.40828  0.21162  1.0000
  C   C729      1.0  0.64242  0.43610  0.09812  1.0000
  C   C730      1.0  0.64859  0.48251  0.17196  1.0000
  H   H1243     1.0  0.54420  0.26441  0.17652  1.0000
  H   H1244     1.0  0.65725  0.47657  0.22401  1.0000
  H   H1245     1.0  0.73533  0.41541  0.75462  1.0000
  H   H1246     1.0  0.68854  0.46945  0.39460  1.0000
  H   H1247     1.0  0.57629  0.48302  0.13315  1.0000
  C   C731      1.0  0.73293  0.42625  0.34560  1.0000
  H   H1248     1.0  0.72630  0.37576  0.31188  1.0000
  Fe  Fe111     1.0  0.62688  0.48274  0.96733  1.0000
  H   H1249     1.0  0.63622  0.44179  0.15305  1.0000
  H   H1250     1.0  0.64030  0.37754  0.13346  1.0000
  C   C732      1.0  0.49154  0.33527  0.78938  1.0000
  H   H1251     1.0  0.53373  0.40076  0.74666  1.0000
  H   H1252     1.0  0.72992  0.41395  0.35848  1.0000
  C   C733      1.0  0.51904  0.27613  0.15875  1.0000
  H   H1253     1.0  0.66485  0.45490  0.15721  1.0000
  H   H1254     1.0  0.63556  0.42701  0.20887  1.0000
  H   H1255     1.0  0.70453  0.48149  0.53118  1.0000
  H   H1256     1.0  0.66083  0.44715  0.20378  1.0000
  C   C734      1.0  0.73251  0.48503  0.81591  1.0000
  H   H1257     1.0  0.71084  0.43870  0.48447  1.0000
  C   C735      1.0  0.50014  0.27569  0.81712  1.0000
  H   H1258     1.0  0.69755  0.49067  0.41469  1.0000
  H   H1259     1.0  0.69004  0.43833  0.49136  1.0000
  H   H1260     1.0  0.69476  0.45265  0.83922  1.0000
  C   C736      1.0  0.72635  0.37102  0.34011  1.0000
  C   C737      1.0  0.49560  0.33916  0.11360  1.0000
  H   H1261     1.0  0.71826  0.37593  0.35661  1.0000
  H   H1262     1.0  0.51216  0.25317  0.09908  1.0000
  C   C738      1.0  0.64199  0.48429  0.85398  1.0000
  C   C739      1.0  0.49560  0.32912  0.85311  1.0000
  H   H1263     1.0  0.50163  0.41037  0.85213  1.0000
  C   C740      1.0  0.72462  0.48825  0.72919  1.0000
  S   S216      1.0  0.64627  0.47928  0.92845  1.0000
  H   H1264     1.0  0.71381  0.49192  0.46870  1.0000
  H   H1265     1.0  0.48998  0.39441  0.81804  1.0000
  H   H1266     1.0  0.63486  0.49187  0.86240  1.0000
  H   H1267     1.0  0.49121  0.24735  0.24908  1.0000
  S   S217      1.0  0.48938  0.32663  0.89989  1.0000
  H   H1268     1.0  0.50548  0.24607  0.30608  1.0000
  C   C741      1.0  0.71858  0.49407  0.76469  1.0000
  H   H1269     1.0  0.49207  0.26415  0.37417  1.0000
  C   C742      1.0  0.58861  0.24971  0.66560  1.0000
  C   C743      1.0  0.60255  0.25202  0.69407  1.0000
  H   H1270     1.0  0.51399  0.24584  0.22501  1.0000
  H   H1271     1.0  0.52545  0.24564  0.12597  1.0000
  H   H1272     1.0  0.66044  0.49243  0.16564  1.0000
  C   C744      1.0  0.73793  0.45882  0.42730  1.0000
  H   H1273     1.0  0.50739  0.59348  0.37794  1.0000
  H   H1274     1.0  0.52353  0.68947  0.58892  1.0000
  H   H1275     1.0  0.51246  0.65206  0.34085  1.0000
  H   H1276     1.0  0.59965  0.51601  0.06580  1.0000
  H   H1277     1.0  0.52154  0.57699  0.85905  1.0000
  C   C745      1.0  0.49979  0.62221  0.37626  1.0000
  H   H1278     1.0  0.59742  0.54374  0.99437  1.0000
  H   H1279     1.0  0.52707  0.60869  0.90457  1.0000
  H   H1280     1.0  0.49438  0.71001  0.50359  1.0000
  C   C746      1.0  0.62198  0.53837  0.06235  1.0000
  C   C747      1.0  0.61149  0.52151  0.08130  1.0000
  Fe  Fe112     1.0  0.52933  0.57274  0.99642  1.0000
  S   S218      1.0  0.51535  0.57036  0.04945  1.0000
  S   S219      1.0  0.55491  0.57006  0.99039  1.0000
  Fe  Fe113     1.0  0.50235  0.58066  0.95102  1.0000
  C   C748      1.0  0.50151  0.72617  0.61627  1.0000
  C   C749      1.0  0.57168  0.58761  0.90241  1.0000
  Fe  Fe114     1.0  0.50938  0.59309  0.03245  1.0000
  S   S220      1.0  0.50755  0.61432  0.07077  1.0000
  H   H1281     1.0  0.53057  0.58817  0.35403  1.0000
  S   S221      1.0  0.52561  0.59735  0.98172  1.0000
  H   H1282     1.0  0.49006  0.72241  0.71384  1.0000
  H   H1283     1.0  0.55415  0.59750  0.92527  1.0000
  H   H1284     1.0  0.50842  0.63256  0.39428  1.0000
  C   C750      1.0  0.52687  0.59766  0.33910  1.0000
  C   C751      1.0  0.49918  0.61368  0.11582  1.0000
  C   C752      1.0  0.50279  0.65503  0.46545  1.0000
  H   H1285     1.0  0.70415  0.50912  0.85771  1.0000
  C   C753      1.0  0.50384  0.65216  0.50300  1.0000
  H   H1286     1.0  0.60951  0.54858  0.13159  1.0000
  H   H1287     1.0  0.63321  0.52157  0.13082  1.0000
  H   H1288     1.0  0.61803  0.54911  0.06959  1.0000
  H   H1289     1.0  0.49910  0.72398  0.55791  1.0000
  H   H1290     1.0  0.63543  0.54203  0.06865  1.0000
  H   H1291     1.0  0.52014  0.68611  0.63679  1.0000
  H   H1292     1.0  0.61827  0.53617  0.19378  1.0000
  H   H1293     1.0  0.48846  0.72503  0.62036  1.0000
  C   C754      1.0  0.53197  0.57878  0.87870  1.0000
  C   C755      1.0  0.56039  0.59803  0.89837  1.0000
  C   C756      1.0  0.57290  0.52426  0.99830  1.0000
  C   C757      1.0  0.55577  0.52143  0.99949  1.0000
  C   C758      1.0  0.55005  0.53517  0.99754  1.0000
  C   C759      1.0  0.56137  0.55209  0.99427  1.0000
  C   C760      1.0  0.57850  0.55494  0.99327  1.0000
  C   C761      1.0  0.58423  0.54120  0.99538  1.0000
  C   C762      1.0  0.48829  0.62760  0.16352  1.0000
  H   H1294     1.0  0.53684  0.53263  0.99825  1.0000
  H   H1295     1.0  0.58744  0.56790  0.99076  1.0000
  H   H1296     1.0  0.51336  0.69799  0.53814  1.0000
  H   H1297     1.0  0.59061  0.54651  0.08628  1.0000
  H   H1298     1.0  0.51076  0.64277  0.29512  1.0000
  C   C763      1.0  0.60026  0.53514  0.13090  1.0000
  C   C764      1.0  0.49248  0.59729  0.85734  1.0000
  H   H1299     1.0  0.49196  0.61679  0.30580  1.0000
  H   H1300     1.0  0.53067  0.62896  0.31308  1.0000
  H   H1301     1.0  0.52533  0.61151  0.38838  1.0000
  C   C765      1.0  0.49740  0.60034  0.14016  1.0000
  H   H1302     1.0  0.49413  0.50211  0.97318  1.0000
  H   H1303     1.0  0.50458  0.62026  0.88941  1.0000
  S   S222      1.0  0.49265  0.64346  0.57238  1.0000
  C   C766      1.0  0.51692  0.60477  0.36518  1.0000
  H   H1304     1.0  0.52544  0.70729  0.61977  1.0000
  H   H1305     1.0  0.61775  0.51228  0.07635  1.0000
  H   H1306     1.0  0.56915  0.61158  0.89553  1.0000
  C   C767      1.0  0.58616  0.53520  0.10445  1.0000
  C   C768      1.0  0.51831  0.69358  0.61334  1.0000
  C   C769      1.0  0.52358  0.63223  0.33534  1.0000
  N   N53       1.0  0.50938  0.61646  0.34798  1.0000
  S   S223      1.0  0.57935  0.50625  0.00064  1.0000
  H   H1307     1.0  0.51597  0.65573  0.51593  1.0000
  C   C770      1.0  0.59934  0.50525  0.13634  1.0000
  H   H1308     1.0  0.63937  0.53748  0.19139  1.0000
  H   H1309     1.0  0.53266  0.63787  0.35819  1.0000
  C   C771      1.0  0.51869  0.64682  0.32011  1.0000
  N   N54       1.0  0.60886  0.52292  0.12180  1.0000
  H   H1310     1.0  0.63334  0.54272  0.13088  1.0000
  C   C772      1.0  0.53850  0.61734  0.89117  1.0000
  H   H1311     1.0  0.51414  0.66080  0.45007  1.0000
  C   C773      1.0  0.49858  0.60847  0.31499  1.0000
  C   C774      1.0  0.49875  0.62631  0.83467  1.0000
  H   H1312     1.0  0.53017  0.65760  0.31199  1.0000
  H   H1313     1.0  0.55956  0.57792  0.83790  1.0000
  Fe  Fe115     1.0  0.49293  0.55545  0.01523  1.0000
  H   H1314     1.0  0.57894  0.59156  0.92840  1.0000
  H   H1315     1.0  0.57597  0.53675  0.12070  1.0000
  H   H1316     1.0  0.53269  0.60493  0.83884  1.0000
  H   H1317     1.0  0.60615  0.49656  0.13032  1.0000
  S   S224      1.0  0.50697  0.55637  0.96338  1.0000
  H   H1318     1.0  0.58032  0.52355  0.08735  1.0000
  H   H1319     1.0  0.59498  0.53272  0.15899  1.0000
  H   H1320     1.0  0.59829  0.50556  0.16664  1.0000
  C   C775      1.0  0.53291  0.56110  0.88555  1.0000
  H   H1321     1.0  0.62051  0.53642  0.03216  1.0000
  C   C776      1.0  0.62594  0.52943  0.13968  1.0000
  H   H1322     1.0  0.56469  0.57365  0.90414  1.0000
  H   H1323     1.0  0.53569  0.62837  0.88081  1.0000
  H   H1324     1.0  0.49612  0.60490  0.42308  1.0000
  C   C777      1.0  0.50354  0.71762  0.57993  1.0000
  H   H1325     1.0  0.50101  0.58986  0.13162  1.0000
  S   S225      1.0  0.62730  0.50403  0.00685  1.0000
  H   H1326     1.0  0.50301  0.73325  0.29161  1.0000
  C   C778      1.0  0.55511  0.58852  0.83328  1.0000
  H   H1327     1.0  0.52732  0.58229  0.90468  1.0000
  H   H1328     1.0  0.54862  0.62261  0.91181  1.0000
  H   H1329     1.0  0.54103  0.55766  0.86639  1.0000
  C   C779      1.0  0.49914  0.61509  0.86308  1.0000
  H   H1330     1.0  0.52033  0.55106  0.88106  1.0000
  H   H1331     1.0  0.53688  0.56021  0.91421  1.0000
  H   H1332     1.0  0.58088  0.59036  0.87997  1.0000
  H   H1333     1.0  0.62322  0.51692  0.19332  1.0000
  H   H1334     1.0  0.56645  0.59957  0.82521  1.0000
  H   H1335     1.0  0.49845  0.72421  0.37497  1.0000
  H   H1336     1.0  0.51935  0.59089  0.31496  1.0000
  H   H1337     1.0  0.57314  0.50277  0.13339  1.0000
  H   H1338     1.0  0.54682  0.50845  0.00167  1.0000
  C   C780      1.0  0.54340  0.60845  0.85846  1.0000
  N   N55       1.0  0.54773  0.59305  0.86736  1.0000
  H   H1339     1.0  0.51713  0.72141  0.57518  1.0000
  H   H1340     1.0  0.55401  0.61849  0.84473  1.0000
  H   H1341     1.0  0.55001  0.57951  0.77675  1.0000
  C   C781      1.0  0.62642  0.52996  0.18199  1.0000
  H   H1342     1.0  0.53198  0.57187  0.80489  1.0000
  H   H1343     1.0  0.54007  0.59387  0.78933  1.0000
  H   H1344     1.0  0.53854  0.60784  0.33000  1.0000
  H   H1345     1.0  0.49025  0.59049  0.19456  1.0000
  C   C782      1.0  0.54343  0.58318  0.79946  1.0000
  H   H1346     1.0  0.50615  0.60807  0.29060  1.0000
  C   C783      1.0  0.49457  0.62727  0.12786  1.0000
  C   C784      1.0  0.49952  0.68962  0.60862  1.0000
  H   H1347     1.0  0.49024  0.72478  0.41940  1.0000
  C   C785      1.0  0.49962  0.69232  0.54179  1.0000
  S   S226      1.0  0.49346  0.58233  0.89141  1.0000
  H   H1348     1.0  0.49167  0.62800  0.36267  1.0000
  H   H1349     1.0  0.50414  0.64001  0.83948  1.0000
  H   H1350     1.0  0.49356  0.67547  0.60508  1.0000
  H   H1351     1.0  0.72766  0.50722  0.77107  1.0000
  H   H1352     1.0  0.58013  0.49514  0.09231  1.0000
  C   C786      1.0  0.49132  0.60078  0.17599  1.0000
  H   H1353     1.0  0.49670  0.67831  0.54211  1.0000
  H   H1354     1.0  0.50910  0.74011  0.61529  1.0000
  N   N56       1.0  0.49472  0.69843  0.57732  1.0000
  C   C787      1.0  0.49131  0.62004  0.80027  1.0000
  H   H1355     1.0  0.72508  0.51083  0.85048  1.0000
  H   H1356     1.0  0.49708  0.69188  0.48245  1.0000
  H   H1357     1.0  0.49463  0.69236  0.63516  1.0000
  H   H1358     1.0  0.72734  0.49860  0.70870  1.0000
  C   C788      1.0  0.48996  0.72889  0.28417  1.0000
  H   H1359     1.0  0.71321  0.51582  0.81412  1.0000
  S   S227      1.0  0.49194  0.63502  0.76486  1.0000
  C   C789      1.0  0.49174  0.69615  0.50659  1.0000
  C   C790      1.0  0.71269  0.50710  0.83708  1.0000
  H   H1360     1.0  0.50594  0.72112  0.64040  1.0000
  H   H1361     1.0  0.49595  0.63772  0.10948  1.0000
  C   C791      1.0  0.58126  0.49629  0.12254  1.0000
  C   C792      1.0  0.48950  0.64514  0.52424  1.0000
  C   C793      1.0  0.48860  0.60860  0.40256  1.0000
  H   H1362     1.0  0.48951  0.70464  0.39912  1.0000
  H   H1363     1.0  0.70665  0.49555  0.75713  1.0000
  H   H1364     1.0  0.50986  0.83198  0.56365  1.0000
  Fe  Fe116     1.0  0.52166  0.88233  0.00727  1.0000
  S   S228      1.0  0.52650  0.91065  0.01236  1.0000
  S   S229      1.0  0.51376  0.85983  0.04805  1.0000
  Fe  Fe117     1.0  0.51742  0.88219  0.92132  1.0000
  S   S230      1.0  0.52180  0.91052  0.92052  1.0000
  S   S231      1.0  0.50515  0.86023  0.87902  1.0000
  Fe  Fe118     1.0  0.54246  0.91435  0.96190  1.0000
  S   S232      1.0  0.56782  0.93690  0.95627  1.0000
  C   C794      1.0  0.54202  0.82837  0.64378  1.0000
  S   S233      1.0  0.53927  0.88604  0.95948  1.0000
  Fe  Fe119     1.0  0.50601  0.90579  0.97076  1.0000
  C   C795      1.0  0.52025  0.86338  0.15992  1.0000
  C   C796      1.0  0.52137  0.86772  0.12242  1.0000
  C   C797      1.0  0.51240  0.85555  0.09601  1.0000
  H   H1365     1.0  0.52764  0.87277  0.17991  1.0000
  H   H1366     1.0  0.52951  0.88033  0.11389  1.0000
  H   H1367     1.0  0.56202  0.85110  0.55400  1.0000
  C   C798      1.0  0.50522  0.85376  0.83211  1.0000
  C   C799      1.0  0.51765  0.86287  0.80752  1.0000
  C   C800      1.0  0.51725  0.85694  0.77093  1.0000
  C   C801      1.0  0.50197  0.83917  0.10784  1.0000
  H   H1368     1.0  0.52763  0.87444  0.81678  1.0000
  H   H1369     1.0  0.52701  0.86410  0.75240  1.0000
  C   C802      1.0  0.51156  0.79459  0.84889  1.0000
  H   H1370     1.0  0.54624  0.87061  0.57627  1.0000
  C   C803      1.0  0.59499  0.96667  0.94761  1.0000
  C   C804      1.0  0.57801  0.95990  0.95615  1.0000
  C   C805      1.0  0.57020  0.97153  0.96432  1.0000
  C   C806      1.0  0.53519  0.82891  0.60478  1.0000
  H   H1371     1.0  0.52115  0.79189  0.83308  1.0000
  H   H1372     1.0  0.60129  0.95799  0.94146  1.0000
  H   H1373     1.0  0.55726  0.96653  0.97191  1.0000
  C   C807      1.0  0.49667  0.79710  0.46968  1.0000
  H   H1374     1.0  0.54387  0.82650  0.58523  1.0000
  C   C808      1.0  0.51458  0.86209  0.61923  1.0000
  H   H1375     1.0  0.54705  0.79263  0.17550  1.0000
  H   H1376     1.0  0.51506  0.78846  0.23710  1.0000
  C   C809      1.0  0.50042  0.83503  0.14543  1.0000
  H   H1377     1.0  0.50436  0.85809  0.59851  1.0000
  H   H1378     1.0  0.53882  0.80554  0.11199  1.0000
  H   H1379     1.0  0.51672  0.80934  0.22786  1.0000
  S   S234      1.0  0.50003  0.87762  0.96903  1.0000
  H   H1380     1.0  0.51754  0.80990  0.73927  1.0000
  C   C810      1.0  0.60404  0.98446  0.94711  1.0000
  S   S235      1.0  0.50181  0.80986  0.30278  1.0000
  C   C811      1.0  0.50979  0.84703  0.17175  1.0000
  H   H1381     1.0  0.54068  0.77023  0.21391  1.0000
  H   H1382     1.0  0.52834  0.85113  0.65225  1.0000
  H   H1383     1.0  0.54749  0.79936  0.23931  1.0000
  H   H1384     1.0  0.52819  0.82412  0.17514  1.0000
  C   C812      1.0  0.54806  0.86072  0.59398  1.0000
  C   C813      1.0  0.50694  0.79054  0.16578  1.0000
  C   C814      1.0  0.49752  0.75266  0.82569  1.0000
  H   H1385     1.0  0.49498  0.82962  0.08772  1.0000
  C   C815      1.0  0.53366  0.81462  0.16620  1.0000
  Fe  Fe120     1.0  0.49227  0.82025  0.25436  1.0000
  H   H1386     1.0  0.49674  0.79858  0.41040  1.0000
  C   C816      1.0  0.49235  0.83871  0.81932  1.0000
  C   C817      1.0  0.49167  0.80228  0.50290  1.0000
  H   H1387     1.0  0.53458  0.96521  0.92989  1.0000
  S   S236      1.0  0.49814  0.79617  0.54505  1.0000
  H   H1388     1.0  0.50063  0.79966  0.17165  1.0000
  H   H1389     1.0  0.51054  0.83578  0.63075  1.0000
  N   N57       1.0  0.52422  0.79722  0.18238  1.0000
  C   C818      1.0  0.52140  0.84780  0.62571  1.0000
  C   C819      1.0  0.50975  0.96386  0.94353  1.0000
  H   H1390     1.0  0.51840  0.98957  0.99939  1.0000
  C   C820      1.0  0.49273  0.80261  0.43570  1.0000
  H   H1391     1.0  0.51129  0.97099  0.05255  1.0000
  H   H1392     1.0  0.51891  0.76647  0.21632  1.0000
  H   H1393     1.0  0.52448  0.87428  0.61111  1.0000
  H   H1394     1.0  0.57390  0.87079  0.57663  1.0000
  H   H1395     1.0  0.51165  0.78963  0.87696  1.0000
  H   H1396     1.0  0.53197  0.82555  0.66441  1.0000
  C   C821      1.0  0.56384  0.85806  0.58049  1.0000
  N   N58       1.0  0.53218  0.84501  0.59583  1.0000
  H   H1397     1.0  0.53328  0.82588  0.53008  1.0000
  H   H1398     1.0  0.49678  0.75748  0.76793  1.0000
  C   C822      1.0  0.52952  0.76931  0.19749  1.0000
  H   H1399     1.0  0.54129  0.84845  0.51701  1.0000
  C   C823      1.0  0.53334  0.78545  0.17352  1.0000
  H   H1400     1.0  0.54397  0.82814  0.11614  1.0000
  H   H1401     1.0  0.52668  0.75779  0.17948  1.0000
  H   H1402     1.0  0.50062  0.98551  0.90852  1.0000
  C   C824      1.0  0.52241  0.84223  0.56034  1.0000
  H   H1403     1.0  0.52009  0.85391  0.55266  1.0000
  H   H1404     1.0  0.50027  0.75921  0.85278  1.0000
  S   S237      1.0  0.50982  0.84194  0.21919  1.0000
  H   H1405     1.0  0.54676  0.81984  0.17635  1.0000
  S   S238      1.0  0.50473  0.83500  0.71167  1.0000
  N   N59       1.0  0.49983  0.97337  0.96076  1.0000
  C   C825      1.0  0.52304  0.80013  0.22298  1.0000
  S   S239      1.0  0.49882  0.79440  0.65223  1.0000
  C   C826      1.0  0.53975  0.80710  0.24419  1.0000
  C   C827      1.0  0.51488  0.80313  0.76582  1.0000
  H   H1406     1.0  0.52342  0.81747  0.60159  1.0000
  H   H1407     1.0  0.55222  0.84053  0.65171  1.0000
  H   H1408     1.0  0.55150  0.86710  0.62139  1.0000
  C   C828      1.0  0.50037  0.76531  0.79372  1.0000
  C   C829      1.0  0.50435  0.84194  0.75815  1.0000
  H   H1409     1.0  0.54693  0.82072  0.23773  1.0000
  S   S240      1.0  0.49448  0.76300  0.28526  1.0000
  H   H1410     1.0  0.53095  0.78097  0.14446  1.0000
  H   H1411     1.0  0.52270  0.81459  0.11135  1.0000
  H   H1412     1.0  0.51399  0.77198  0.79130  1.0000
  H   H1413     1.0  0.56854  0.85126  0.60099  1.0000
  H   H1414     1.0  0.50741  0.78957  0.13546  1.0000
  C   C830      1.0  0.49687  0.78993  0.76458  1.0000
  C   C831      1.0  0.50582  0.97917  0.99934  1.0000
  H   H1415     1.0  0.51644  0.81316  0.78709  1.0000
  H   H1416     1.0  0.50909  0.86454  0.64519  1.0000
  H   H1417     1.0  0.49774  0.98509  0.01287  1.0000
  H   H1418     1.0  0.61714  0.98912  0.94070  1.0000
  H   H1419     1.0  0.53712  0.80666  0.27404  1.0000
  C   C832      1.0  0.49181  0.83294  0.78260  1.0000
  C   C833      1.0  0.57931  0.98962  0.96334  1.0000
  H   H1420     1.0  0.52437  0.79735  0.76911  1.0000
  C   C834      1.0  0.53470  0.81544  0.12398  1.0000
  H   H1421     1.0  0.51563  0.80876  0.85179  1.0000
  C   C835      1.0  0.52879  0.97354  0.94330  1.0000
  H   H1422     1.0  0.49335  0.77140  0.20750  1.0000
  H   H1423     1.0  0.51513  0.95893  0.01571  1.0000
  H   H1424     1.0  0.54685  0.81785  0.64520  1.0000
  C   C836      1.0  0.53030  0.83749  0.52627  1.0000
  H   H1425     1.0  0.50373  0.78884  0.47020  1.0000
  H   H1426     1.0  0.49221  0.82247  0.15393  1.0000
  H   H1427     1.0  0.49927  0.76243  0.16688  1.0000
  C   C837      1.0  0.50653  0.96507  0.02537  1.0000
  H   H1428     1.0  0.50713  0.95131  0.95690  1.0000
  H   H1429     1.0  0.49406  0.95506  0.02994  1.0000
  H   H1430     1.0  0.53248  0.98548  0.92727  1.0000
  C   C838      1.0  0.49514  0.77259  0.17754  1.0000
  H   H1431     1.0  0.50598  0.96054  0.91439  1.0000
  C   C839      1.0  0.50206  0.98900  0.93822  1.0000
  H   H1432     1.0  0.53415  0.97650  0.97133  1.0000
  H   H1433     1.0  0.52112  0.83441  0.50331  1.0000
  H   H1434     1.0  0.49525  0.78271  0.73813  1.0000
  C   C840      1.0  0.49372  0.78703  0.83238  1.0000
  N   N60       1.0  0.49140  0.77764  0.79606  1.0000
  H   H1435     1.0  0.49023  0.89493  0.10462  1.0000
  H   H1436     1.0  0.48925  0.79786  0.83025  1.0000
  H   H1437     1.0  0.48902  0.79768  0.76204  1.0000
  H   H1438     1.0  0.50609  0.74565  0.82251  1.0000
  H   H1439     1.0  0.79041  0.21209  0.32849  1.0000
  C   C841      1.0  0.75422  0.23743  0.24161  1.0000
  H   H1440     1.0  0.76656  0.23746  0.62838  1.0000
  H   H1441     1.0  0.80977  0.22326  0.28652  1.0000
  H   H1442     1.0  0.80337  0.23959  0.26685  1.0000
  C   C842      1.0  0.76976  0.24214  0.72896  1.0000
  H   H1443     1.0  0.81221  0.23632  0.41428  1.0000
  H   H1444     1.0  0.80499  0.21815  0.36430  1.0000
  H   H1445     1.0  0.75462  0.21195  0.23955  1.0000
  C   C843      1.0  0.79360  0.21998  0.35412  1.0000
  C   C844      1.0  0.74696  0.21946  0.24359  1.0000
  H   H1446     1.0  0.77902  0.22985  0.30112  1.0000
  H   H1447     1.0  0.78217  0.20088  0.39563  1.0000
  C   C845      1.0  0.75312  0.23224  0.62970  1.0000
  H   H1448     1.0  0.76196  0.22937  0.35990  1.0000
  H   H1449     1.0  0.77760  0.21933  0.40253  1.0000
  H   H1450     1.0  0.82484  0.24322  0.27253  1.0000
  H   H1451     1.0  0.75155  0.20651  0.64099  1.0000
  H   H1452     1.0  0.75821  0.24012  0.32115  1.0000
  H   H1453     1.0  0.77261  0.23492  0.75171  1.0000
  H   H1454     1.0  0.76736  0.20464  0.36555  1.0000
  C   C846      1.0  0.77930  0.21093  0.38075  1.0000
  H   H1455     1.0  0.78682  0.23587  0.69332  1.0000
  H   H1456     1.0  0.75638  0.24180  0.79298  1.0000
  C   C847      1.0  0.74457  0.21467  0.63658  1.0000
  H   H1457     1.0  0.75924  0.23248  0.71347  1.0000
  N   N61       1.0  0.79710  0.23852  0.34567  1.0000
  H   H1458     1.0  0.75168  0.22286  0.53954  1.0000
  C   C848      1.0  0.74424  0.24295  0.62429  1.0000
  C   C849      1.0  0.81243  0.23719  0.28542  1.0000
  C   C850      1.0  0.76773  0.24050  0.34206  1.0000
  C   C851      1.0  0.78337  0.24027  0.32229  1.0000
  C   C852      1.0  0.73832  0.21814  0.53138  1.0000
  H   H1459     1.0  0.82343  0.24334  0.33881  1.0000
  H   H1460     1.0  0.73948  0.19322  0.52177  1.0000
  Fe  Fe121     1.0  0.80488  0.45355  0.71441  1.0000
  S   S241      1.0  0.82979  0.47051  0.69171  1.0000
  S   S242      1.0  0.78375  0.46355  0.70862  1.0000
  Fe  Fe122     1.0  0.81713  0.42418  0.72658  1.0000
  S   S243      1.0  0.84217  0.43887  0.70356  1.0000
  S   S244      1.0  0.81093  0.39682  0.74390  1.0000
  Fe  Fe123     1.0  0.84107  0.46074  0.73895  1.0000
  S   S245      1.0  0.86475  0.47421  0.77449  1.0000
  Fe  Fe124     1.0  0.82854  0.44709  0.65900  1.0000
  S   S246      1.0  0.82930  0.44058  0.59762  1.0000
  S   S247      1.0  0.81618  0.44547  0.76340  1.0000
  S   S248      1.0  0.80354  0.43070  0.68081  1.0000
  Fe  Fe125     1.0  0.81504  0.29465  0.58051  1.0000
  S   S249      1.0  0.79221  0.30073  0.57373  1.0000
  S   S250      1.0  0.82915  0.29111  0.53033  1.0000
  Fe  Fe126     1.0  0.81479  0.29751  0.66577  1.0000
  S   S251      1.0  0.79149  0.30361  0.66311  1.0000
  S   S252      1.0  0.82283  0.29698  0.72611  1.0000
  Fe  Fe127     1.0  0.78197  0.28254  0.62035  1.0000
  Fe  Fe128     1.0  0.80387  0.32091  0.61699  1.0000
  S   S253      1.0  0.80642  0.34818  0.60658  1.0000
  S   S254      1.0  0.80438  0.27519  0.62528  1.0000
  S   S255      1.0  0.82758  0.31606  0.62147  1.0000
  Fe  Fe129     1.0  0.79316  0.43797  0.33695  1.0000
  S   S256      1.0  0.81222  0.46487  0.33834  1.0000
  S   S257      1.0  0.76494  0.42702  0.34466  1.0000
  Fe  Fe130     1.0  0.82024  0.42288  0.34163  1.0000
  S   S258      1.0  0.84123  0.44867  0.34456  1.0000
  S   S259      1.0  0.82477  0.39838  0.35002  1.0000
  Fe  Fe131     1.0  0.82471  0.45586  0.38379  1.0000
  S   S260      1.0  0.83293  0.47192  0.43664  1.0000
  Fe  Fe132     1.0  0.82733  0.45546  0.29857  1.0000
  S   S261      1.0  0.84004  0.47218  0.24893  1.0000
  S   S262      1.0  0.80504  0.42963  0.38410  1.0000
  S   S263      1.0  0.80702  0.42906  0.29399  1.0000
  Fe  Fe133     1.0  0.79690  0.31260  0.25402  1.0000
  S   S264      1.0  0.82404  0.32026  0.26661  1.0000
  S   S265      1.0  0.78663  0.33357  0.25016  1.0000
  Fe  Fe134     1.0  0.79178  0.27538  0.24179  1.0000
  S   S266      1.0  0.81908  0.28093  0.25209  1.0000
  Fe  Fe135     1.0  0.81617  0.29647  0.30053  1.0000
  S   S267      1.0  0.82879  0.29514  0.35511  1.0000
  Fe  Fe136     1.0  0.82446  0.30432  0.21668  1.0000
  S   S268      1.0  0.84683  0.31738  0.17834  1.0000
  S   S269      1.0  0.78879  0.28993  0.29169  1.0000
  S   S270      1.0  0.79735  0.29753  0.20294  1.0000
  Fe  Fe137     1.0  0.89398  0.34448  0.88191  1.0000
  S   S271      1.0  0.90432  0.33713  0.93381  1.0000
  S   S272      1.0  0.88919  0.33157  0.82464  1.0000
  Fe  Fe138     1.0  0.89519  0.37764  0.91686  1.0000
  S   S273      1.0  0.90507  0.37301  0.97109  1.0000
  S   S274      1.0  0.88956  0.40101  0.90440  1.0000
  Fe  Fe139     1.0  0.92271  0.36488  0.93658  1.0000
  S   S275      1.0  0.95058  0.37476  0.95516  1.0000
  Fe  Fe140     1.0  0.88623  0.34607  0.96511  1.0000
  S   S276      1.0  0.86599  0.33216  0.00777  1.0000
  S   S277      1.0  0.91362  0.37126  0.88301  1.0000
  S   S278      1.0  0.87513  0.35163  0.91265  1.0000
  Fe  Fe141     1.0  0.92773  0.47826  0.01198  1.0000
  S   S279      1.0  0.94053  0.46019  0.99811  1.0000
  S   S280      1.0  0.90015  0.47075  0.01851  1.0000
  C   C853      1.0  0.97137  0.38693  0.93966  1.0000
  H   H1461     1.0  0.96495  0.38896  0.88336  1.0000
  C   C854      1.0  0.90555  0.41854  0.92417  1.0000
  C   C855      1.0  0.90372  0.43431  0.92739  1.0000
  C   C856      1.0  0.91500  0.44753  0.94869  1.0000
  C   C857      1.0  0.92822  0.44499  0.96645  1.0000
  C   C858      1.0  0.93074  0.42964  0.96119  1.0000
  C   C859      1.0  0.91946  0.41645  0.93979  1.0000
  H   H1462     1.0  0.89332  0.43610  0.91446  1.0000
  H   H1463     1.0  0.91324  0.45954  0.95198  1.0000
  H   H1464     1.0  0.94098  0.42765  0.97489  1.0000
  H   H1465     1.0  0.92134  0.40454  0.93616  1.0000
  C   C860      1.0  0.85181  0.32102  0.13058  1.0000
  C   C861      1.0  0.86832  0.33093  0.12070  1.0000
  C   C862      1.0  0.87290  0.33443  0.08356  1.0000
  C   C863      1.0  0.86101  0.32819  0.05544  1.0000
  C   C864      1.0  0.84446  0.31842  0.06534  1.0000
  C   C865      1.0  0.83988  0.31484  0.10249  1.0000
  H   H1466     1.0  0.87772  0.33574  0.14198  1.0000
  H   H1467     1.0  0.88572  0.34166  0.07664  1.0000
  H   H1468     1.0  0.83510  0.31342  0.04402  1.0000
  H   H1469     1.0  0.82713  0.30721  0.10932  1.0000
  C   C866      1.0  0.85466  0.47220  0.21382  1.0000
  H   H1470     1.0  0.74405  0.36285  0.28684  1.0000
  H   H1471     1.0  0.74857  0.39204  0.35686  1.0000
  H   H1472     1.0  0.80325  0.46846  0.58312  1.0000
  H   H1473     1.0  0.83302  0.32758  0.46611  1.0000
  C   C867      1.0  0.81521  0.38088  0.32010  1.0000
  C   C868      1.0  0.80629  0.38232  0.28904  1.0000
  C   C869      1.0  0.79752  0.36772  0.26763  1.0000
  C   C870      1.0  0.79799  0.35175  0.27670  1.0000
  C   C871      1.0  0.80734  0.35042  0.30702  1.0000
  C   C872      1.0  0.81589  0.36495  0.32872  1.0000
  H   H1474     1.0  0.80582  0.39457  0.28204  1.0000
  H   H1475     1.0  0.79035  0.36880  0.24408  1.0000
  H   H1476     1.0  0.80768  0.33812  0.31432  1.0000
  H   H1477     1.0  0.82287  0.36381  0.35255  1.0000
  C   C873      1.0  0.82748  0.29239  0.48177  1.0000
  C   C874      1.0  0.81332  0.29267  0.46291  1.0000
  C   C875      1.0  0.81327  0.29365  0.42394  1.0000
  C   C876      1.0  0.82738  0.29433  0.40388  1.0000
  C   C877      1.0  0.84129  0.29399  0.42305  1.0000
  C   C878      1.0  0.84132  0.29297  0.46134  1.0000
  H   H1478     1.0  0.80244  0.29200  0.47828  1.0000
  H   H1479     1.0  0.80238  0.29375  0.40948  1.0000
  H   H1480     1.0  0.85222  0.29442  0.40811  1.0000
  C   C879      1.0  0.76416  0.40592  0.61209  1.0000
  C   C880      1.0  0.84151  0.30736  0.75243  1.0000
  C   C881      1.0  0.85741  0.31219  0.73728  1.0000
  C   C882      1.0  0.87179  0.31969  0.75967  1.0000
  C   C883      1.0  0.87055  0.32265  0.79747  1.0000
  C   C884      1.0  0.85464  0.31797  0.81254  1.0000
  C   C885      1.0  0.84028  0.31019  0.79029  1.0000
  H   H1481     1.0  0.85867  0.30985  0.70843  1.0000
  H   H1482     1.0  0.88398  0.32306  0.74765  1.0000
  H   H1483     1.0  0.85340  0.31995  0.84155  1.0000
  H   H1484     1.0  0.82811  0.30634  0.80259  1.0000
  C   C886      1.0  0.82981  0.44975  0.55346  1.0000
  C   C887      1.0  0.83336  0.46724  0.54839  1.0000
  C   C888      1.0  0.83412  0.47381  0.51259  1.0000
  C   C889      1.0  0.83117  0.46299  0.48141  1.0000
  C   C890      1.0  0.82728  0.44545  0.48659  1.0000
  C   C891      1.0  0.82671  0.43893  0.52229  1.0000
  H   H1485     1.0  0.83590  0.47577  0.57197  1.0000
  H   H1486     1.0  0.83720  0.48740  0.50905  1.0000
  H   H1487     1.0  0.82511  0.43695  0.46303  1.0000
  H   H1488     1.0  0.82405  0.42541  0.52577  1.0000
  C   C892      1.0  0.86949  0.47968  0.82205  1.0000
  C   C893      1.0  0.85798  0.48190  0.84648  1.0000
  H   H1489     1.0  0.85270  0.48464  0.32420  1.0000
  H   H1490     1.0  0.78319  0.37920  0.33812  1.0000
  H   H1491     1.0  0.73962  0.34473  0.33889  1.0000
  H   H1492     1.0  0.77699  0.35130  0.34959  1.0000
  C   C894      1.0  0.80896  0.38324  0.70549  1.0000
  C   C895      1.0  0.80235  0.36539  0.70950  1.0000
  C   C896      1.0  0.80164  0.35447  0.67942  1.0000
  C   C897      1.0  0.80718  0.36139  0.64500  1.0000
  C   C898      1.0  0.81342  0.37922  0.64087  1.0000
  C   C899      1.0  0.81441  0.39011  0.67102  1.0000
  H   H1493     1.0  0.79792  0.36001  0.73598  1.0000
  H   H1494     1.0  0.79663  0.34074  0.68277  1.0000
  H   H1495     1.0  0.81767  0.38469  0.61434  1.0000
  H   H1496     1.0  0.81953  0.40385  0.66750  1.0000
  H   H1497     1.0  0.74059  0.46504  0.40016  1.0000
  C   C900      1.0  0.75325  0.45170  0.31946  1.0000
  H   H1498     1.0  0.81701  0.44072  0.84032  1.0000
  H   H1499     1.0  0.76594  0.45917  0.31192  1.0000
  C   C901      1.0  0.76421  0.34443  0.33877  1.0000
  C   C902      1.0  0.77703  0.38181  0.39430  1.0000
  C   C903      1.0  0.74377  0.47683  0.79700  1.0000
  N   N62       1.0  0.82841  0.36192  0.16823  1.0000
  C   C904      1.0  0.83628  0.38123  0.16886  1.0000
  C   C905      1.0  0.83662  0.35513  0.13884  1.0000
  C   C906      1.0  0.83077  0.35466  0.20446  1.0000
  C   C907      1.0  0.80998  0.35666  0.16104  1.0000
  C   C908      1.0  0.83103  0.39035  0.20071  1.0000
  C   C909      1.0  0.83358  0.35928  0.09903  1.0000
  C   C910      1.0  0.84893  0.36009  0.21827  1.0000
  H   H1500     1.0  0.85011  0.38567  0.16935  1.0000
  H   H1501     1.0  0.83323  0.38654  0.14325  1.0000
  H   H1502     1.0  0.83281  0.34101  0.14057  1.0000
  H   H1503     1.0  0.85037  0.36017  0.14288  1.0000
  H   H1504     1.0  0.82353  0.35790  0.22638  1.0000
  H   H1505     1.0  0.82569  0.34043  0.20309  1.0000
  H   H1506     1.0  0.80382  0.36004  0.18498  1.0000
  H   H1507     1.0  0.83468  0.38708  0.22795  1.0000
  H   H1508     1.0  0.83745  0.40444  0.19786  1.0000
  H   H1509     1.0  0.81747  0.38765  0.20020  1.0000
  H   H1510     1.0  0.84017  0.35343  0.08033  1.0000
  H   H1511     1.0  0.83867  0.37325  0.09408  1.0000
  H   H1512     1.0  0.85523  0.37414  0.22163  1.0000
  H   H1513     1.0  0.85636  0.35499  0.20028  1.0000
  H   H1514     1.0  0.84891  0.35454  0.24576  1.0000
  H   H1515     1.0  0.80708  0.32893  0.15924  1.0000
  H   H1516     1.0  0.84916  0.39748  0.75874  1.0000
  H   H1517     1.0  0.83635  0.43977  0.93185  1.0000
  H   H1518     1.0  0.77552  0.28110  0.77107  1.0000
  H   H1519     1.0  0.85227  0.29266  0.47529  1.0000
  H   H1520     1.0  0.77052  0.25260  0.35797  1.0000
  H   H1521     1.0  0.74738  0.41861  0.57065  1.0000
  H   H1522     1.0  0.76184  0.41500  0.52420  1.0000
  H   H1523     1.0  0.86988  0.43968  0.90486  1.0000
  H   H1524     1.0  0.86702  0.36789  0.66049  1.0000
  C   C911      1.0  0.74042  0.45778  0.31191  1.0000
  C   C912      1.0  0.75947  0.38994  0.28226  1.0000
  C   C913      1.0  0.87386  0.46087  0.18422  1.0000
  H   H1525     1.0  0.98239  0.30854  0.84183  1.0000
  C   C914      1.0  0.77804  0.45485  0.60476  1.0000
  H   H1526     1.0  0.81482  0.38473  0.46555  1.0000
  H   H1527     1.0  0.83128  0.33763  0.76806  1.0000
  H   H1528     1.0  0.77581  0.36883  0.40316  1.0000
  N   N63       1.0  0.82504  0.34851  0.47977  1.0000
  C   C915      1.0  0.83381  0.35377  0.51643  1.0000
  H   H1529     1.0  0.94707  0.33811  0.95361  1.0000
  C   C916      1.0  0.80781  0.33555  0.48684  1.0000
  C   C917      1.0  0.83747  0.33966  0.53733  1.0000
  H   H1530     1.0  0.93306  0.31521  0.85887  1.0000
  H   H1531     1.0  0.84595  0.36467  0.51328  1.0000
  H   H1532     1.0  0.82640  0.35848  0.53554  1.0000
  H   H1533     1.0  0.82940  0.33651  0.71848  1.0000
  H   H1534     1.0  0.80853  0.32339  0.49689  1.0000
  H   H1535     1.0  0.80177  0.33971  0.51003  1.0000
  H   H1536     1.0  0.82595  0.32864  0.54377  1.0000
  H   H1537     1.0  0.84621  0.33505  0.52251  1.0000
  H   H1538     1.0  0.84349  0.34506  0.56400  1.0000
  C   C918      1.0  0.85780  0.44051  0.89717  1.0000
  C   C919      1.0  0.77948  0.27094  0.75935  1.0000
  H   H1539     1.0  0.80267  0.45478  0.62149  1.0000
  N   N64       1.0  0.96583  0.33519  0.88904  1.0000
  H   H1540     1.0  0.75041  0.25957  0.78996  1.0000
  C   C920      1.0  0.98139  0.35118  0.89080  1.0000
  H   H1541     1.0  0.76982  0.39867  0.62941  1.0000
  C   C921      1.0  0.96731  0.32271  0.86054  1.0000
  H   H1542     1.0  0.86248  0.48851  0.38824  1.0000
  H   H1543     1.0  0.78859  0.42571  0.60888  1.0000
  C   C922      1.0  0.79978  0.24962  0.37970  1.0000
  H   H1544     1.0  0.74254  0.37463  0.38678  1.0000
  H   H1545     1.0  0.74773  0.25288  0.69718  1.0000
  H   H1546     1.0  0.78841  0.24631  0.39643  1.0000
  H   H1547     1.0  0.76451  0.34305  0.30855  1.0000
  H   H1548     1.0  0.97773  0.36656  0.84526  1.0000
  C   C923      1.0  0.75315  0.43192  0.58150  1.0000
  C   C924      1.0  0.78479  0.24752  0.70299  1.0000
  H   H1549     1.0  0.77308  0.39737  0.28031  1.0000
  H   H1550     1.0  0.88157  0.48627  0.32973  1.0000
  H   H1551     1.0  0.77387  0.46369  0.58845  1.0000
  H   H1552     1.0  0.77528  0.42913  0.64252  1.0000
  C   C925      1.0  0.77360  0.38243  0.35296  1.0000
  C   C926      1.0  0.82409  0.43704  0.86180  1.0000
  C   C927      1.0  0.95913  0.33657  0.95784  1.0000
  C   C928      1.0  0.82485  0.36459  0.46206  1.0000
  C   C929      1.0  0.88551  0.48208  0.83561  1.0000
  H   H1553     1.0  0.95078  0.35065  0.89700  1.0000
  H   H1554     1.0  0.98416  0.43285  0.97905  1.0000
  H   H1555     1.0  0.74687  0.42819  0.64068  1.0000
  C   C930      1.0  0.75202  0.24921  0.77306  1.0000
  H   H1556     1.0  0.77816  0.44792  0.53399  1.0000
  H   H1557     1.0  0.84521  0.35843  0.67116  1.0000
  C   C931      1.0  0.86126  0.42276  0.84652  1.0000
  C   C932      1.0  0.83824  0.43292  0.84386  1.0000
  C   C933      1.0  0.87488  0.43818  0.82864  1.0000
  H   H1558     1.0  0.85612  0.34489  0.66159  1.0000
  H   H1559     1.0  0.86782  0.41616  0.86339  1.0000
  H   H1560     1.0  0.85508  0.41387  0.82354  1.0000
  H   H1561     1.0  0.84613  0.44486  0.82998  1.0000
  H   H1562     1.0  0.83273  0.42351  0.82118  1.0000
  H   H1563     1.0  0.88369  0.43354  0.81418  1.0000
  H   H1564     1.0  0.86965  0.44428  0.80772  1.0000
  H   H1565     1.0  0.88237  0.44790  0.84900  1.0000
  H   H1566     1.0  0.82095  0.38413  0.88038  1.0000
  H   H1567     1.0  0.82029  0.39757  0.84348  1.0000
  H   H1568     1.0  0.79540  0.31843  0.44080  1.0000
  C   C934      1.0  0.88986  0.48614  0.87298  1.0000
  H   H1569     1.0  0.81351  0.25678  0.43124  1.0000
  H   H1570     1.0  0.75002  0.45905  0.43825  1.0000
  H   H1571     1.0  0.82860  0.41235  0.90587  1.0000
  H   H1572     1.0  0.78865  0.33274  0.16898  1.0000
  H   H1573     1.0  0.75368  0.48646  0.78088  1.0000
  C   C935      1.0  0.74308  0.43319  0.61558  1.0000
  H   H1574     1.0  0.79997  0.27770  0.79844  1.0000
  C   C936      1.0  0.75193  0.35290  0.35070  1.0000
  H   H1575     1.0  0.82024  0.35372  0.09109  1.0000
  H   H1576     1.0  0.84621  0.40643  0.90720  1.0000
  C   C937      1.0  0.95130  0.34012  0.87889  1.0000
  H   H1577     1.0  0.82627  0.25600  0.39382  1.0000
  H   H1578     1.0  0.98235  0.38720  0.99297  1.0000
  H   H1579     1.0  0.82082  0.37941  0.50907  1.0000
  H   H1580     1.0  0.98691  0.46894  0.96482  1.0000
  C   C938      1.0  0.81495  0.37384  0.48242  1.0000
  H   H1581     1.0  0.78137  0.26143  0.81464  1.0000
  C   C939      1.0  0.97319  0.43741  0.92945  1.0000
  C   C940      1.0  0.78915  0.26607  0.79004  1.0000
  C   C941      1.0  0.96335  0.32671  0.92594  1.0000
  C   C942      1.0  0.75594  0.37209  0.29864  1.0000
  H   H1582     1.0  0.79623  0.33533  0.12352  1.0000
  C   C943      1.0  0.98672  0.36082  0.85440  1.0000
  H   H1583     1.0  0.83932  0.33242  0.40266  1.0000
  H   H1584     1.0  0.96741  0.44600  0.94145  1.0000
  N   N65       1.0  0.75638  0.37133  0.33984  1.0000
  H   H1585     1.0  0.96907  0.34929  0.96304  1.0000
  N   N66       1.0  0.76476  0.25641  0.74348  1.0000
  H   H1586     1.0  0.97478  0.32465  0.93475  1.0000
  H   H1587     1.0  0.75075  0.44003  0.55996  1.0000
  H   H1588     1.0  0.75995  0.33123  0.34976  1.0000
  C   C944      1.0  0.81378  0.24945  0.40586  1.0000
  H   H1589     1.0  0.97597  0.44042  0.90015  1.0000
  H   H1590     1.0  0.81899  0.33267  0.40709  1.0000
  H   H1591     1.0  0.82905  0.44821  0.88072  1.0000
  H   H1592     1.0  0.86821  0.39979  0.78352  1.0000
  H   H1593     1.0  0.81476  0.34151  0.74564  1.0000
  N   N67       1.0  0.84858  0.42674  0.86927  1.0000
  H   H1594     1.0  0.86873  0.41256  0.74445  1.0000
  C   C945      1.0  0.75775  0.26326  0.71226  1.0000
  N   N68       1.0  0.89728  0.41262  0.05851  1.0000
  C   C946      1.0  0.90491  0.39951  0.06675  1.0000
  C   C947      1.0  0.91155  0.42967  0.05558  1.0000
  C   C948      1.0  0.88850  0.40777  0.02186  1.0000
  C   C949      1.0  0.88527  0.41229  0.08861  1.0000
  C   C950      1.0  0.89277  0.38066  0.06948  1.0000
  C   C951      1.0  0.92136  0.43696  0.09134  1.0000
  C   C952      1.0  0.87996  0.41952  0.00684  1.0000
  C   C953      1.0  0.88011  0.42804  0.09249  1.0000
  H   H1595     1.0  0.91429  0.39980  0.04558  1.0000
  H   H1596     1.0  0.91182  0.40250  0.09330  1.0000
  H   H1597     1.0  0.90766  0.43983  0.04469  1.0000
  H   H1598     1.0  0.92070  0.42872  0.03521  1.0000
  H   H1599     1.0  0.89737  0.40692  0.00057  1.0000
  H   H1600     1.0  0.87845  0.39486  0.02270  1.0000
  H   H1601     1.0  0.87359  0.40078  0.08531  1.0000
  H   H1602     1.0  0.89052  0.41075  0.11573  1.0000
  H   H1603     1.0  0.88290  0.37888  0.09002  1.0000
  H   H1604     1.0  0.88711  0.37515  0.04262  1.0000
  H   H1605     1.0  0.89994  0.37282  0.07849  1.0000
  H   H1606     1.0  0.92876  0.42941  0.10044  1.0000
  H   H1607     1.0  0.93042  0.45013  0.08607  1.0000
  H   H1608     1.0  0.88869  0.43284  0.00287  1.0000
  H   H1609     1.0  0.86935  0.41922  0.02399  1.0000
  H   H1610     1.0  0.87471  0.41463  0.97925  1.0000
  H   H1611     1.0  0.86634  0.42387  0.09108  1.0000
  H   H1612     1.0  0.88521  0.43806  0.07176  1.0000
  H   H1613     1.0  0.88393  0.43426  0.11986  1.0000
  N   N69       1.0  0.85719  0.36785  0.74191  1.0000
  C   C954      1.0  0.86241  0.36527  0.78024  1.0000
  C   C955      1.0  0.83854  0.36288  0.74139  1.0000
  C   C956      1.0  0.86525  0.38623  0.73032  1.0000
  C   C957      1.0  0.86244  0.35689  0.71570  1.0000
  C   C958      1.0  0.88132  0.37139  0.78766  1.0000
  C   C959      1.0  0.82814  0.34350  0.74356  1.0000
  C   C960      1.0  0.86255  0.39958  0.75613  1.0000
  C   C961      1.0  0.85743  0.35725  0.67506  1.0000
  H   H1614     1.0  0.85713  0.37159  0.80101  1.0000
  H   H1615     1.0  0.85726  0.35146  0.78727  1.0000
  H   H1616     1.0  0.83441  0.36776  0.71653  1.0000
  H   H1617     1.0  0.83450  0.36909  0.76459  1.0000
  H   H1618     1.0  0.87891  0.38988  0.72667  1.0000
  H   H1619     1.0  0.86048  0.38803  0.70285  1.0000
  H   H1620     1.0  0.87622  0.36089  0.71580  1.0000
  H   H1621     1.0  0.85807  0.34339  0.72466  1.0000
  H   H1622     1.0  0.88336  0.36925  0.81702  1.0000
  H   H1623     1.0  0.88714  0.36381  0.77170  1.0000
  H   H1624     1.0  0.88791  0.38526  0.78283  1.0000
  H   H1625     1.0  0.76551  0.36777  0.28656  1.0000
  S   S281      1.0  0.75429  0.26536  0.61779  1.0000
  H   H1626     1.0  0.78261  0.32765  0.46484  1.0000
  H   H1627     1.0  0.87968  0.45150  0.18366  1.0000
  C   C962      1.0  0.93402  0.32547  0.87910  1.0000
  C   C963      1.0  0.79535  0.33031  0.45436  1.0000
  H   H1628     1.0  0.91327  0.43811  0.11383  1.0000
  C   C964      1.0  0.87845  0.48863  0.89725  1.0000
  C   C965      1.0  0.82880  0.39487  0.86312  1.0000
  H   H1629     1.0  0.76737  0.26876  0.69108  1.0000
  C   C966      1.0  0.77542  0.42143  0.52876  1.0000
  C   C967      1.0  0.80027  0.33736  0.15269  1.0000
  H   H1630     1.0  0.80773  0.36396  0.13768  1.0000
  H   H1631     1.0  0.86111  0.45341  0.88519  1.0000
  H   H1632     1.0  0.76555  0.43076  0.74351  1.0000
  H   H1633     1.0  0.83741  0.39011  0.84822  1.0000
  C   C968      1.0  0.87803  0.47361  0.15708  1.0000
  S   S282      1.0  0.89280  0.47373  0.12221  1.0000
  C   C969      1.0  0.76224  0.45148  0.71477  1.0000
  C   C970      1.0  0.83818  0.41043  0.88827  1.0000
  H   H1634     1.0  0.84866  0.34820  0.46084  1.0000
  C   C971      1.0  0.74952  0.43580  0.33600  1.0000
  H   H1635     1.0  0.85647  0.45271  0.94932  1.0000
  C   C972      1.0  0.84934  0.44056  0.93435  1.0000
  H   H1636     1.0  0.79735  0.34027  0.43353  1.0000
  H   H1637     1.0  0.77286  0.45476  0.63264  1.0000
  C   C973      1.0  0.97502  0.39182  0.90312  1.0000
  C   C974      1.0  0.75664  0.43591  0.73322  1.0000
  H   H1638     1.0  0.85938  0.45028  0.23274  1.0000
  C   C975      1.0  0.86231  0.46014  0.21226  1.0000
  H   H1639     1.0  0.75000  0.47186  0.81822  1.0000
  H   H1640     1.0  0.93056  0.31987  0.90662  1.0000
  H   H1641     1.0  0.81502  0.42585  0.87580  1.0000
  H   H1642     1.0  0.75469  0.47002  0.68725  1.0000
  H   H1643     1.0  0.79426  0.25642  0.78091  1.0000
  H   H1644     1.0  0.79650  0.25597  0.71657  1.0000
  C   C976      1.0  0.83507  0.34077  0.45691  1.0000
  C   C977      1.0  0.83213  0.33964  0.41505  1.0000
  H   H1645     1.0  0.75378  0.38840  0.25447  1.0000
  H   H1646     1.0  0.95791  0.32916  0.98341  1.0000
  C   C978      1.0  0.75047  0.45800  0.70167  1.0000
  C   C979      1.0  0.79712  0.46349  0.60950  1.0000
  H   H1647     1.0  0.84966  0.42991  0.95171  1.0000
  H   H1648     1.0  0.81979  0.36222  0.43372  1.0000
  H   H1649     1.0  0.95279  0.34543  0.85078  1.0000
  H   H1650     1.0  0.78813  0.25250  0.30684  1.0000
  H   H1651     1.0  0.74585  0.27653  0.74944  1.0000
  H   H1652     1.0  0.80181  0.36531  0.48666  1.0000
  H   H1653     1.0  0.83694  0.35250  0.40242  1.0000
  H   H1654     1.0  0.96654  0.32733  0.83235  1.0000
  H   H1655     1.0  0.78073  0.41256  0.54117  1.0000
  H   H1656     1.0  0.83784  0.37400  0.45880  1.0000
  C   C980      1.0  0.87038  0.48566  0.15868  1.0000
  H   H1657     1.0  0.75373  0.39761  0.29788  1.0000
  H   H1658     1.0  0.97989  0.36061  0.91056  1.0000
  H   H1659     1.0  0.96365  0.42418  0.93019  1.0000
  H   H1660     1.0  0.80256  0.26317  0.37187  1.0000
  H   H1661     1.0  0.87662  0.48764  0.28285  1.0000
  C   C981      1.0  0.73949  0.42724  0.73949  1.0000
  C   C982      1.0  0.74419  0.24701  0.24696  1.0000
  N   N70       1.0  0.77162  0.43704  0.58788  1.0000
  C   C983      1.0  0.77564  0.42508  0.61347  1.0000
  H   H1662     1.0  0.79394  0.44238  0.55544  1.0000
  H   H1663     1.0  0.84567  0.48033  0.83663  1.0000
  C   C984      1.0  0.78021  0.43810  0.55156  1.0000
  H   H1664     1.0  0.78253  0.25388  0.67837  1.0000
  C   C985      1.0  0.98319  0.31846  0.86291  1.0000
  H   H1665     1.0  0.75174  0.40375  0.62377  1.0000
  H   H1666     1.0  0.76164  0.29047  0.72002  1.0000
  C   C986      1.0  0.75141  0.27771  0.72193  1.0000
  H   H1667     1.0  0.76256  0.40016  0.58434  1.0000
  H   H1668     1.0  0.89460  0.48053  0.81709  1.0000
  C   C987      1.0  0.85886  0.48496  0.18678  1.0000
  H   H1669     1.0  0.95665  0.31022  0.86230  1.0000
  H   H1670     1.0  0.74438  0.44667  0.62094  1.0000
  H   H1671     1.0  0.76894  0.38660  0.41088  1.0000
  C   C988      1.0  0.86253  0.48661  0.88356  1.0000
  H   H1672     1.0  0.85357  0.48856  0.90186  1.0000
  H   H1673     1.0  0.79012  0.39039  0.40024  1.0000
  H   H1674     1.0  0.95339  0.31369  0.92458  1.0000
  H   H1675     1.0  0.92447  0.33072  0.87094  1.0000
  H   H1676     1.0  0.74961  0.26084  0.24543  1.0000
  S   S283      1.0  0.93416  0.49306  0.06485  1.0000
  H   H1677     1.0  0.81707  0.25939  0.32027  1.0000
  H   H1678     1.0  0.78843  0.27751  0.73750  1.0000
  H   H1679     1.0  0.75040  0.35144  0.38090  1.0000
  H   H1680     1.0  0.78115  0.42459  0.50125  1.0000
  S   S284      1.0  0.77569  0.24722  0.23127  1.0000
  Fe  Fe142     1.0  0.90647  0.48737  0.06971  1.0000
  C   C989      1.0  0.74401  0.37783  0.35716  1.0000
  H   H1681     1.0  0.77636  0.39614  0.34650  1.0000
  C   C990      1.0  0.98485  0.39092  0.96465  1.0000
  H   H1682     1.0  0.74339  0.46998  0.29856  1.0000
  H   H1683     1.0  0.80009  0.47467  0.62853  1.0000
  H   H1684     1.0  0.73969  0.48191  0.45672  1.0000
  H   H1685     1.0  0.98457  0.31316  0.88986  1.0000
  H   H1686     1.0  0.74136  0.27714  0.70226  1.0000
  S   S285      1.0  0.88338  0.49446  0.94452  1.0000
  H   H1687     1.0  0.90210  0.48754  0.88287  1.0000
  C   C991      1.0  0.87862  0.49458  0.30965  1.0000
  H   H1688     1.0  0.85312  0.49440  0.18743  1.0000
  Fe  Fe143     1.0  0.90364  0.49451  0.98624  1.0000
  C   C992      1.0  0.81302  0.24527  0.32394  1.0000
  H   H1689     1.0  0.95247  0.56529  0.86524  1.0000
  H   H1690     1.0  0.93863  0.57491  0.92572  1.0000
  C   C993      1.0  0.96480  0.56479  0.94493  1.0000
  H   H1691     1.0  0.93193  0.56179  0.84714  1.0000
  H   H1692     1.0  0.90089  0.53212  0.95415  1.0000
  H   H1693     1.0  0.95709  0.54687  0.90051  1.0000
  Fe  Fe144     1.0  0.93620  0.51544  0.02931  1.0000
  S   S286      1.0  0.95784  0.54192  0.03193  1.0000
  S   S287      1.0  0.90881  0.51119  0.03780  1.0000
  H   H1694     1.0  0.92010  0.56208  0.90383  1.0000
  H   H1695     1.0  0.94533  0.58229  0.86574  1.0000
  H   H1696     1.0  0.88068  0.52454  0.42197  1.0000
  H   H1697     1.0  0.92057  0.51559  0.85577  1.0000
  C   C994      1.0  0.87024  0.50234  0.38439  1.0000
  H   H1698     1.0  0.82560  0.51412  0.33836  1.0000
  H   H1699     1.0  0.87388  0.52959  0.31323  1.0000
  C   C995      1.0  0.90932  0.54422  0.96723  1.0000
  H   H1700     1.0  0.96625  0.57630  0.92862  1.0000
  C   C996      1.0  0.94114  0.56819  0.86917  1.0000
  C   C997      1.0  0.98029  0.54935  0.03157  1.0000
  C   C998      1.0  0.93069  0.52590  0.87067  1.0000
  H   H1701     1.0  0.91928  0.52037  0.92295  1.0000
  C   C999      1.0  0.87548  0.52707  0.34269  1.0000
  H   H1702     1.0  0.92968  0.53612  0.97848  1.0000
  H   H1703     1.0  0.95235  0.53724  0.94367  1.0000
  H   H1704     1.0  0.93996  0.52035  0.87905  1.0000
  H   H1705     1.0  0.90616  0.54332  0.99680  1.0000
  H   H1706     1.0  0.96182  0.56684  0.97361  1.0000
  H   H1707     1.0  0.97716  0.56356  0.94586  1.0000
  H   H1708     1.0  0.90662  0.55521  0.95650  1.0000
  H   H1709     1.0  0.91149  0.53284  0.89515  1.0000
  S   S288      1.0  0.93089  0.50061  0.97590  1.0000
  N   N71       1.0  0.93431  0.54767  0.92477  1.0000
  C   C1000     1.0  0.87362  0.54222  0.36426  1.0000
  C   C1001     1.0  0.95196  0.54830  0.92756  1.0000
  C   C1002     1.0  0.92329  0.53162  0.90443  1.0000
  C   C1003     1.0  0.93332  0.56345  0.90734  1.0000
  N   N72       1.0  0.86375  0.50923  0.35224  1.0000
  C   C1004     1.0  0.92788  0.54677  0.96344  1.0000
  H   H1710     1.0  0.93497  0.55858  0.97950  1.0000
  H   H1711     1.0  0.93633  0.53626  0.85091  1.0000
  H   H1712     1.0  0.86665  0.54839  0.34767  1.0000
  H   H1713     1.0  0.86791  0.53913  0.39153  1.0000
  H   H1714     1.0  0.88866  0.52816  0.34562  1.0000
  C   C1005     1.0  0.83714  0.51281  0.32804  1.0000
  H   H1715     1.0  0.88619  0.55229  0.36877  1.0000
  H   H1716     1.0  0.84479  0.52507  0.31518  1.0000
  C   C1006     1.0  0.86256  0.49748  0.31980  1.0000
  H   H1717     1.0  0.84587  0.51649  0.38367  1.0000
  H   H1718     1.0  0.98250  0.52477  0.02551  1.0000
  H   H1719     1.0  0.83314  0.50243  0.30687  1.0000
  H   H1720     1.0  0.98286  0.57576  0.03730  1.0000
  H   H1721     1.0  0.88941  0.50679  0.30649  1.0000
  H   H1722     1.0  0.85874  0.50242  0.29452  1.0000
  C   C1007     1.0  0.84631  0.50823  0.36021  1.0000
  H   H1723     1.0  0.88312  0.50296  0.37933  1.0000
  H   H1724     1.0  0.85888  0.51124  0.43072  1.0000
  C   C1008     1.0  0.87114  0.51137  0.42171  1.0000
  H   H1725     1.0  0.87333  0.49555  0.13825  1.0000
  H   H1726     1.0  0.87511  0.50420  0.44281  1.0000
  H   H1727     1.0  0.74029  0.49890  0.81910  1.0000
  H   H1728     1.0  0.83846  0.49508  0.36910  1.0000
