data_image0
_chemical_formula_structural       CHCFeHNS2C3HCHCH2CHC3HSH7C2SCHCHCHC2SH2SH4CHSCSH2FeH2CHCFeH2CH3FeH4C2HCSH2CSFeH3FeSCFeH3SCHC3H4C3H2C2NH5SC2HCH3FeHS2HC4HCH2SH4C2HCSH7CH4SH2NCHC3SHCHSH2FeSCH3CHSH2SHFeSHCSFeS2FeS2FeSFeHS2H5CSC6H4C2H2CHFeHC2H3C6H4C6H4NH3SH4CHCH3C2H2NCH2CSC3HCHCH3NFeCH2CHNC6H10SH2NC8H21CH2SHSFeH3CH4C2H3CHCHCHC3HCH2C2SC3HSH2CHFeHCH4FeHSC2HFeH2SCH3CH3CH2NHNCH2C5H4CH3C2H2SHCHSH2FeSCH4CSNFeSHFeSFeHSFeS2FeS2FeSFeS3CH2NCH2C6H9CH6C7H4C6H7CHSH7NC8H20CH2C2FeH3C2H3CH2CH2CFeH3NC5HCH3CH3SH2C2H2CHC2HSC2H2CH2NCHNHCHFeC2SCSH2CHC7HSH2FeCSHCH12CHCH3CH6CFeSH2CFeSH2C2H4CH4FeSH2FeH2SH4NFeSHSC2HC4H5SC3H7FeH2SHCHCNSHNH4SNC2HCFeHCHCH4CH2C2HCH2CHSH3CH4C3H6CH2CSHCSH2SH2CSH3CH3CH2CHC2H3C3SH2CH2CHFeHCNC3SHCH3SH2C2HC4SC2HCSH3CHC2HCHC2SHFeSFeHC2HCS2HCSH2C2H2NHC3FeHNH2FeCHCFeSCSHC2HC2HC2H2CH4NCHSHCHSFeH2C3HCH2FeC5HCH3CHC5H10CFeHC3H2FeCHFeC2H6CHSH3CSH2NC4H13NHC2HCHCH3SH5SH2CH2CHSHCHC2HCSCH5SC2H3SH2CHSH3C3H3CH6C2SH5CH2CH2C4H2FeCSFeS2CSFeS3FeHSH2S2FeSFeS3HFeHS2HSHSCHFeS2FeS2FeS2FeSFeS4H2C4SCH4C6H5CH5C2H3CH3C7H4C6H4C6H8CH5CNC6H5CH7FeNC8H20C2H6C2H2CH2FeHCSCFeH4N2CSH4NHCHCSCHCH4CH4CH3C2H4CH3C3H2C3HCHNHC2H2CFeH3CHSCHCHCH6FeH6CH2C3SHCH5CH4CHNC2H3CH5CH6CHCHFeCH2SNCHCHC2H2C2H4C2NC2HCHCH2CH2C2H2CH3C2H5CH2C2H9CHC2H5CHCHC2HCH2C3H3CSH5FeHSFeS2HSFeS3FeS2H2S2FeSFeS2FeHFeHS2HSHSHCFeSHFeS2FeS2FeSFeS4H2CH4CHCH2C6H4C2HCH3C3HC3H3SHC6H4C6H4C6H7C2H2CHCFeH2CNC6HCH2CHCH6CFeHCNCH3NC8H20C2H5C2H6C2H4NC7H18CH6C2H3SHC3HCHC3H3CH2CH2CH2SNHC2HNH3CH4CH3CH3CH2CNCHCHCH3CH3CH4C3HNC2H3SHCHC2H2NHC2H9CH2CHCH3SC2HCFeH6CH2CH3SCHFeH2NFeH3CH2CH3CSH2NHCH2NCSCHCH2CH6CH3CFeHCH2SHSC3H5C2H3CHCH2CH4SHC2H3C2H2CHC2HC3H3FeH5C2H5SHSHFeHSCSFeSCHFeS2FeS2FeSFeS3HSHFeSFeSFeS4HFeSFeSCSFeSFeS2H3C3HCH2CHFe2HCSC6H4C4H2CHC7H4C6H4C6H6CHC2HCH2CH4C2HCNC8H20NC8H20NC7H8CHSH4C3NC7HC2H6CH2CH4SH5C2H2SH2SH2SC2HSH2FeH3SHC2SH8NC4H2CHC2H4CH2CH7CH4CNH4FeHCHFeH2C2SH2CFeCH2NHFeH2CH3CH4CH2C2H4C2HC3SHSH3FeH10C2HC2HNHC2SHCH3CHCH6C2H2CHSCH2CHSCHCH5CHCH4C3HCHCH2SHFeHSH2FeSHCFeS2FeS2FeSFeS3FeSCFeSFeSFeHS3CFeSFeSHSFeHFeS2HSC4H5C2H2FeC7H4C5H2FeHC6H4C6H4C6H5SCH3C3H5CH2CHC2H5SH2NC7H10NFeHCHCHC2HCNC8H9FeH4CHCH3NC4HC2H3SH3CH2CH5NC4H2SH10CH4CH2C2HSH3NC8H21CHNC8H18CSCH2CHNC6HCH5CH8SH2C2H2CSCH3NCHCH3CHCH3C2H2CH16C3H3CHCH2NHSH2FeHCH2CH5CH3CH3FeSHC2HC2H4SH5SH2C3HS2HCNC2H2CH5NCHSCHSFeC2HCH3C2H4CHCH5CSH3C2H4CHSCH4FeSFeS3HCFeHFeS3H2SC2SCH4CH2FeNS2FeS2H2SCSCH3CH7SC2HCSHC2H2CHCSH2C3HCH2C7H5SCH2SH2SCH2C3HC2H3C6H2SCH2CH3CHSCH2CH3CHC2SCHC3H2SHNCH3CHFeH2FeHSHC2HCHFeC2H3CH2SH4CSCHCHCH2C2HSCHCFeNFeHCHCH4CHCHNCH4CH3NSHCNHCH5FeHCHCH3C4H2C2HC2HCH3CHCH3FeHFeC2FeH2FeSHCNH4FeSHS3C2SH2SCSHCHC2SHC3H2FeCFeSHSFeS2CSH2CH2SH4CFeCH3CHCHCHC3HFeC2FeCSCHCH8SHSC3FeH3C3H5NC2HC3H3C5H3FeHNHC2H2CH2CHCH3C2HC4HCNHC2H6CHCH2NC4HCHCFeCH10FeSHCH4C2H2CFeC2HCHSH5SC3SH3CH2CSH3SH2CH2CH2CH4FeNCHCH2CH2NCHC2HCH2CH4CSH6C2H7SH2S2H2SFeHC3H2C2H3C2H5CHSHSH2CFeSCH3SFeSHCFeS2FeS2FeSFeS3C6H4NC2HCSH2CH2C6H4C6H6SCHCSH5NC4H5C2H3CHCH2CH4CHCHCH4NHCSC2H3FeHFeHCH7CH3CHSCH5NC3HCHFeH9FeHCSCH2CSHCH4CH2CH5NH3C2HCHCHCH3CH4CNH2CH2C4HCHCH4C3SH2C2HCH3SCH5CHSCSH3CH3S2FeSHC2FeSHSHS2FeSHSFeS2FeS2FeSFeS3C6H6CSCHCHCNHC6H4C6H6C2H3CH5CH3CH5NH3CH3CH5NC8H20CH5CH3CHCHCHSH7CHCH2CH2CH3FeH4CNC8H4CNH2FeHFeHSH6NC8H5CH3C2H3C2H2CH3CH2C2HC4H3CH5SHSH2FeSFeS3HCHSHSCH2CHC4FeH2C2H3CH3CH2SFeCH2CHCHCNHC2HSH4CHCH2CHFeHC2H2CH3FeC2H3CNH4C3SFeH2CH2CSC2FeSFeSCSCSFeH2SCSCH3C3H3CHC5H4C2H3FeH3CHCHSFeCH5SH5C3HNH3NH4CH5CH3C2HCH5C
_chemical_formula_sum              "C1344 H2304 Fe192 N96 S384"
_cell_length_a       83.8981
_cell_length_b       83.2389
_cell_length_c       46.3677
_cell_angle_alpha    90.9327
_cell_angle_beta     92.0544
_cell_angle_gamma    114.952

_space_group_name_H-M_alt    "P 1"
_space_group_IT_number       1

loop_
  _space_group_symop_operation_xyz
  'x, y, z'

loop_
  _atom_site_type_symbol
  _atom_site_label
  _atom_site_symmetry_multiplicity
  _atom_site_fract_x
  _atom_site_fract_y
  _atom_site_fract_z
  _atom_site_occupancy
  C   C1        1.0  0.01863  0.43227  0.01778  1.0000
  H   H1        1.0  0.05906  0.49131  0.39012  1.0000
  C   C2        1.0  0.01534  0.44726  0.02183  1.0000
  Fe  Fe1       1.0  0.10206  0.48425  0.04479  1.0000
  H   H2        1.0  0.18428  0.46809  0.25161  1.0000
  N   N1        1.0  0.17537  0.46817  0.19038  1.0000
  S   S1        1.0  0.10190  0.46570  0.43821  1.0000
  S   S2        1.0  0.07488  0.48317  0.04886  1.0000
  C   C3        1.0  0.07272  0.47457  0.38671  1.0000
  C   C4        1.0  0.13712  0.45289  0.49456  1.0000
  C   C5        1.0  0.11815  0.48032  0.41560  1.0000
  H   H3        1.0  0.16625  0.44049  0.17627  1.0000
  C   C6        1.0  0.01037  0.42741  0.49929  1.0000
  H   H4        1.0  0.13777  0.45592  0.17258  1.0000
  C   C7        1.0  0.12059  0.47401  0.38851  1.0000
  H   H5        1.0  0.13471  0.48028  0.34891  1.0000
  H   H6        1.0  0.11263  0.46033  0.38180  1.0000
  C   C8        1.0  0.11554  0.47783  0.16246  1.0000
  H   H7        1.0  0.13913  0.45380  0.47090  1.0000
  C   C9        1.0  0.14047  0.48349  0.49218  1.0000
  C   C10       1.0  0.18838  0.45556  0.15045  1.0000
  C   C11       1.0  0.13090  0.48969  0.17787  1.0000
  H   H8        1.0  0.10999  0.45030  0.48894  1.0000
  S   S3        1.0  0.10475  0.50110  0.49666  1.0000
  H   H9        1.0  0.10563  0.46718  0.17365  1.0000
  H   H10       1.0  0.20150  0.47842  0.21150  1.0000
  H   H11       1.0  0.16318  0.48543  0.17860  1.0000
  H   H12       1.0  0.18831  0.48410  0.48464  1.0000
  H   H13       1.0  0.18453  0.44245  0.13928  1.0000
  H   H14       1.0  0.14335  0.44417  0.50209  1.0000
  H   H15       1.0  0.18676  0.44935  0.19481  1.0000
  C   C12       1.0  0.13311  0.48530  0.36977  1.0000
  C   C13       1.0  0.09856  0.50199  0.33636  1.0000
  S   S4        1.0  0.13443  0.48595  0.21484  1.0000
  C   C14       1.0  0.17383  0.47916  0.48102  1.0000
  H   H16       1.0  0.02094  0.43166  0.48450  1.0000
  C   C15       1.0  0.16566  0.47449  0.16867  1.0000
  H   H17       1.0  0.14917  0.44881  0.14606  1.0000
  C   C16       1.0  0.11303  0.47939  0.13250  1.0000
  H   H18       1.0  0.06152  0.46264  0.37718  1.0000
  C   C17       1.0  0.20298  0.49679  0.17843  1.0000
  C   C18       1.0  0.16393  0.46190  0.21602  1.0000
  S   S5        1.0  0.16877  0.49479  0.28190  1.0000
  H   H19       1.0  0.14209  0.48211  0.46867  1.0000
  H   H20       1.0  0.08633  0.50099  0.32517  1.0000
  S   S6        1.0  0.10848  0.50168  0.00596  1.0000
  H   H21       1.0  0.14284  0.46633  0.13888  1.0000
  H   H22       1.0  0.16268  0.45296  0.25999  1.0000
  H   H23       1.0  0.15989  0.47232  0.22370  1.0000
  H   H24       1.0  0.17514  0.44525  0.23791  1.0000
  C   C19       1.0  0.17866  0.45287  0.17881  1.0000
  H   H25       1.0  0.08497  0.47444  0.37883  1.0000
  S   S7        1.0  0.12479  0.49412  0.07924  1.0000
  C   C20       1.0  0.17225  0.45682  0.24260  1.0000
  S   S8        1.0  0.06394  0.47362  0.47620  1.0000
  H   H26       1.0  0.10130  0.47000  0.12086  1.0000
  H   H27       1.0  0.07253  0.47308  0.41045  1.0000
  Fe  Fe2       1.0  0.09088  0.47362  0.47784  1.0000
  H   H28       1.0  0.12620  0.47994  0.49396  1.0000
  H   H29       1.0  0.11224  0.43009  0.48480  1.0000
  C   C21       1.0  0.12860  0.49804  0.42390  1.0000
  H   H30       1.0  0.00807  0.47672  0.48021  1.0000
  C   C22       1.0  0.19241  0.48338  0.20083  1.0000
  Fe  Fe3       1.0  0.08076  0.49878  0.00851  1.0000
  H   H31       1.0  0.20287  0.46168  0.15484  1.0000
  H   H32       1.0  0.15149  0.45009  0.21007  1.0000
  C   C23       1.0  0.12605  0.49268  0.11749  1.0000
  H   H33       1.0  0.18482  0.46342  0.13466  1.0000
  H   H34       1.0  0.17151  0.48891  0.46753  1.0000
  H   H35       1.0  0.18982  0.49152  0.21773  1.0000
  Fe  Fe4       1.0  0.06543  0.45947  0.01788  1.0000
  H   H36       1.0  0.06580  0.48933  0.35530  1.0000
  H   H37       1.0  0.09891  0.48879  0.33582  1.0000
  H   H38       1.0  0.16917  0.46630  0.46881  1.0000
  H   H39       1.0  0.24602  0.50009  0.23616  1.0000
  C   C24       1.0  0.14790  0.46034  0.15614  1.0000
  C   C25       1.0  0.11713  0.44278  0.49763  1.0000
  H   H40       1.0  0.02625  0.46014  0.02551  1.0000
  C   C26       1.0  0.00424  0.41562  0.01310  1.0000
  S   S9        1.0  0.04041  0.43363  0.01947  1.0000
  H   H41       1.0  0.20562  0.49046  0.15921  1.0000
  H   H42       1.0  0.17355  0.48051  0.14988  1.0000
  C   C27       1.0  0.07041  0.49135  0.37827  1.0000
  S   S10       1.0  0.09228  0.45916  0.01672  1.0000
  Fe  Fe5       1.0  0.07786  0.50042  0.49783  1.0000
  H   H43       1.0  0.02419  0.49285  0.04700  1.0000
  H   H44       1.0  0.09529  0.49947  0.42228  1.0000
  H   H45       1.0  0.00663  0.40394  0.00992  1.0000
  Fe  Fe6       1.0  0.06122  0.46375  0.52144  1.0000
  S   S11       1.0  0.08700  0.46094  0.52153  1.0000
  C   C28       1.0  0.12471  0.47926  0.88595  1.0000
  Fe  Fe7       1.0  0.09960  0.48887  0.54039  1.0000
  H   H46       1.0  0.12571  0.46840  0.54005  1.0000
  H   H47       1.0  0.23480  0.50103  0.87013  1.0000
  H   H48       1.0  0.00286  0.43032  0.57024  1.0000
  S   S12       1.0  0.07386  0.49105  0.54308  1.0000
  C   C29       1.0  0.05882  0.42921  0.95195  1.0000
  H   H49       1.0  0.02144  0.40423  0.87323  1.0000
  C   C30       1.0  0.04112  0.44933  0.91888  1.0000
  C   C31       1.0  0.05749  0.44646  0.91096  1.0000
  C   C32       1.0  0.14321  0.45814  0.56026  1.0000
  H   H50       1.0  0.07031  0.44133  0.96047  1.0000
  H   H51       1.0  0.03916  0.42442  0.86636  1.0000
  H   H52       1.0  0.06936  0.45771  0.92075  1.0000
  H   H53       1.0  0.11968  0.46513  0.88166  1.0000
  C   C33       1.0  0.13983  0.47089  0.53964  1.0000
  C   C34       1.0  0.11631  0.48647  0.65546  1.0000
  C   C35       1.0  0.13537  0.49108  0.86568  1.0000
  H   H54       1.0  0.10006  0.48106  0.61591  1.0000
  H   H55       1.0  0.10539  0.47881  0.66851  1.0000
  C   C36       1.0  0.17709  0.48087  0.84621  1.0000
  C   C37       1.0  0.06066  0.41325  0.96565  1.0000
  N   N2        1.0  0.05751  0.42901  0.91937  1.0000
  H   H56       1.0  0.08561  0.44925  0.87928  1.0000
  H   H57       1.0  0.08515  0.43407  0.92346  1.0000
  H   H58       1.0  0.07133  0.41302  0.90781  1.0000
  H   H59       1.0  0.13839  0.48602  0.84600  1.0000
  H   H60       1.0  0.05858  0.44844  0.88743  1.0000
  S   S13       1.0  0.03577  0.44603  0.54277  1.0000
  C   C38       1.0  0.16534  0.47706  0.51055  1.0000
  C   C39       1.0  0.22120  0.49749  0.86135  1.0000
  H   H61       1.0  0.06914  0.42934  0.86132  1.0000
  C   C40       1.0  0.01408  0.43249  0.52857  1.0000
  H   H62       1.0  0.04236  0.40424  0.86518  1.0000
  H   H63       1.0  0.11370  0.43939  0.52030  1.0000
  H   H64       1.0  0.02928  0.41292  0.92115  1.0000
  Fe  Fe8       1.0  0.09687  0.47673  0.97838  1.0000
  H   H65       1.0  0.24135  0.49364  0.78558  1.0000
  S   S14       1.0  0.13624  0.49364  0.70653  1.0000
  S   S15       1.0  0.10712  0.47013  0.93660  1.0000
  H   H66       1.0  0.16467  0.47775  0.85729  1.0000
  C   C41       1.0  0.04079  0.41340  0.90927  1.0000
  C   C42       1.0  0.03595  0.41160  0.87662  1.0000
  C   C43       1.0  0.07346  0.42717  0.90839  1.0000
  C   C44       1.0  0.07970  0.43451  0.87849  1.0000
  H   H67       1.0  0.17704  0.49179  0.89981  1.0000
  C   C45       1.0  0.11324  0.48771  0.62560  1.0000
  H   H68       1.0  0.06226  0.41557  0.98948  1.0000
  H   H69       1.0  0.02898  0.43963  0.90729  1.0000
  S   S16       1.0  0.16732  0.50017  0.77749  1.0000
  H   H70       1.0  0.13285  0.45365  0.57640  1.0000
  H   H71       1.0  0.09030  0.43065  0.87225  1.0000
  H   H72       1.0  0.04149  0.40076  0.91483  1.0000
  H   H73       1.0  0.14249  0.44593  0.54936  1.0000
  C   C46       1.0  0.13331  0.49518  0.66862  1.0000
  C   C47       1.0  0.12055  0.48559  0.91169  1.0000
  H   H74       1.0  0.14676  0.48423  0.55036  1.0000
  C   C48       1.0  0.21075  0.50207  0.88456  1.0000
  S   S17       1.0  0.06949  0.47524  0.97796  1.0000
  H   H75       1.0  0.15627  0.46492  0.57188  1.0000
  H   H76       1.0  0.04868  0.40074  0.96149  1.0000
  H   H77       1.0  0.04294  0.46273  0.91220  1.0000
  H   H78       1.0  0.18421  0.47365  0.85623  1.0000
  H   H79       1.0  0.17328  0.47565  0.82359  1.0000
  H   H80       1.0  0.04704  0.42971  0.96129  1.0000
  H   H81       1.0  0.03913  0.44895  0.94239  1.0000
  C   C49       1.0  0.12722  0.49758  0.60848  1.0000
  H   H82       1.0  0.07246  0.41170  0.95875  1.0000
  H   H83       1.0  0.01454  0.48676  0.51650  1.0000
  H   H84       1.0  0.17211  0.48981  0.52318  1.0000
  H   H85       1.0  0.16894  0.46748  0.52253  1.0000
  S   S18       1.0  0.12418  0.50023  0.57097  1.0000
  H   H86       1.0  0.20349  0.48953  0.89593  1.0000
  H   H87       1.0  0.21544  0.48298  0.85657  1.0000
  N   N3        1.0  0.14570  0.47105  0.50926  1.0000
  C   C50       1.0  0.18839  0.50107  0.84602  1.0000
  H   H88       1.0  0.01985  0.46921  0.50516  1.0000
  C   C51       1.0  0.00013  0.42661  0.54751  1.0000
  C   C52       1.0  0.00952  0.47425  0.50334  1.0000
  C   C53       1.0  0.03643  0.55981  0.48548  1.0000
  S   S19       1.0  0.09740  0.61233  0.06568  1.0000
  H   H89       1.0  0.03186  0.56293  0.04911  1.0000
  C   C54       1.0  0.20917  0.73560  0.23022  1.0000
  H   H90       1.0  0.07154  0.53601  0.34483  1.0000
  S   S20       1.0  0.14333  0.67200  0.47994  1.0000
  H   H91       1.0  0.12864  0.56083  0.04703  1.0000
  H   H92       1.0  0.10520  0.53111  0.03348  1.0000
  Fe  Fe9       1.0  0.11309  0.64154  0.07508  1.0000
  S   S21       1.0  0.11564  0.64902  0.12328  1.0000
  C   C55       1.0  0.03288  0.50661  0.04121  1.0000
  H   H93       1.0  0.07859  0.56845  0.06595  1.0000
  H   H94       1.0  0.04558  0.63699  0.46422  1.0000
  H   H95       1.0  0.04643  0.65831  0.45414  1.0000
  C   C56       1.0  0.02222  0.59459  0.49134  1.0000
  H   H96       1.0  0.10974  0.52611  0.45017  1.0000
  S   S22       1.0  0.18349  0.52290  0.23031  1.0000
  H   H97       1.0  0.16770  0.64943  0.35727  1.0000
  H   H98       1.0  0.06006  0.57320  0.07157  1.0000
  S   S23       1.0  0.19480  0.53667  0.29800  1.0000
  H   H99       1.0  0.06348  0.68612  0.41045  1.0000
  Fe  Fe10      1.0  0.18122  0.54315  0.26034  1.0000
  S   S24       1.0  0.18822  0.56986  0.24088  1.0000
  H   H100      1.0  0.02747  0.56303  0.47087  1.0000
  C   C57       1.0  0.22788  0.55426  0.21735  1.0000
  S   S25       1.0  0.15394  0.52540  0.27290  1.0000
  Fe  Fe11      1.0  0.17844  0.68077  0.31886  1.0000
  S   S26       1.0  0.20409  0.68237  0.33793  1.0000
  S   S27       1.0  0.15405  0.67614  0.34428  1.0000
  Fe  Fe12      1.0  0.18865  0.67834  0.25653  1.0000
  S   S28       1.0  0.21485  0.67918  0.27178  1.0000
  S   S29       1.0  0.18483  0.67718  0.20721  1.0000
  Fe  Fe13      1.0  0.20012  0.66049  0.30555  1.0000
  S   S30       1.0  0.20458  0.63727  0.32245  1.0000
  Fe  Fe14      1.0  0.21718  0.70136  0.30262  1.0000
  H   H101      1.0  0.24308  0.75614  0.19093  1.0000
  S   S31       1.0  0.17382  0.65775  0.28815  1.0000
  S   S32       1.0  0.19163  0.70157  0.28564  1.0000
  H   H102      1.0  0.15143  0.51499  0.12166  1.0000
  H   H103      1.0  0.07598  0.65233  0.48784  1.0000
  H   H104      1.0  0.04343  0.62062  0.04946  1.0000
  H   H105      1.0  0.15500  0.61453  0.39064  1.0000
  H   H106      1.0  0.11798  0.53163  0.41504  1.0000
  C   C58       1.0  0.07549  0.52485  0.34602  1.0000
  S   S33       1.0  0.21846  0.50798  0.25854  1.0000
  C   C59       1.0  0.19158  0.58813  0.26394  1.0000
  C   C60       1.0  0.19369  0.58731  0.29384  1.0000
  C   C61       1.0  0.19761  0.60247  0.31159  1.0000
  C   C62       1.0  0.19901  0.61838  0.29964  1.0000
  C   C63       1.0  0.19650  0.61908  0.26979  1.0000
  C   C64       1.0  0.19299  0.60403  0.25196  1.0000
  H   H107      1.0  0.19264  0.57511  0.30323  1.0000
  H   H108      1.0  0.19960  0.60186  0.33462  1.0000
  H   H109      1.0  0.19761  0.63131  0.26042  1.0000
  H   H110      1.0  0.19141  0.60472  0.22883  1.0000
  C   C65       1.0  0.05361  0.54528  0.05881  1.0000
  C   C66       1.0  0.03534  0.59695  0.02258  1.0000
  H   H111      1.0  0.21419  0.70987  0.19442  1.0000
  H   H112      1.0  0.19625  0.50521  0.17174  1.0000
  C   C67       1.0  0.22851  0.73888  0.23694  1.0000
  H   H113      1.0  0.21684  0.55828  0.21623  1.0000
  Fe  Fe15      1.0  0.12048  0.64883  0.01069  1.0000
  H   H114      1.0  0.14936  0.52288  0.41220  1.0000
  C   C68       1.0  0.10801  0.68650  0.46517  1.0000
  C   C69       1.0  0.14134  0.50922  0.40546  1.0000
  H   H115      1.0  0.22211  0.53979  0.21211  1.0000
  H   H116      1.0  0.08113  0.63409  0.45344  1.0000
  H   H117      1.0  0.03790  0.54849  0.47494  1.0000
  C   C70       1.0  0.13505  0.65742  0.14624  1.0000
  C   C71       1.0  0.15187  0.66378  0.13532  1.0000
  C   C72       1.0  0.16690  0.67000  0.15436  1.0000
  C   C73       1.0  0.16535  0.66977  0.18449  1.0000
  C   C74       1.0  0.14854  0.66348  0.19544  1.0000
  C   C75       1.0  0.13350  0.65745  0.17639  1.0000
  H   H118      1.0  0.15329  0.66400  0.11221  1.0000
  H   H119      1.0  0.17983  0.67493  0.14563  1.0000
  H   H120      1.0  0.14712  0.66329  0.21855  1.0000
  H   H121      1.0  0.12056  0.65266  0.18508  1.0000
  C   C76       1.0  0.14650  0.67217  0.44228  1.0000
  C   C77       1.0  0.13539  0.65851  0.42322  1.0000
  C   C78       1.0  0.13801  0.65971  0.39326  1.0000
  C   C79       1.0  0.15223  0.67414  0.38221  1.0000
  C   C80       1.0  0.16360  0.68755  0.40142  1.0000
  C   C81       1.0  0.16061  0.68666  0.43121  1.0000
  H   H122      1.0  0.12468  0.64717  0.43154  1.0000
  H   H123      1.0  0.12901  0.64941  0.37851  1.0000
  H   H124      1.0  0.17435  0.69892  0.39319  1.0000
  H   H125      1.0  0.16927  0.69731  0.44575  1.0000
  N   N4        1.0  0.03516  0.53852  0.04533  1.0000
  H   H126      1.0  0.07630  0.67308  0.48044  1.0000
  H   H127      1.0  0.04620  0.50952  0.05064  1.0000
  H   H128      1.0  0.07114  0.52370  0.39164  1.0000
  S   S34       1.0  0.15962  0.51805  0.35571  1.0000
  H   H129      1.0  0.24446  0.61332  0.25319  1.0000
  H   H130      1.0  0.10153  0.53846  0.42841  1.0000
  H   H131      1.0  0.01143  0.51368  0.04635  1.0000
  H   H132      1.0  0.06010  0.65732  0.41145  1.0000
  C   C82       1.0  0.24143  0.51636  0.26854  1.0000
  H   H133      1.0  0.20975  0.67321  0.42369  1.0000
  C   C83       1.0  0.02555  0.51940  0.05330  1.0000
  H   H134      1.0  0.23845  0.58127  0.31822  1.0000
  H   H135      1.0  0.02551  0.51837  0.07724  1.0000
  H   H136      1.0  0.06121  0.53880  0.04834  1.0000
  C   C84       1.0  0.23434  0.70048  0.19941  1.0000
  C   C85       1.0  0.07628  0.64002  0.43571  1.0000
  H   H137      1.0  0.05331  0.54186  0.08199  1.0000
  H   H138      1.0  0.02436  0.59367  0.46862  1.0000
  N   N5        1.0  0.08060  0.65920  0.44318  1.0000
  C   C86       1.0  0.03663  0.54075  0.01315  1.0000
  H   H139      1.0  0.23121  0.60636  0.28430  1.0000
  H   H140      1.0  0.06184  0.63185  0.43355  1.0000
  C   C87       1.0  0.23737  0.74150  0.18697  1.0000
  S   S35       1.0  0.09894  0.64918  0.03881  1.0000
  C   C88       1.0  0.14128  0.50466  0.13302  1.0000
  C   C89       1.0  0.24114  0.60421  0.27153  1.0000
  C   C90       1.0  0.08569  0.55818  0.49023  1.0000
  H   H141      1.0  0.01285  0.61554  0.06041  1.0000
  C   C91       1.0  0.06500  0.56547  0.05769  1.0000
  H   H142      1.0  0.23742  0.72549  0.14888  1.0000
  C   C92       1.0  0.24388  0.57156  0.31293  1.0000
  H   H143      1.0  0.08143  0.66731  0.39897  1.0000
  H   H144      1.0  0.10592  0.66038  0.45819  1.0000
  H   H145      1.0  0.20030  0.72137  0.22618  1.0000
  N   N6        1.0  0.23684  0.73192  0.21445  1.0000
  Fe  Fe16      1.0  0.11877  0.61507  0.03624  1.0000
  C   C93       1.0  0.23355  0.58468  0.26037  1.0000
  H   H146      1.0  0.10667  0.67188  0.42600  1.0000
  H   H147      1.0  0.24578  0.55076  0.24825  1.0000
  C   C94       1.0  0.08644  0.54229  0.49766  1.0000
  H   H148      1.0  0.22378  0.73826  0.17830  1.0000
  N   N7        1.0  0.17662  0.63742  0.41118  1.0000
  C   C95       1.0  0.17236  0.62822  0.43957  1.0000
  C   C96       1.0  0.19202  0.63527  0.39901  1.0000
  C   C97       1.0  0.18147  0.65693  0.41503  1.0000
  C   C98       1.0  0.15996  0.63284  0.45848  1.0000
  C   C99       1.0  0.18899  0.61606  0.39142  1.0000
  C   C100      1.0  0.19748  0.66755  0.43576  1.0000
  H   H149      1.0  0.18450  0.63077  0.45299  1.0000
  H   H150      1.0  0.16600  0.61356  0.43591  1.0000
  H   H151      1.0  0.19645  0.64324  0.37941  1.0000
  H   H152      1.0  0.20364  0.64076  0.41451  1.0000
  H   H153      1.0  0.18465  0.66363  0.39409  1.0000
  H   H154      1.0  0.14738  0.63047  0.44679  1.0000
  H   H155      1.0  0.15666  0.62427  0.47752  1.0000
  H   H156      1.0  0.17854  0.60980  0.37419  1.0000
  H   H157      1.0  0.18596  0.60771  0.41063  1.0000
  H   H158      1.0  0.20129  0.61629  0.38291  1.0000
  S   S36       1.0  0.07162  0.52230  0.48102  1.0000
  H   H159      1.0  0.19935  0.65968  0.45344  1.0000
  H   H160      1.0  0.19546  0.67856  0.44645  1.0000
  N   N8        1.0  0.14053  0.60684  0.14155  1.0000
  C   C101      1.0  0.14593  0.61749  0.11470  1.0000
  C   C102      1.0  0.14703  0.61895  0.16828  1.0000
  C   C103      1.0  0.12065  0.59880  0.14118  1.0000
  C   C104      1.0  0.14702  0.59252  0.14124  1.0000
  C   C105      1.0  0.16567  0.62934  0.11250  1.0000
  C   C106      1.0  0.16532  0.62229  0.18181  1.0000
  C   C107      1.0  0.11085  0.58540  0.11610  1.0000
  C   C108      1.0  0.14037  0.57907  0.16550  1.0000
  H   H161      1.0  0.14211  0.60861  0.09511  1.0000
  H   H162      1.0  0.13895  0.62625  0.11218  1.0000
  H   H163      1.0  0.13785  0.61395  0.18619  1.0000
  H   H164      1.0  0.14706  0.63202  0.16392  1.0000
  H   H165      1.0  0.11567  0.59185  0.16149  1.0000
  H   H166      1.0  0.11591  0.60950  0.14057  1.0000
  H   H167      1.0  0.14336  0.58490  0.12021  1.0000
  H   H168      1.0  0.16161  0.59807  0.14197  1.0000
  H   H169      1.0  0.17035  0.64050  0.12865  1.0000
  H   H170      1.0  0.17374  0.62173  0.11421  1.0000
  H   H171      1.0  0.16778  0.63539  0.09096  1.0000
  H   H172      1.0  0.16929  0.63324  0.19842  1.0000
  H   H173      1.0  0.16495  0.61048  0.19307  1.0000
  H   H174      1.0  0.17581  0.62627  0.16615  1.0000
  H   H175      1.0  0.09646  0.58083  0.11819  1.0000
  H   H176      1.0  0.11351  0.57345  0.11652  1.0000
  H   H177      1.0  0.11386  0.59139  0.09470  1.0000
  H   H178      1.0  0.12863  0.56702  0.15777  1.0000
  H   H179      1.0  0.13698  0.58469  0.18492  1.0000
  H   H180      1.0  0.15091  0.57507  0.17279  1.0000
  H   H181      1.0  0.22397  0.68692  0.19422  1.0000
  C   C109      1.0  0.14359  0.50337  0.16304  1.0000
  H   H182      1.0  0.10290  0.69604  0.45789  1.0000
  H   H183      1.0  0.14494  0.51103  0.48739  1.0000
  S   S37       1.0  0.13103  0.59585  0.03749  1.0000
  H   H184      1.0  0.07285  0.68850  0.44566  1.0000
  S   S38       1.0  0.24577  0.72287  0.30788  1.0000
  Fe  Fe17      1.0  0.16734  0.51700  0.30880  1.0000
  H   H185      1.0  0.21940  0.70635  0.23040  1.0000
  H   H186      1.0  0.20428  0.74009  0.24930  1.0000
  H   H187      1.0  0.24149  0.53383  0.30320  1.0000
  C   C110      1.0  0.10042  0.66889  0.44723  1.0000
  H   H188      1.0  0.07627  0.55816  0.47367  1.0000
  H   H189      1.0  0.23296  0.55823  0.30938  1.0000
  H   H190      1.0  0.06609  0.57034  0.03545  1.0000
  H   H191      1.0  0.00118  0.53894  0.03227  1.0000
  C   C111      1.0  0.00627  0.54200  0.05491  1.0000
  C   C112      1.0  0.07383  0.66654  0.41852  1.0000
  H   H192      1.0  0.23591  0.75342  0.24074  1.0000
  H   H193      1.0  0.24310  0.69909  0.21677  1.0000
  H   H194      1.0  0.20792  0.74339  0.21181  1.0000
  C   C113      1.0  0.05163  0.65142  0.46949  1.0000
  H   H195      1.0  0.17013  0.65930  0.42188  1.0000
  C   C114      1.0  0.10207  0.50995  0.36761  1.0000
  H   H196      1.0  0.04921  0.57169  0.48680  1.0000
  C   C115      1.0  0.07195  0.65948  0.47108  1.0000
  H   H197      1.0  0.08710  0.69551  0.41561  1.0000
  C   C116      1.0  0.16047  0.62927  0.39106  1.0000
  C   C117      1.0  0.08363  0.63646  0.40744  1.0000
  C   C118      1.0  0.00494  0.58641  0.50112  1.0000
  H   H198      1.0  0.09799  0.64436  0.40639  1.0000
  C   C119      1.0  0.08164  0.52386  0.37735  1.0000
  H   H199      1.0  0.17162  0.63026  0.34822  1.0000
  H   H200      1.0  0.14986  0.62885  0.34739  1.0000
  C   C120      1.0  0.10385  0.54282  0.02661  1.0000
  C   C121      1.0  0.03238  0.60892  0.04070  1.0000
  S   S39       1.0  0.10636  0.62290  0.49470  1.0000
  C   C122      1.0  0.22547  0.71226  0.20994  1.0000
  C   C123      1.0  0.02652  0.54947  0.05821  1.0000
  C   C124      1.0  0.10597  0.52766  0.42755  1.0000
  H   H201      1.0  0.07680  0.63884  0.38817  1.0000
  S   S40       1.0  0.13540  0.64351  0.04805  1.0000
  H   H202      1.0  0.08122  0.62227  0.40613  1.0000
  H   H203      1.0  0.15544  0.51266  0.17453  1.0000
  C   C125      1.0  0.01501  0.60596  0.04697  1.0000
  H   H204      1.0  0.16630  0.64676  0.46703  1.0000
  Fe  Fe18      1.0  0.15708  0.50461  0.24511  1.0000
  H   H205      1.0  0.14975  0.63247  0.39894  1.0000
  C   C126      1.0  0.16284  0.63494  0.35938  1.0000
  H   H206      1.0  0.12252  0.69297  0.46314  1.0000
  H   H207      1.0  0.07934  0.50762  0.42883  1.0000
  H   H208      1.0  0.22641  0.55008  0.26275  1.0000
  H   H209      1.0  0.23834  0.75450  0.30306  1.0000
  Fe  Fe19      1.0  0.08468  0.61971  0.02791  1.0000
  H   H210      1.0  0.04707  0.65295  0.49115  1.0000
  S   S41       1.0  0.05821  0.61334  0.49711  1.0000
  C   C127      1.0  0.24666  0.73737  0.16173  1.0000
  C   C128      1.0  0.07457  0.68524  0.42313  1.0000
  H   H211      1.0  0.22228  0.57652  0.27354  1.0000
  Fe  Fe20      1.0  0.19540  0.51505  0.26887  1.0000
  H   H212      1.0  0.08638  0.52796  0.33112  1.0000
  H   H213      1.0  0.04228  0.55505  0.00804  1.0000
  S   S42       1.0  0.05672  0.60005  0.01270  1.0000
  C   C129      1.0  0.09108  0.50998  0.41604  1.0000
  H   H214      1.0  0.16455  0.50876  0.49696  1.0000
  H   H215      1.0  0.21592  0.50588  0.18870  1.0000
  H   H216      1.0  0.09312  0.53682  0.38192  1.0000
  C   C130      1.0  0.11704  0.55965  0.03451  1.0000
  H   H217      1.0  0.02974  0.55167  0.08190  1.0000
  H   H218      1.0  0.23723  0.56077  0.20040  1.0000
  H   H219      1.0  0.03317  0.50668  0.01732  1.0000
  C   C131      1.0  0.11497  0.57485  0.02681  1.0000
  H   H220      1.0  0.24168  0.70526  0.17969  1.0000
  H   H221      1.0  0.11201  0.52397  0.36697  1.0000
  N   N9        1.0  0.08637  0.50869  0.38402  1.0000
  H   H222      1.0  0.10587  0.68416  0.48850  1.0000
  N   N10       1.0  0.24659  0.57669  0.25809  1.0000
  C   C132      1.0  0.23689  0.55757  0.24785  1.0000
  H   H223      1.0  0.06381  0.51278  0.33844  1.0000
  H   H224      1.0  0.22716  0.58450  0.23886  1.0000
  C   C133      1.0  0.00350  0.57862  0.01832  1.0000
  C   C134      1.0  0.24942  0.52911  0.29084  1.0000
  C   C135      1.0  0.09989  0.57323  0.01085  1.0000
  C   C136      1.0  0.08886  0.54125  0.01036  1.0000
  C   C137      1.0  0.02077  0.58189  0.01129  1.0000
  H   H225      1.0  0.10960  0.51043  0.32306  1.0000
  H   H226      1.0  0.09624  0.58629  0.49896  1.0000
  H   H227      1.0  0.22884  0.73285  0.25814  1.0000
  H   H228      1.0  0.00213  0.55219  0.06320  1.0000
  C   C138      1.0  0.15031  0.50340  0.50086  1.0000
  H   H229      1.0  0.12679  0.50319  0.44442  1.0000
  H   H230      1.0  0.09814  0.58486  0.00493  1.0000
  H   H231      1.0  0.04635  0.53620  0.00475  1.0000
  C   C139      1.0  0.14362  0.50300  0.37817  1.0000
  C   C140      1.0  0.00046  0.59082  0.03580  1.0000
  H   H232      1.0  0.10880  0.50286  0.37921  1.0000
  H   H233      1.0  0.20756  0.65613  0.70907  1.0000
  S   S43       1.0  0.09347  0.61718  0.56207  1.0000
  H   H234      1.0  0.06523  0.57089  0.52680  1.0000
  C   C141      1.0  0.01962  0.53177  0.99378  1.0000
  H   H235      1.0  0.04466  0.61208  0.55510  1.0000
  S   S44       1.0  0.13804  0.66924  0.97965  1.0000
  H   H236      1.0  0.05589  0.51992  0.54110  1.0000
  H   H237      1.0  0.17394  0.64903  0.96554  1.0000
  Fe  Fe21      1.0  0.11220  0.64581  0.57081  1.0000
  S   S45       1.0  0.11589  0.65950  0.61523  1.0000
  C   C142      1.0  0.08697  0.55648  0.00229  1.0000
  H   H238      1.0  0.24547  0.67422  0.78314  1.0000
  H   H239      1.0  0.11415  0.60736  0.94545  1.0000
  H   H240      1.0  0.01647  0.53446  0.56044  1.0000
  H   H241      1.0  0.08057  0.57696  0.56947  1.0000
  C   C143      1.0  0.02837  0.54710  0.56523  1.0000
  S   S46       1.0  0.18715  0.52785  0.72683  1.0000
  N   N11       1.0  0.03943  0.55245  0.53908  1.0000
  Fe  Fe22      1.0  0.16600  0.52299  0.80231  1.0000
  S   S47       1.0  0.19436  0.54144  0.79557  1.0000
  H   H242      1.0  0.16728  0.60166  0.93657  1.0000
  Fe  Fe23      1.0  0.18411  0.54872  0.75481  1.0000
  S   S48       1.0  0.19012  0.57582  0.73740  1.0000
  Fe  Fe24      1.0  0.19532  0.51913  0.76863  1.0000
  H   H243      1.0  0.17774  0.62233  0.95538  1.0000
  S   S49       1.0  0.15583  0.53216  0.76333  1.0000
  Fe  Fe25      1.0  0.17287  0.67478  0.81916  1.0000
  S   S50       1.0  0.20105  0.68487  0.83586  1.0000
  S   S51       1.0  0.14753  0.66321  0.84402  1.0000
  Fe  Fe26      1.0  0.18275  0.67338  0.75527  1.0000
  S   S52       1.0  0.21162  0.68336  0.76794  1.0000
  S   S53       1.0  0.17469  0.66194  0.70909  1.0000
  Fe  Fe27      1.0  0.20265  0.66469  0.80451  1.0000
  S   S54       1.0  0.21392  0.64525  0.81659  1.0000
  Fe  Fe28      1.0  0.20777  0.70290  0.79771  1.0000
  S   S55       1.0  0.22529  0.73292  0.79984  1.0000
  S   S56       1.0  0.17436  0.65361  0.79027  1.0000
  S   S57       1.0  0.17915  0.69406  0.78276  1.0000
  C   C144      1.0  0.01637  0.59716  0.54961  1.0000
  H   H244      1.0  0.13302  0.57227  0.65389  1.0000
  H   H245      1.0  0.04849  0.52753  0.57160  1.0000
  N   N12       1.0  0.24341  0.64857  0.73704  1.0000
  C   C145      1.0  0.15374  0.58402  0.68649  1.0000
  H   H246      1.0  0.16559  0.64836  0.92064  1.0000
  H   H247      1.0  0.02285  0.52711  0.97313  1.0000
  C   C146      1.0  0.19410  0.59346  0.76230  1.0000
  C   C147      1.0  0.20405  0.59541  0.78807  1.0000
  C   C148      1.0  0.20954  0.61110  0.80523  1.0000
  C   C149      1.0  0.20483  0.62473  0.79703  1.0000
  C   C150      1.0  0.19421  0.62238  0.77194  1.0000
  C   C151      1.0  0.18903  0.60690  0.75451  1.0000
  H   H248      1.0  0.20816  0.58519  0.79412  1.0000
  H   H249      1.0  0.21777  0.61283  0.82459  1.0000
  H   H250      1.0  0.19065  0.63283  0.76513  1.0000
  H   H251      1.0  0.18149  0.60559  0.73452  1.0000
  H   H252      1.0  0.14504  0.58314  0.70442  1.0000
  H   H253      1.0  0.22258  0.50442  0.84085  1.0000
  H   H254      1.0  0.11474  0.59477  0.91372  1.0000
  H   H255      1.0  0.01669  0.55695  0.59848  1.0000
  H   H256      1.0  0.01395  0.54130  0.98859  1.0000
  C   C152      1.0  0.05592  0.56942  0.54410  1.0000
  H   H257      1.0  0.24508  0.64215  0.67818  1.0000
  H   H258      1.0  0.14339  0.52984  0.90148  1.0000
  H   H259      1.0  0.14950  0.60895  0.90149  1.0000
  H   H260      1.0  0.12694  0.52473  0.65005  1.0000
  H   H261      1.0  0.17886  0.63607  0.91491  1.0000
  H   H262      1.0  0.21348  0.53627  0.89179  1.0000
  C   C153      1.0  0.03370  0.60495  0.53995  1.0000
  C   C154      1.0  0.13244  0.66029  0.64100  1.0000
  C   C155      1.0  0.14143  0.64958  0.63776  1.0000
  C   C156      1.0  0.15424  0.65025  0.65888  1.0000
  C   C157      1.0  0.15833  0.66170  0.68338  1.0000
  C   C158      1.0  0.14955  0.67262  0.68643  1.0000
  C   C159      1.0  0.13651  0.67173  0.66554  1.0000
  H   H263      1.0  0.13848  0.64073  0.61899  1.0000
  H   H264      1.0  0.16108  0.64189  0.65609  1.0000
  H   H265      1.0  0.15311  0.68203  0.70445  1.0000
  H   H266      1.0  0.12980  0.68024  0.66805  1.0000
  C   C160      1.0  0.14081  0.66659  0.94220  1.0000
  C   C161      1.0  0.15619  0.67859  0.92970  1.0000
  C   C162      1.0  0.15870  0.67742  0.89991  1.0000
  C   C163      1.0  0.14566  0.66444  0.88208  1.0000
  C   C164      1.0  0.13031  0.65238  0.89458  1.0000
  C   C165      1.0  0.12796  0.65331  0.92448  1.0000
  H   H267      1.0  0.16617  0.68898  0.94312  1.0000
  H   H268      1.0  0.17053  0.68688  0.89065  1.0000
  H   H269      1.0  0.12007  0.64235  0.88101  1.0000
  H   H270      1.0  0.11598  0.64412  0.93367  1.0000
  H   H271      1.0  0.10475  0.52669  0.71823  1.0000
  H   H272      1.0  0.16546  0.63865  0.88642  1.0000
  H   H273      1.0  0.21858  0.53013  0.82791  1.0000
  C   C166      1.0  0.10926  0.57420  0.52585  1.0000
  H   H274      1.0  0.20208  0.51240  0.93557  1.0000
  S   S58       1.0  0.12340  0.59395  0.54405  1.0000
  H   H275      1.0  0.13846  0.62221  0.91154  1.0000
  H   H276      1.0  0.10480  0.58363  0.94542  1.0000
  H   H277      1.0  0.22127  0.64961  0.68800  1.0000
  H   H278      1.0  0.11970  0.55038  0.61182  1.0000
  H   H279      1.0  0.01416  0.59841  0.57222  1.0000
  H   H280      1.0  0.13959  0.63265  0.95918  1.0000
  H   H281      1.0  0.24081  0.64249  0.78250  1.0000
  N   N13       1.0  0.11839  0.64589  0.76100  1.0000
  C   C167      1.0  0.12405  0.63141  0.76862  1.0000
  C   C168      1.0  0.10709  0.64707  0.78483  1.0000
  C   C169      1.0  0.13481  0.66302  0.76099  1.0000
  C   C170      1.0  0.10899  0.64152  0.73157  1.0000
  C   C171      1.0  0.13508  0.62706  0.74636  1.0000
  C   C172      1.0  0.08981  0.63040  0.78846  1.0000
  C   C173      1.0  0.13236  0.67992  0.75420  1.0000
  C   C174      1.0  0.09665  0.65053  0.72377  1.0000
  H   H282      1.0  0.13166  0.63460  0.78982  1.0000
  H   H283      1.0  0.11246  0.61862  0.77129  1.0000
  H   H284      1.0  0.10342  0.65828  0.78240  1.0000
  H   H285      1.0  0.11468  0.65006  0.80603  1.0000
  H   H286      1.0  0.14212  0.66550  0.78232  1.0000
  H   H287      1.0  0.14401  0.66228  0.74499  1.0000
  H   H288      1.0  0.11874  0.64466  0.71438  1.0000
  H   H289      1.0  0.10074  0.62697  0.72902  1.0000
  H   H290      1.0  0.13801  0.61605  0.75438  1.0000
  H   H291      1.0  0.12799  0.62260  0.72503  1.0000
  H   H292      1.0  0.14794  0.63827  0.74352  1.0000
  H   H293      1.0  0.08122  0.63392  0.80250  1.0000
  H   H294      1.0  0.08238  0.62500  0.76768  1.0000
  H   H295      1.0  0.09231  0.61993  0.79959  1.0000
  H   H296      1.0  0.14545  0.69142  0.75552  1.0000
  H   H297      1.0  0.12433  0.68294  0.76998  1.0000
  H   H298      1.0  0.12706  0.67944  0.73182  1.0000
  H   H299      1.0  0.09937  0.65580  0.70170  1.0000
  H   H300      1.0  0.09792  0.66174  0.73814  1.0000
  H   H301      1.0  0.08269  0.64062  0.72266  1.0000
  C   C175      1.0  0.22963  0.65576  0.73453  1.0000
  H   H302      1.0  0.24735  0.75514  0.72737  1.0000
  H   H303      1.0  0.10625  0.54323  0.64266  1.0000
  C   C176      1.0  0.02816  0.55517  0.51519  1.0000
  C   C177      1.0  0.24771  0.61964  0.73268  1.0000
  Fe  Fe29      1.0  0.15925  0.51078  0.73762  1.0000
  H   H304      1.0  0.06494  0.58243  0.58696  1.0000
  H   H305      1.0  0.13054  0.55405  0.71473  1.0000
  H   H306      1.0  0.16117  0.60614  0.00106  1.0000
  C   C178      1.0  0.06630  0.57199  0.57341  1.0000
  C   C179      1.0  0.14217  0.50941  0.87111  1.0000
  H   H307      1.0  0.05275  0.58111  0.54217  1.0000
  H   H308      1.0  0.14034  0.61942  0.98794  1.0000
  H   H309      1.0  0.23403  0.53378  0.85843  1.0000
  C   C180      1.0  0.02192  0.56073  0.57673  1.0000
  H   H310      1.0  0.01238  0.61517  0.98314  1.0000
  H   H311      1.0  0.22197  0.65309  0.75439  1.0000
  C   C181      1.0  0.04371  0.53739  0.52935  1.0000
  H   H312      1.0  0.19778  0.53472  0.86380  1.0000
  H   H313      1.0  0.24801  0.77247  0.70486  1.0000
  C   C182      1.0  0.22260  0.53600  0.85001  1.0000
  Fe  Fe30      1.0  0.08542  0.62595  0.52064  1.0000
  H   H314      1.0  0.00324  0.62663  0.96057  1.0000
  H   H315      1.0  0.16133  0.65086  0.99434  1.0000
  H   H316      1.0  0.16049  0.51149  0.66115  1.0000
  N   N14       1.0  0.14948  0.61327  0.94766  1.0000
  C   C183      1.0  0.13349  0.59575  0.94889  1.0000
  C   C184      1.0  0.16549  0.60986  0.95433  1.0000
  C   C185      1.0  0.15010  0.61953  0.91715  1.0000
  C   C186      1.0  0.14768  0.62630  0.96897  1.0000
  C   C187      1.0  0.11587  0.59558  0.93769  1.0000
  H   H317      1.0  0.01088  0.56077  0.56284  1.0000
  C   C188      1.0  0.16609  0.63660  0.91000  1.0000
  H   H318      1.0  0.15626  0.58595  0.98037  1.0000
  H   H319      1.0  0.13535  0.58515  0.93640  1.0000
  H   H320      1.0  0.13144  0.59117  0.97147  1.0000
  C   C189      1.0  0.24865  0.50784  0.78428  1.0000
  H   H321      1.0  0.11486  0.55290  0.68754  1.0000
  H   H322      1.0  0.24699  0.77034  0.80118  1.0000
  H   H323      1.0  0.06293  0.56004  0.58618  1.0000
  S   S59       1.0  0.15677  0.52505  0.84762  1.0000
  H   H324      1.0  0.17590  0.56720  0.66368  1.0000
  H   H325      1.0  0.01541  0.54321  0.51178  1.0000
  C   C190      1.0  0.13813  0.51570  0.89693  1.0000
  C   C191      1.0  0.16954  0.55278  0.66729  1.0000
  H   H326      1.0  0.24008  0.60534  0.72670  1.0000
  H   H327      1.0  0.15769  0.59734  0.67734  1.0000
  C   C192      1.0  0.11500  0.54017  0.62850  1.0000
  H   H328      1.0  0.12203  0.52108  0.70769  1.0000
  C   C193      1.0  0.21563  0.64843  0.70941  1.0000
  C   C194      1.0  0.13067  0.53881  0.64506  1.0000
  H   H329      1.0  0.22831  0.62516  0.70918  1.0000
  S   S60       1.0  0.13464  0.64404  0.54845  1.0000
  C   C195      1.0  0.03671  0.60378  0.51069  1.0000
  C   C196      1.0  0.11012  0.55833  0.53301  1.0000
  H   H330      1.0  0.15319  0.57238  0.64416  1.0000
  H   H331      1.0  0.03526  0.54408  0.58365  1.0000
  C   C197      1.0  0.18434  0.50623  0.89629  1.0000
  H   H332      1.0  0.17860  0.60127  0.98821  1.0000
  H   H333      1.0  0.07548  0.55535  0.98955  1.0000
  N   N15       1.0  0.19811  0.50958  0.87415  1.0000
  C   C198      1.0  0.11352  0.52756  0.70036  1.0000
  H   H334      1.0  0.14842  0.50624  0.52356  1.0000
  N   N16       1.0  0.13804  0.55081  0.67150  1.0000
  H   H335      1.0  0.16687  0.54523  0.64644  1.0000
  C   C199      1.0  0.05467  0.53166  0.55068  1.0000
  H   H336      1.0  0.17182  0.63632  0.99741  1.0000
  Fe  Fe31      1.0  0.12377  0.65107  0.50791  1.0000
  C   C200      1.0  0.14429  0.56973  0.66247  1.0000
  C   C201      1.0  0.12431  0.54723  0.69370  1.0000
  S   S61       1.0  0.10533  0.62029  0.99742  1.0000
  C   C202      1.0  0.09863  0.54235  0.51908  1.0000
  S   S62       1.0  0.21600  0.50796  0.77524  1.0000
  H   H337      1.0  0.15520  0.51370  0.60850  1.0000
  H   H338      1.0  0.03259  0.57433  0.57888  1.0000
  C   C203      1.0  0.14732  0.50490  0.65142  1.0000
  H   H339      1.0  0.14849  0.53310  0.68927  1.0000
  C   C204      1.0  0.19101  0.51498  0.92658  1.0000
  C   C205      1.0  0.12731  0.50391  0.91700  1.0000
  C   C206      1.0  0.20742  0.52937  0.87084  1.0000
  C   C207      1.0  0.14427  0.50606  0.62154  1.0000
  C   C208      1.0  0.24908  0.53675  0.77793  1.0000
  C   C209      1.0  0.15292  0.54740  0.68496  1.0000
  C   C210      1.0  0.00188  0.58774  0.53035  1.0000
  H   H340      1.0  0.14091  0.54154  0.62892  1.0000
  S   S63       1.0  0.07204  0.52043  0.00082  1.0000
  H   H341      1.0  0.22464  0.62217  0.74605  1.0000
  H   H342      1.0  0.15717  0.55418  0.70659  1.0000
  Fe  Fe32      1.0  0.11540  0.61616  0.53703  1.0000
  C   C211      1.0  0.23944  0.51841  0.77949  1.0000
  S   S64       1.0  0.10239  0.65501  0.53105  1.0000
  H   H343      1.0  0.20637  0.63445  0.71259  1.0000
  C   C212      1.0  0.23515  0.62882  0.73078  1.0000
  H   H344      1.0  0.11957  0.55836  0.54956  1.0000
  H   H345      1.0  0.17937  0.54967  0.67978  1.0000
  H   H346      1.0  0.16593  0.58340  0.69519  1.0000
  H   H347      1.0  0.12430  0.50900  0.93669  1.0000
  H   H348      1.0  0.22049  0.51132  0.90090  1.0000
  H   H349      1.0  0.10662  0.52713  0.61768  1.0000
  H   H350      1.0  0.17944  0.50722  0.83921  1.0000
  H   H351      1.0  0.10495  0.51992  0.68159  1.0000
  H   H352      1.0  0.23591  0.67046  0.73305  1.0000
  H   H353      1.0  0.22728  0.55055  0.84804  1.0000
  H   H354      1.0  0.06831  0.54207  0.55387  1.0000
  H   H355      1.0  0.05137  0.54076  0.50958  1.0000
  C   C213      1.0  0.16522  0.60029  0.98268  1.0000
  H   H356      1.0  0.19469  0.52945  0.92658  1.0000
  C   C214      1.0  0.16480  0.64135  0.98190  1.0000
  H   H357      1.0  0.02460  0.56618  0.52113  1.0000
  H   H358      1.0  0.09914  0.53011  0.52519  1.0000
  H   H359      1.0  0.03140  0.52538  0.52336  1.0000
  C   C215      1.0  0.24852  0.74516  0.79855  1.0000
  H   H360      1.0  0.18008  0.50937  0.94157  1.0000
  H   H361      1.0  0.24224  0.54508  0.77434  1.0000
  H   H362      1.0  0.02291  0.57270  0.99697  1.0000
  H   H363      1.0  0.17426  0.51073  0.88846  1.0000
  H   H364      1.0  0.00934  0.51983  0.00263  1.0000
  H   H365      1.0  0.19730  0.50349  0.82800  1.0000
  C   C216      1.0  0.09701  0.57411  0.50451  1.0000
  Fe  Fe33      1.0  0.46933  0.06605  0.04998  1.0000
  S   S65       1.0  0.45598  0.08454  0.04571  1.0000
  H   H366      1.0  0.45696  0.42512  0.48619  1.0000
  H   H367      1.0  0.45216  0.37684  0.10481  1.0000
  C   C217      1.0  0.43757  0.39879  0.15300  1.0000
  Fe  Fe34      1.0  0.47536  0.10124  0.08159  1.0000
  S   S66       1.0  0.46729  0.11324  0.11986  1.0000
  H   H368      1.0  0.46227  0.36541  0.41597  1.0000
  H   H369      1.0  0.33871  0.49358  0.02447  1.0000
  C   C218      1.0  0.35568  0.49588  0.12189  1.0000
  C   C219      1.0  0.47653  0.17727  0.37566  1.0000
  H   H370      1.0  0.42154  0.39471  0.38884  1.0000
  H   H371      1.0  0.48801  0.31581  0.19227  1.0000
  H   H372      1.0  0.46445  0.41102  0.42962  1.0000
  H   H373      1.0  0.46262  0.17305  0.38142  1.0000
  C   C220      1.0  0.32905  0.44193  0.27006  1.0000
  H   H374      1.0  0.45452  0.36659  0.15572  1.0000
  H   H375      1.0  0.43874  0.36258  0.44774  1.0000
  H   H376      1.0  0.49156  0.19203  0.33887  1.0000
  H   H377      1.0  0.49038  0.31625  0.23039  1.0000
  Fe  Fe35      1.0  0.38082  0.49229  0.06244  1.0000
  S   S67       1.0  0.40297  0.48668  0.08153  1.0000
  H   H378      1.0  0.46652  0.43660  0.45465  1.0000
  H   H379      1.0  0.47425  0.09104  0.21407  1.0000
  Fe  Fe36      1.0  0.40010  0.47069  0.04022  1.0000
  H   H380      1.0  0.43957  0.39045  0.07022  1.0000
  H   H381      1.0  0.43297  0.03520  0.00448  1.0000
  S   S68       1.0  0.40135  0.44393  0.03565  1.0000
  H   H382      1.0  0.46935  0.12869  0.28309  1.0000
  H   H383      1.0  0.45994  0.37660  0.46291  1.0000
  H   H384      1.0  0.45030  0.37856  0.18545  1.0000
  H   H385      1.0  0.35373  0.44224  0.36031  1.0000
  N   N17       1.0  0.48903  0.18736  0.40059  1.0000
  Fe  Fe37      1.0  0.48151  0.41206  0.04578  1.0000
  S   S69       1.0  0.47311  0.43478  0.05125  1.0000
  H   H386      1.0  0.46946  0.07051  0.23037  1.0000
  S   S70       1.0  0.46624  0.38252  0.03902  1.0000
  C   C221      1.0  0.49425  0.22036  0.39505  1.0000
  C   C222      1.0  0.42144  0.44158  0.03935  1.0000
  H   H387      1.0  0.44446  0.40834  0.17131  1.0000
  C   C223      1.0  0.48294  0.12218  0.24816  1.0000
  C   C224      1.0  0.45298  0.43687  0.04574  1.0000
  C   C225      1.0  0.45290  0.45352  0.05124  1.0000
  C   C226      1.0  0.43728  0.45590  0.04795  1.0000
  H   H388      1.0  0.46835  0.38840  0.41184  1.0000
  H   H389      1.0  0.41183  0.36513  0.47247  1.0000
  H   H390      1.0  0.46503  0.46465  0.05827  1.0000
  H   H391      1.0  0.43745  0.46877  0.05248  1.0000
  H   H392      1.0  0.35292  0.45878  0.38528  1.0000
  S   S71       1.0  0.48919  0.08091  0.01757  1.0000
  C   C227      1.0  0.42149  0.42494  0.03364  1.0000
  C   C228      1.0  0.48543  0.20275  0.41102  1.0000
  C   C229      1.0  0.46999  0.08394  0.23428  1.0000
  H   H393      1.0  0.44669  0.37174  0.39903  1.0000
  H   H394      1.0  0.42812  0.35989  0.49206  1.0000
  H   H395      1.0  0.49146  0.31744  0.13581  1.0000
  H   H396      1.0  0.31613  0.44864  0.33048  1.0000
  H   H397      1.0  0.49173  0.13665  0.24784  1.0000
  H   H398      1.0  0.48723  0.35922  0.46768  1.0000
  H   H399      1.0  0.32737  0.42872  0.26158  1.0000
  Fe  Fe38      1.0  0.48562  0.38026  0.07231  1.0000
  H   H400      1.0  0.48541  0.22723  0.39495  1.0000
  H   H401      1.0  0.46861  0.41176  0.10058  1.0000
  S   S72       1.0  0.48695  0.08156  0.08795  1.0000
  H   H402      1.0  0.49025  0.16400  0.41880  1.0000
  C   C230      1.0  0.35021  0.47869  0.29470  1.0000
  H   H403      1.0  0.46416  0.13262  0.16980  1.0000
  C   C231      1.0  0.43359  0.39882  0.40321  1.0000
  N   N18       1.0  0.34231  0.46327  0.31427  1.0000
  S   S73       1.0  0.49949  0.40959  0.08120  1.0000
  H   H404      1.0  0.41979  0.41161  0.15652  1.0000
  N   N19       1.0  0.44371  0.39036  0.45228  1.0000
  H   H405      1.0  0.42059  0.38584  0.09154  1.0000
  H   H406      1.0  0.49442  0.18148  0.44449  1.0000
  H   H407      1.0  0.47303  0.08890  0.27996  1.0000
  H   H408      1.0  0.45854  0.12542  0.24823  1.0000
  S   S74       1.0  0.49786  0.14600  0.35104  1.0000
  N   N20       1.0  0.45051  0.39723  0.13264  1.0000
  C   C232      1.0  0.48378  0.35187  0.16377  1.0000
  C   C233      1.0  0.35666  0.48328  0.16866  1.0000
  H   H409      1.0  0.47221  0.33961  0.15921  1.0000
  C   C234      1.0  0.45715  0.37573  0.41645  1.0000
  Fe  Fe39      1.0  0.48634  0.38423  0.00634  1.0000
  H   H410      1.0  0.31570  0.44131  0.27242  1.0000
  C   C235      1.0  0.43104  0.38165  0.08646  1.0000
  H   H411      1.0  0.44313  0.42344  0.45461  1.0000
  C   C236      1.0  0.45929  0.40815  0.45154  1.0000
  H   H412      1.0  0.47233  0.44207  0.11567  1.0000
  H   H413      1.0  0.46725  0.15831  0.45506  1.0000
  H   H414      1.0  0.47050  0.40821  0.46519  1.0000
  H   H415      1.0  0.38339  0.49580  0.43856  1.0000
  C   C237      1.0  0.42871  0.38869  0.43157  1.0000
  H   H416      1.0  0.36028  0.47458  0.18172  1.0000
  H   H417      1.0  0.47568  0.39561  0.13639  1.0000
  C   C238      1.0  0.49244  0.12601  0.43176  1.0000
  C   C239      1.0  0.48966  0.12866  0.40232  1.0000
  H   H418      1.0  0.43050  0.38604  0.16382  1.0000
  C   C240      1.0  0.37391  0.49944  0.42741  1.0000
  H   H419      1.0  0.48247  0.11535  0.44286  1.0000
  H   H420      1.0  0.47747  0.11998  0.39100  1.0000
  C   C241      1.0  0.32460  0.46201  0.32269  1.0000
  H   H421      1.0  0.47169  0.37964  0.18123  1.0000
  S   S75       1.0  0.35452  0.48992  0.47678  1.0000
  H   H422      1.0  0.47917  0.11814  0.22519  1.0000
  H   H423      1.0  0.45849  0.15504  0.41885  1.0000
  H   H424      1.0  0.33386  0.44514  0.36405  1.0000
  C   C242      1.0  0.48949  0.36473  0.14250  1.0000
  H   H425      1.0  0.42476  0.02677  0.06090  1.0000
  H   H426      1.0  0.45941  0.43375  0.14631  1.0000
  H   H427      1.0  0.44335  0.39612  0.39110  1.0000
  H   H428      1.0  0.32927  0.47302  0.36747  1.0000
  C   C243      1.0  0.42300  0.40366  0.14016  1.0000
  C   C244      1.0  0.34794  0.49265  0.18126  1.0000
  C   C245      1.0  0.44197  0.38072  0.11334  1.0000
  H   H429      1.0  0.33363  0.48943  0.34029  1.0000
  H   H430      1.0  0.31704  0.46360  0.30352  1.0000
  H   H431      1.0  0.45621  0.08173  0.23788  1.0000
  H   H432      1.0  0.33588  0.45162  0.25348  1.0000
  H   H433      1.0  0.42671  0.41210  0.12119  1.0000
  H   H434      1.0  0.43323  0.36925  0.12577  1.0000
  C   C246      1.0  0.49589  0.31374  0.21029  1.0000
  H   H435      1.0  0.36747  0.47780  0.12991  1.0000
  H   H436      1.0  0.42451  0.36823  0.07587  1.0000
  C   C247      1.0  0.35872  0.49772  0.44111  1.0000
  S   S76       1.0  0.40335  0.49940  0.50257  1.0000
  H   H437      1.0  0.48740  0.33792  0.42948  1.0000
  C   C248      1.0  0.47796  0.13565  0.16825  1.0000
  S   S77       1.0  0.49810  0.39773  0.46709  1.0000
  H   H438      1.0  0.35835  0.47966  0.35067  1.0000
  H   H439      1.0  0.31153  0.47493  0.34772  1.0000
  S   S78       1.0  0.35981  0.49808  0.08447  1.0000
  H   H440      1.0  0.42040  0.37449  0.42549  1.0000
  H   H441      1.0  0.35264  0.44578  0.29539  1.0000
  C   C249      1.0  0.44260  0.01566  0.04867  1.0000
  S   S79       1.0  0.47711  0.36095  0.10916  1.0000
  H   H442      1.0  0.48764  0.34533  0.20775  1.0000
  H   H443      1.0  0.46927  0.17753  0.33039  1.0000
  H   H444      1.0  0.41082  0.39154  0.13447  1.0000
  C   C250      1.0  0.44973  0.37595  0.44626  1.0000
  H   H445      1.0  0.40933  0.41378  0.02689  1.0000
  H   H446      1.0  0.49078  0.08575  0.26506  1.0000
  H   H447      1.0  0.36752  0.46692  0.33370  1.0000
  C   C251      1.0  0.32500  0.47570  0.34586  1.0000
  H   H448      1.0  0.47101  0.19899  0.41041  1.0000
  H   H449      1.0  0.41959  0.39337  0.44204  1.0000
  C   C252      1.0  0.42272  0.36988  0.48922  1.0000
  H   H450      1.0  0.45743  0.10648  0.26746  1.0000
  C   C253      1.0  0.36075  0.48508  0.13925  1.0000
  C   C254      1.0  0.34835  0.45222  0.36355  1.0000
  H   H451      1.0  0.47798  0.16484  0.37048  1.0000
  H   H452      1.0  0.47172  0.40717  0.16583  1.0000
  H   H453      1.0  0.35281  0.49132  0.30645  1.0000
  C   C255      1.0  0.42628  0.01470  0.05659  1.0000
  C   C256      1.0  0.45608  0.42415  0.46226  1.0000
  C   C257      1.0  0.46609  0.12040  0.26282  1.0000
  S   S80       1.0  0.49552  0.11823  0.05115  1.0000
  H   H454      1.0  0.49006  0.20614  0.43409  1.0000
  H   H455      1.0  0.43705  0.40976  0.03207  1.0000
  C   C258      1.0  0.49245  0.35190  0.42516  1.0000
  H   H456      1.0  0.33290  0.43473  0.31316  1.0000
  H   H457      1.0  0.37140  0.49230  0.26616  1.0000
  C   C259      1.0  0.46518  0.39562  0.15049  1.0000
  H   H458      1.0  0.43859  0.41334  0.40713  1.0000
  Fe  Fe40      1.0  0.47734  0.10041  0.01573  1.0000
  H   H459      1.0  0.48484  0.11509  0.30540  1.0000
  C   C260      1.0  0.48198  0.09257  0.26160  1.0000
  N   N21       1.0  0.49267  0.11242  0.26201  1.0000
  C   C261      1.0  0.47819  0.18703  0.34724  1.0000
  C   C262      1.0  0.48331  0.12809  0.14529  1.0000
  C   C263      1.0  0.45885  0.41333  0.11459  1.0000
  S   S81       1.0  0.46097  0.03613  0.04292  1.0000
  H   H460      1.0  0.37863  0.48518  0.29795  1.0000
  C   C264      1.0  0.43719  0.42259  0.03670  1.0000
  H   H461      1.0  0.48041  0.43243  0.14314  1.0000
  H   H462      1.0  0.44929  0.41489  0.09912  1.0000
  H   H463      1.0  0.47387  0.19786  0.34927  1.0000
  S   S82       1.0  0.34241  0.48947  0.21807  1.0000
  H   H464      1.0  0.48607  0.15295  0.20659  1.0000
  H   H465      1.0  0.43201  0.39801  0.48805  1.0000
  C   C265      1.0  0.36769  0.48126  0.28137  1.0000
  C   C266      1.0  0.49035  0.14715  0.18917  1.0000
  H   H466      1.0  0.34077  0.47783  0.27663  1.0000
  C   C267      1.0  0.46820  0.43126  0.13138  1.0000
  C   C268      1.0  0.33977  0.44615  0.29917  1.0000
  C   C269      1.0  0.35468  0.46637  0.34025  1.0000
  C   C270      1.0  0.43734  0.38819  0.48266  1.0000
  S   S83       1.0  0.37623  0.47436  0.02283  1.0000
  C   C271      1.0  0.45979  0.37907  0.16909  1.0000
  C   C272      1.0  0.49235  0.36394  0.44687  1.0000
  H   H467      1.0  0.49531  0.30130  0.15581  1.0000
  C   C273      1.0  0.49701  0.11915  0.29306  1.0000
  S   S84       1.0  0.41920  0.49329  0.01609  1.0000
  H   H468      1.0  0.46143  0.17485  0.43985  1.0000
  H   H469      1.0  0.36662  0.46949  0.26851  1.0000
  H   H470      1.0  0.49398  0.29975  0.21078  1.0000
  C   C274      1.0  0.48612  0.17464  0.42487  1.0000
  H   H471      1.0  0.44849  0.39094  0.49866  1.0000
  C   C275      1.0  0.46713  0.16534  0.43493  1.0000
  C   C276      1.0  0.49258  0.35500  0.19123  1.0000
  H   H472      1.0  0.49707  0.21908  0.37227  1.0000
  C   C277      1.0  0.49867  0.38200  0.44137  1.0000
  H   H473      1.0  0.33448  0.50073  0.43627  1.0000
  C   C278      1.0  0.49906  0.35779  0.39794  1.0000
  C   C279      1.0  0.34634  0.50212  0.42596  1.0000
  S   S85       1.0  0.49883  0.34209  0.37134  1.0000
  H   H474      1.0  0.49999  0.11540  0.20180  1.0000
  Fe  Fe41      1.0  0.47450  0.08099  0.54904  1.0000
  S   S86       1.0  0.47442  0.10810  0.54335  1.0000
  Fe  Fe42      1.0  0.49920  0.11503  0.51902  1.0000
  H   H475      1.0  0.39766  0.44463  0.67582  1.0000
  C   C280      1.0  0.41521  0.41623  0.54101  1.0000
  C   C281      1.0  0.42627  0.01141  0.97821  1.0000
  H   H476      1.0  0.41960  0.01692  0.63312  1.0000
  C   C282      1.0  0.49437  0.36091  0.64020  1.0000
  S   S87       1.0  0.47163  0.10695  0.96979  1.0000
  S   S88       1.0  0.48997  0.08892  0.59185  1.0000
  H   H477      1.0  0.43376  0.01020  0.61235  1.0000
  C   C283      1.0  0.43014  0.42712  0.62843  1.0000
  S   S89       1.0  0.49802  0.08750  0.52175  1.0000
  H   H478      1.0  0.47190  0.03965  0.56721  1.0000
  H   H479      1.0  0.48948  0.11192  0.66037  1.0000
  C   C284      1.0  0.40937  0.03026  0.92723  1.0000
  C   C285      1.0  0.49950  0.13985  0.96330  1.0000
  H   H480      1.0  0.41942  0.49097  0.95241  1.0000
  H   H481      1.0  0.36322  0.45186  0.96517  1.0000
  N   N22       1.0  0.49539  0.29744  0.69956  1.0000
  H   H482      1.0  0.38710  0.42458  0.94616  1.0000
  C   C286      1.0  0.46687  0.17383  0.86463  1.0000
  C   C287      1.0  0.48199  0.36149  0.68670  1.0000
  C   C288      1.0  0.45596  0.04327  0.96050  1.0000
  Fe  Fe43      1.0  0.40324  0.47665  0.52861  1.0000
  H   H483      1.0  0.49256  0.18125  0.97749  1.0000
  N   N23       1.0  0.48743  0.19344  0.90686  1.0000
  H   H484      1.0  0.32930  0.46688  0.99505  1.0000
  H   H485      1.0  0.44131  0.49289  0.95335  1.0000
  Fe  Fe44      1.0  0.37465  0.48899  0.51055  1.0000
  C   C289      1.0  0.42050  0.01008  0.61300  1.0000
  H   H486      1.0  0.46637  0.00837  0.57584  1.0000
  C   C290      1.0  0.42433  0.06491  0.97619  1.0000
  Fe  Fe45      1.0  0.46321  0.39881  0.55412  1.0000
  S   S90       1.0  0.43623  0.39928  0.55496  1.0000
  C   C291      1.0  0.43062  0.01878  0.53638  1.0000
  S   S91       1.0  0.46725  0.37519  0.53685  1.0000
  H   H487      1.0  0.47604  0.26961  0.73836  1.0000
  C   C292      1.0  0.42570  0.44680  0.52619  1.0000
  C   C293      1.0  0.48372  0.12425  0.91950  1.0000
  H   H488      1.0  0.36814  0.43315  0.96866  1.0000
  C   C294      1.0  0.43254  0.41779  0.54395  1.0000
  C   C295      1.0  0.44644  0.43393  0.53798  1.0000
  H   H489      1.0  0.47425  0.22560  0.92929  1.0000
  C   C296      1.0  0.36516  0.48770  0.64314  1.0000
  C   C297      1.0  0.39406  0.45184  0.65880  1.0000
  H   H490      1.0  0.41688  0.06474  0.95592  1.0000
  H   H491      1.0  0.40141  0.42385  0.59189  1.0000
  C   C298      1.0  0.49038  0.36694  0.90702  1.0000
  H   H492      1.0  0.36401  0.47826  0.93850  1.0000
  H   H493      1.0  0.43873  0.01090  0.98588  1.0000
  H   H494      1.0  0.47320  0.11284  0.90885  1.0000
  H   H495      1.0  0.39445  0.45897  0.98363  1.0000
  N   N24       1.0  0.43800  0.04342  0.96050  1.0000
  C   C299      1.0  0.39090  0.45805  0.96013  1.0000
  H   H496      1.0  0.45255  0.47672  0.59133  1.0000
  S   S92       1.0  0.37388  0.46492  0.53392  1.0000
  H   H497      1.0  0.45120  0.46665  0.62536  1.0000
  C   C300      1.0  0.48138  0.26556  0.71959  1.0000
  H   H498      1.0  0.49384  0.22380  0.94040  1.0000
  S   S93       1.0  0.49238  0.13780  0.61644  1.0000
  Fe  Fe46      1.0  0.49167  0.11627  0.58442  1.0000
  H   H499      1.0  0.43434  0.05101  0.91706  1.0000
  H   H500      1.0  0.38875  0.43924  0.90424  1.0000
  C   C301      1.0  0.47431  0.30849  0.67359  1.0000
  C   C302      1.0  0.44301  0.44826  0.52876  1.0000
  C   C303      1.0  0.41178  0.43066  0.53219  1.0000
  H   H501      1.0  0.41138  0.45292  0.89959  1.0000
  C   C304      1.0  0.36535  0.48564  0.67321  1.0000
  H   H502      1.0  0.41699  0.37089  0.51005  1.0000
  H   H503      1.0  0.46672  0.28382  0.69449  1.0000
  Fe  Fe47      1.0  0.49008  0.39533  0.51401  1.0000
  C   C305      1.0  0.36597  0.48868  0.92360  1.0000
  C   C306      1.0  0.39969  0.45222  0.91111  1.0000
  C   C307      1.0  0.48494  0.17905  0.95656  1.0000
  C   C308      1.0  0.49508  0.13810  0.90279  1.0000
  C   C309      1.0  0.49327  0.36778  0.93722  1.0000
  H   H504      1.0  0.47205  0.36313  0.69906  1.0000
  C   C310      1.0  0.35651  0.49902  0.87970  1.0000
  H   H505      1.0  0.45649  0.17855  0.86777  1.0000
  H   H506      1.0  0.44221  0.48282  0.61967  1.0000
  H   H507      1.0  0.34286  0.47296  0.89649  1.0000
  C   C311      1.0  0.49713  0.12688  0.70114  1.0000
  H   H508      1.0  0.47103  0.20621  0.89200  1.0000
  C   C312      1.0  0.48218  0.30291  0.74689  1.0000
  C   C313      1.0  0.35403  0.48570  0.89969  1.0000
  C   C314      1.0  0.40055  0.43464  0.95280  1.0000
  C   C315      1.0  0.42155  0.43851  0.64186  1.0000
  C   C316      1.0  0.42969  0.03894  0.93024  1.0000
  H   H509      1.0  0.42863  0.48642  0.92009  1.0000
  H   H510      1.0  0.35904  0.50153  0.60882  1.0000
  H   H511      1.0  0.47323  0.21059  0.95647  1.0000
  H   H512      1.0  0.40523  0.02959  0.90405  1.0000
  H   H513      1.0  0.44942  0.06602  0.99028  1.0000
  H   H514      1.0  0.41371  0.02902  0.98243  1.0000
  H   H515      1.0  0.44197  0.43515  0.61648  1.0000
  H   H516      1.0  0.42082  0.41619  0.61400  1.0000
  H   H517      1.0  0.46180  0.04497  0.98295  1.0000
  H   H518      1.0  0.42449  0.46524  0.97564  1.0000
  C   C317      1.0  0.42196  0.46548  0.95187  1.0000
  Fe  Fe48      1.0  0.48634  0.38063  0.57567  1.0000
  H   H519      1.0  0.47769  0.28480  0.66265  1.0000
  C   C318      1.0  0.47776  0.17512  0.89289  1.0000
  C   C319      1.0  0.49457  0.35699  0.70086  1.0000
  C   C320      1.0  0.45954  0.02896  0.55979  1.0000
  H   H520      1.0  0.31319  0.49698  0.95914  1.0000
  H   H521      1.0  0.46462  0.05748  0.91993  1.0000
  Fe  Fe49      1.0  0.38040  0.48247  0.57459  1.0000
  C   C321      1.0  0.28409  0.49361  0.71001  1.0000
  H   H522      1.0  0.46094  0.30336  0.66293  1.0000
  Fe  Fe50      1.0  0.39582  0.49815  0.00133  1.0000
  C   C322      1.0  0.44661  0.03291  0.54587  1.0000
  C   C323      1.0  0.46969  0.05747  0.94233  1.0000
  H   H523      1.0  0.41144  0.42961  0.65622  1.0000
  H   H524      1.0  0.40151  0.43427  0.97679  1.0000
  H   H525      1.0  0.39349  0.44684  0.56840  1.0000
  H   H526      1.0  0.36027  0.49417  0.71497  1.0000
  H   H527      1.0  0.43164  0.44870  0.65665  1.0000
  H   H528      1.0  0.38874  0.42343  0.62167  1.0000
  C   C324      1.0  0.47435  0.20108  0.91235  1.0000
  H   H529      1.0  0.49332  0.13726  0.87949  1.0000
  S   S94       1.0  0.42221  0.46521  0.51414  1.0000
  H   H530      1.0  0.39200  0.46275  0.66972  1.0000
  H   H531      1.0  0.43463  0.42087  0.64600  1.0000
  H   H532      1.0  0.40377  0.01642  0.93456  1.0000
  C   C325      1.0  0.42741  0.03033  0.98222  1.0000
  S   S95       1.0  0.49318  0.35311  0.73845  1.0000
  H   H533      1.0  0.48355  0.31674  0.65763  1.0000
  H   H534      1.0  0.41938  0.01806  0.59470  1.0000
  N   N25       1.0  0.41350  0.44693  0.62078  1.0000
  C   C326      1.0  0.42633  0.45671  0.59837  1.0000
  C   C327      1.0  0.39751  0.43246  0.60578  1.0000
  C   C328      1.0  0.40862  0.45991  0.63701  1.0000
  C   C329      1.0  0.44400  0.47149  0.60987  1.0000
  H   H535      1.0  0.46816  0.16594  0.90761  1.0000
  H   H536      1.0  0.42936  0.44734  0.58483  1.0000
  H   H537      1.0  0.42057  0.46316  0.58308  1.0000
  H   H538      1.0  0.42055  0.02166  0.52548  1.0000
  H   H539      1.0  0.42023  0.46984  0.64959  1.0000
  H   H540      1.0  0.40442  0.46775  0.62177  1.0000
  H   H541      1.0  0.42647  0.43377  0.95260  1.0000
  H   H542      1.0  0.39974  0.46998  0.87698  1.0000
  H   H543      1.0  0.46010  0.15968  0.85726  1.0000
  H   H544      1.0  0.40327  0.03771  0.93890  1.0000
  H   H545      1.0  0.49448  0.20574  0.86546  1.0000
  H   H546      1.0  0.49992  0.32285  0.71984  1.0000
  H   H547      1.0  0.33012  0.47792  0.96207  1.0000
  N   N26       1.0  0.40322  0.45288  0.94340  1.0000
  H   H548      1.0  0.35014  0.48181  0.98294  1.0000
  C   C330      1.0  0.44078  0.06184  0.97022  1.0000
  C   C331      1.0  0.49748  0.28090  0.70776  1.0000
  H   H549      1.0  0.36957  0.47607  0.68212  1.0000
  C   C332      1.0  0.42784  0.48496  0.94379  1.0000
  H   H550      1.0  0.36684  0.44166  0.93332  1.0000
  C   C333      1.0  0.48600  0.12492  0.94980  1.0000
  H   H551      1.0  0.47510  0.18094  0.84678  1.0000
  H   H552      1.0  0.47084  0.25913  0.70250  1.0000
  H   H553      1.0  0.40821  0.41302  0.94545  1.0000
  S   S96       1.0  0.49375  0.36163  0.60196  1.0000
  H   H554      1.0  0.46175  0.19039  0.91904  1.0000
  H   H555      1.0  0.44779  0.07164  0.95384  1.0000
  H   H556      1.0  0.47437  0.31693  0.69240  1.0000
  H   H557      1.0  0.45386  0.46063  0.52390  1.0000
  H   H558      1.0  0.48712  0.16917  0.88827  1.0000
  S   S97       1.0  0.34127  0.49464  0.84972  1.0000
  H   H559      1.0  0.39837  0.42917  0.52942  1.0000
  H   H560      1.0  0.48505  0.29590  0.76514  1.0000
  C   C334      1.0  0.39432  0.46652  0.89869  1.0000
  H   H561      1.0  0.37981  0.46115  0.89494  1.0000
  H   H562      1.0  0.47972  0.36959  0.89787  1.0000
  C   C335      1.0  0.48200  0.36365  0.65659  1.0000
  H   H563      1.0  0.37512  0.42680  0.57578  1.0000
  S   S98       1.0  0.44944  0.05516  0.54094  1.0000
  H   H564      1.0  0.40436  0.40375  0.54536  1.0000
  C   C336      1.0  0.49627  0.13957  0.65450  1.0000
  H   H565      1.0  0.47428  0.07090  0.95262  1.0000
  C   C337      1.0  0.41334  0.42739  0.94111  1.0000
  C   C338      1.0  0.38608  0.43864  0.58611  1.0000
  H   H566      1.0  0.48082  0.31469  0.75597  1.0000
  C   C339      1.0  0.37120  0.44533  0.95626  1.0000
  S   S99       1.0  0.48031  0.40236  0.59451  1.0000
  C   C340      1.0  0.47958  0.21600  0.93601  1.0000
  H   H567      1.0  0.45986  0.43540  0.54037  1.0000
  H   H568      1.0  0.43143  0.46136  0.94146  1.0000
  H   H569      1.0  0.41469  0.42878  0.91749  1.0000
  H   H570      1.0  0.48148  0.05465  0.94116  1.0000
  H   H571      1.0  0.47208  0.36687  0.64596  1.0000
  S   S100      1.0  0.37182  0.47454  0.62030  1.0000
  C   C341      1.0  0.47820  0.29267  0.68263  1.0000
  C   C342      1.0  0.49677  0.19156  0.93417  1.0000
  H   H572      1.0  0.39904  0.47913  0.91141  1.0000
  H   H573      1.0  0.47311  0.18135  0.96040  1.0000
  H   H574      1.0  0.38122  0.44298  0.64812  1.0000
  S   S101      1.0  0.48468  0.41842  0.52898  1.0000
  H   H575      1.0  0.46908  0.29451  0.73697  1.0000
  H   H576      1.0  0.39212  0.47146  0.95514  1.0000
  C   C343      1.0  0.49399  0.12487  0.67092  1.0000
  H   H577      1.0  0.37996  0.44594  0.59828  1.0000
  S   S102      1.0  0.47957  0.37356  0.95963  1.0000
  H   H578      1.0  0.39260  0.01061  0.65786  1.0000
  H   H579      1.0  0.48092  0.16492  0.95004  1.0000
  H   H580      1.0  0.49513  0.11540  0.71368  1.0000
  C   C344      1.0  0.33623  0.47962  0.98418  1.0000
  C   C345      1.0  0.33436  0.49456  0.00181  1.0000
  C   C346      1.0  0.45636  0.01117  0.56461  1.0000
  H   H581      1.0  0.32006  0.49106  0.00294  1.0000
  H   H582      1.0  0.42877  0.07849  0.98594  1.0000
  H   H583      1.0  0.28395  0.48538  0.72873  1.0000
  C   C347      1.0  0.49736  0.30912  0.72589  1.0000
  H   H584      1.0  0.42322  0.00639  0.95549  1.0000
  H   H585      1.0  0.49711  0.00637  0.54608  1.0000
  H   H586      1.0  0.28986  0.48914  0.69212  1.0000
  H   H587      1.0  0.41578  0.05575  0.99197  1.0000
  H   H588      1.0  0.27027  0.49060  0.70383  1.0000
  H   H589      1.0  0.48549  0.25520  0.72713  1.0000
  C   C348      1.0  0.35949  0.49999  0.63191  1.0000
  C   C349      1.0  0.36005  0.49586  0.69189  1.0000
  S   S103      1.0  0.40956  0.49228  0.57064  1.0000
  H   H590      1.0  0.45504  0.03028  0.95219  1.0000
  H   H591      1.0  0.43393  0.02966  0.91870  1.0000
  H   H592      1.0  0.49901  0.36247  0.86533  1.0000
  H   H593      1.0  0.32196  0.50148  0.92453  1.0000
  H   H594      1.0  0.49981  0.40464  0.68014  1.0000
  C   C350      1.0  0.26017  0.58720  0.23719  1.0000
  H   H595      1.0  0.26273  0.56837  0.28623  1.0000
  H   H596      1.0  0.48312  0.61665  0.27607  1.0000
  C   C351      1.0  0.45945  0.54322  0.49540  1.0000
  H   H597      1.0  0.43615  0.89016  0.01598  1.0000
  H   H598      1.0  0.28334  0.58892  0.21534  1.0000
  C   C352      1.0  0.49175  0.52173  0.02157  1.0000
  C   C353      1.0  0.27027  0.51641  0.26009  1.0000
  C   C354      1.0  0.40906  0.56015  0.49049  1.0000
  C   C355      1.0  0.26379  0.77684  0.30048  1.0000
  H   H599      1.0  0.49047  0.61192  0.33701  1.0000
  H   H600      1.0  0.47101  0.85555  0.15630  1.0000
  Fe  Fe51      1.0  0.41721  0.91379  0.06028  1.0000
  C   C356      1.0  0.34812  0.92003  0.13404  1.0000
  S   S104      1.0  0.44294  0.91338  0.07434  1.0000
  Fe  Fe52      1.0  0.37887  0.89802  0.07622  1.0000
  S   S105      1.0  0.37090  0.90947  0.03738  1.0000
  S   S106      1.0  0.35869  0.87908  0.10574  1.0000
  C   C357      1.0  0.44354  0.54537  0.01957  1.0000
  S   S107      1.0  0.36832  0.90582  0.48572  1.0000
  Fe  Fe53      1.0  0.39555  0.93444  0.04935  1.0000
  S   S108      1.0  0.39464  0.96146  0.05394  1.0000
  S   S109      1.0  0.39460  0.88763  0.04999  1.0000
  S   S110      1.0  0.40214  0.92327  0.08963  1.0000
  Fe  Fe54      1.0  0.46435  0.66267  0.25411  1.0000
  H   H601      1.0  0.39074  0.97130  0.13172  1.0000
  S   S111      1.0  0.43749  0.65028  0.27300  1.0000
  H   H602      1.0  0.26134  0.72869  0.21288  1.0000
  H   H603      1.0  0.43134  0.97108  0.04058  1.0000
  S   S112      1.0  0.47214  0.68026  0.21590  1.0000
  S   S113      1.0  0.48654  0.68155  0.28342  1.0000
  Fe  Fe55      1.0  0.32507  0.53251  0.27994  1.0000
  S   S114      1.0  0.30145  0.53846  0.29122  1.0000
  Fe  Fe56      1.0  0.36338  0.55074  0.26178  1.0000
  S   S115      1.0  0.36753  0.52655  0.27110  1.0000
  S   S116      1.0  0.38737  0.56992  0.23944  1.0000
  S   S117      1.0  0.32721  0.50687  0.28959  1.0000
  H   H604      1.0  0.45889  0.84129  0.36781  1.0000
  Fe  Fe57      1.0  0.35341  0.52428  0.31200  1.0000
  H   H605      1.0  0.41303  0.53629  0.41028  1.0000
  S   S118      1.0  0.33765  0.53549  0.23664  1.0000
  S   S119      1.0  0.35097  0.54983  0.30434  1.0000
  H   H606      1.0  0.45717  0.96175  0.45299  1.0000
  S   S120      1.0  0.48594  0.83314  0.18716  1.0000
  H   H607      1.0  0.47844  0.84776  0.34931  1.0000
  S   S121      1.0  0.47749  0.82372  0.25476  1.0000
  C   C358      1.0  0.48886  0.77001  0.22117  1.0000
  H   H608      1.0  0.29992  0.78307  0.37740  1.0000
  Fe  Fe58      1.0  0.47523  0.84301  0.22375  1.0000
  S   S122      1.0  0.45413  0.85312  0.22005  1.0000
  S   S123      1.0  0.48123  0.78573  0.20826  1.0000
  Fe  Fe59      1.0  0.35374  0.85666  0.27190  1.0000
  S   S124      1.0  0.34214  0.82822  0.25588  1.0000
  S   S125      1.0  0.36214  0.88075  0.24339  1.0000
  Fe  Fe60      1.0  0.35716  0.84713  0.33550  1.0000
  S   S126      1.0  0.34609  0.81798  0.32325  1.0000
  S   S127      1.0  0.36770  0.85331  0.38264  1.0000
  Fe  Fe61      1.0  0.36326  0.82629  0.28516  1.0000
  S   S128      1.0  0.37944  0.81165  0.27179  1.0000
  Fe  Fe62      1.0  0.32582  0.82224  0.29548  1.0000
  S   S129      1.0  0.29580  0.80572  0.29624  1.0000
  S   S130      1.0  0.37572  0.85491  0.29911  1.0000
  S   S131      1.0  0.33601  0.85124  0.30958  1.0000
  S   S132      1.0  0.44543  0.53178  0.07238  1.0000
  H   H609      1.0  0.30785  0.85037  0.35242  1.0000
  H   H610      1.0  0.39916  0.99744  0.06414  1.0000
  C   C359      1.0  0.45194  0.54852  0.04706  1.0000
  C   C360      1.0  0.46589  0.56498  0.05405  1.0000
  C   C361      1.0  0.47171  0.57808  0.03333  1.0000
  C   C362      1.0  0.34314  0.50367  0.16398  1.0000
  S   S133      1.0  0.48054  0.91677  0.46720  1.0000
  C   C363      1.0  0.43980  0.58909  0.46792  1.0000
  H   H611      1.0  0.47225  0.56757  0.07542  1.0000
  H   H612      1.0  0.48226  0.59083  0.03901  1.0000
  H   H613      1.0  0.34320  0.93731  0.19586  1.0000
  H   H614      1.0  0.48557  0.86589  0.31132  1.0000
  C   C364      1.0  0.43453  0.84162  0.23783  1.0000
  C   C365      1.0  0.42753  0.82326  0.24062  1.0000
  C   C366      1.0  0.41080  0.81423  0.25188  1.0000
  C   C367      1.0  0.40114  0.82354  0.26080  1.0000
  C   C368      1.0  0.40862  0.84201  0.25939  1.0000
  C   C369      1.0  0.42516  0.85098  0.24763  1.0000
  H   H615      1.0  0.43468  0.81591  0.23314  1.0000
  H   H616      1.0  0.40517  0.79994  0.25310  1.0000
  H   H617      1.0  0.40145  0.84937  0.26650  1.0000
  H   H618      1.0  0.43064  0.86523  0.24586  1.0000
  H   H619      1.0  0.43881  0.56910  0.43735  1.0000
  C   C370      1.0  0.28220  0.78269  0.30037  1.0000
  H   H620      1.0  0.49530  0.82866  0.00814  1.0000
  H   H621      1.0  0.45678  0.00032  0.03691  1.0000
  H   H622      1.0  0.30319  0.77433  0.30336  1.0000
  H   H623      1.0  0.38395  0.85082  0.10220  1.0000
  H   H624      1.0  0.38589  0.51702  0.21333  1.0000
  C   C371      1.0  0.26772  0.53563  0.29739  1.0000
  C   C372      1.0  0.27831  0.52934  0.28214  1.0000
  H   H625      1.0  0.49629  0.87952  0.16521  1.0000
  H   H626      1.0  0.27372  0.54549  0.31467  1.0000
  H   H627      1.0  0.45973  0.60745  0.26689  1.0000
  C   C373      1.0  0.45572  0.95662  0.49985  1.0000
  H   H628      1.0  0.44220  0.56472  0.47371  1.0000
  H   H629      1.0  0.36558  0.51743  0.02280  1.0000
  H   H630      1.0  0.33941  0.94979  0.10283  1.0000
  C   C374      1.0  0.47173  0.91798  0.04408  1.0000
  C   C375      1.0  0.42351  0.62797  0.26369  1.0000
  C   C376      1.0  0.40772  0.61934  0.27787  1.0000
  C   C377      1.0  0.39660  0.60138  0.27123  1.0000
  C   C378      1.0  0.40115  0.59208  0.25011  1.0000
  C   C379      1.0  0.41701  0.60070  0.23622  1.0000
  C   C380      1.0  0.42816  0.61853  0.24300  1.0000
  H   H631      1.0  0.40407  0.62657  0.29395  1.0000
  H   H632      1.0  0.38436  0.59487  0.28196  1.0000
  H   H633      1.0  0.42066  0.59362  0.21994  1.0000
  H   H634      1.0  0.44021  0.62505  0.23184  1.0000
  C   C381      1.0  0.36902  0.89184  0.45669  1.0000
  C   C382      1.0  0.35905  0.89039  0.43085  1.0000
  C   C383      1.0  0.35891  0.87914  0.40758  1.0000
  C   C384      1.0  0.36855  0.86898  0.41004  1.0000
  C   C385      1.0  0.37844  0.87036  0.43591  1.0000
  C   C386      1.0  0.37880  0.88181  0.45899  1.0000
  H   H635      1.0  0.35145  0.89810  0.42882  1.0000
  H   H636      1.0  0.35123  0.87823  0.38789  1.0000
  H   H637      1.0  0.38589  0.86251  0.43815  1.0000
  H   H638      1.0  0.38650  0.88272  0.47867  1.0000
  C   C387      1.0  0.36010  0.87975  0.14399  1.0000
  C   C388      1.0  0.37381  0.89328  0.15991  1.0000
  C   C389      1.0  0.37416  0.89349  0.19033  1.0000
  C   C390      1.0  0.36126  0.87980  0.20513  1.0000
  C   C391      1.0  0.34773  0.86610  0.18919  1.0000
  C   C392      1.0  0.34701  0.86624  0.15879  1.0000
  H   H639      1.0  0.38407  0.90362  0.14880  1.0000
  H   H640      1.0  0.38467  0.90413  0.20254  1.0000
  H   H641      1.0  0.33758  0.85562  0.20033  1.0000
  H   H642      1.0  0.33632  0.85575  0.14667  1.0000
  H   H643      1.0  0.47367  0.68260  0.15175  1.0000
  H   H644      1.0  0.44362  0.90599  0.47159  1.0000
  H   H645      1.0  0.33973  0.51210  0.38655  1.0000
  H   H646      1.0  0.47965  0.52602  0.06103  1.0000
  C   C393      1.0  0.45905  0.92426  0.04966  1.0000
  H   H647      1.0  0.46245  0.81649  0.34228  1.0000
  H   H648      1.0  0.49243  0.91952  0.01671  1.0000
  H   H649      1.0  0.38375  0.93165  0.13298  1.0000
  H   H650      1.0  0.47217  0.90716  0.05617  1.0000
  H   H651      1.0  0.37350  0.92764  0.17879  1.0000
  C   C394      1.0  0.46612  0.86087  0.13794  1.0000
  N   N27       1.0  0.45623  0.61346  0.33255  1.0000
  C   C395      1.0  0.35310  0.95775  0.11144  1.0000
  C   C396      1.0  0.46250  0.60124  0.34812  1.0000
  C   C397      1.0  0.43792  0.60273  0.31974  1.0000
  C   C398      1.0  0.44425  0.99976  0.04311  1.0000
  C   C399      1.0  0.46459  0.87807  0.14704  1.0000
  C   C400      1.0  0.42351  0.59416  0.34153  1.0000
  H   H652      1.0  0.44916  0.94355  0.03887  1.0000
  H   H653      1.0  0.36462  0.96435  0.15492  1.0000
  H   H654      1.0  0.45899  0.58863  0.33550  1.0000
  H   H655      1.0  0.45564  0.59700  0.36863  1.0000
  H   H656      1.0  0.25851  0.73553  0.16861  1.0000
  C   C401      1.0  0.47077  0.56124  0.49495  1.0000
  H   H657      1.0  0.31228  0.79817  0.35014  1.0000
  H   H658      1.0  0.32898  0.83547  0.47050  1.0000
  H   H659      1.0  0.43415  0.54084  0.42866  1.0000
  H   H660      1.0  0.49554  0.72159  0.10313  1.0000
  H   H661      1.0  0.42143  0.60423  0.35484  1.0000
  H   H662      1.0  0.42633  0.58494  0.35559  1.0000
  H   H663      1.0  0.41083  0.58625  0.32934  1.0000
  Fe  Fe63      1.0  0.49075  0.81543  0.21982  1.0000
  N   N28       1.0  0.39664  0.54732  0.15719  1.0000
  C   C402      1.0  0.39368  0.53066  0.17307  1.0000
  C   C403      1.0  0.39904  0.54382  0.12595  1.0000
  C   C404      1.0  0.38050  0.55090  0.15985  1.0000
  C   C405      1.0  0.41265  0.56224  0.17121  1.0000
  C   C406      1.0  0.38797  0.53005  0.20448  1.0000
  C   C407      1.0  0.41491  0.53968  0.12006  1.0000
  C   C408      1.0  0.37672  0.56185  0.13625  1.0000
  C   C409      1.0  0.41919  0.58041  0.15710  1.0000
  H   H664      1.0  0.38346  0.51888  0.16130  1.0000
  H   H665      1.0  0.40578  0.52828  0.17409  1.0000
  H   H666      1.0  0.40046  0.55510  0.11231  1.0000
  H   H667      1.0  0.38702  0.53248  0.11669  1.0000
  H   H668      1.0  0.36840  0.53827  0.15971  1.0000
  H   H669      1.0  0.38092  0.55764  0.18097  1.0000
  H   H670      1.0  0.41007  0.56475  0.19381  1.0000
  H   H671      1.0  0.42394  0.55861  0.17391  1.0000
  H   H672      1.0  0.46443  0.51740  0.03014  1.0000
  H   H673      1.0  0.48321  0.89340  0.37740  1.0000
  H   H674      1.0  0.45138  0.94206  0.49628  1.0000
  H   H675      1.0  0.45419  0.59640  0.46520  1.0000
  H   H676      1.0  0.41586  0.53858  0.09633  1.0000
  H   H677      1.0  0.42755  0.55039  0.12835  1.0000
  H   H678      1.0  0.37236  0.55410  0.11547  1.0000
  H   H679      1.0  0.38804  0.57462  0.13295  1.0000
  H   H680      1.0  0.36570  0.56495  0.14287  1.0000
  H   H681      1.0  0.41205  0.58810  0.16506  1.0000
  H   H682      1.0  0.41833  0.57958  0.13327  1.0000
  H   H683      1.0  0.43344  0.58806  0.16283  1.0000
  C   C410      1.0  0.46979  0.61015  0.28480  1.0000
  C   C411      1.0  0.47729  0.90899  0.16335  1.0000
  H   H684      1.0  0.36668  0.83087  0.11345  1.0000
  H   H685      1.0  0.44942  0.62131  0.37358  1.0000
  H   H686      1.0  0.43830  0.83908  0.30136  1.0000
  H   H687      1.0  0.26996  0.78936  0.38725  1.0000
  H   H688      1.0  0.38858  0.50699  0.38877  1.0000
  H   H689      1.0  0.32128  0.80039  0.41531  1.0000
  C   C412      1.0  0.48322  0.92500  0.02171  1.0000
  C   C413      1.0  0.31310  0.79294  0.37163  1.0000
  H   H690      1.0  0.45867  0.87667  0.27959  1.0000
  H   H691      1.0  0.47459  0.86268  0.11935  1.0000
  C   C414      1.0  0.27775  0.75201  0.30604  1.0000
  H   H692      1.0  0.25827  0.78641  0.29838  1.0000
  H   H693      1.0  0.39813  0.54038  0.21876  1.0000
  Fe  Fe64      1.0  0.49567  0.69790  0.24395  1.0000
  H   H694      1.0  0.33675  0.84112  0.41878  1.0000
  C   C415      1.0  0.29392  0.81036  0.40678  1.0000
  S   S134      1.0  0.47863  0.64655  0.24070  1.0000
  C   C416      1.0  0.32149  0.80762  0.39533  1.0000
  Fe  Fe65      1.0  0.38847  0.90076  0.01181  1.0000
  H   H695      1.0  0.48009  0.63513  0.10412  1.0000
  H   H696      1.0  0.37676  0.94160  0.10516  1.0000
  H   H697      1.0  0.41332  0.52676  0.12867  1.0000
  H   H698      1.0  0.46497  0.74766  0.20667  1.0000
  N   N29       1.0  0.36226  0.93779  0.14461  1.0000
  N   N30       1.0  0.49843  0.53978  0.00864  1.0000
  C   C417      1.0  0.46709  0.90947  0.49649  1.0000
  S   S135      1.0  0.48540  0.65387  0.15839  1.0000
  H   H699      1.0  0.30921  0.82286  0.35325  1.0000
  H   H700      1.0  0.39147  0.87117  0.22826  1.0000
  H   H701      1.0  0.38925  0.83361  0.11655  1.0000
  H   H702      1.0  0.45924  0.88209  0.34059  1.0000
  N   N31       1.0  0.41488  0.55720  0.46114  1.0000
  H   H703      1.0  0.47553  0.71959  0.14022  1.0000
  C   C418      1.0  0.41309  0.53845  0.45789  1.0000
  H   H704      1.0  0.38087  0.54072  0.48731  1.0000
  C   C419      1.0  0.40502  0.56184  0.43729  1.0000
  S   S136      1.0  0.41244  0.92663  0.02071  1.0000
  C   C420      1.0  0.41963  0.53378  0.42969  1.0000
  H   H705      1.0  0.43606  0.95564  0.46730  1.0000
  C   C421      1.0  0.38508  0.55023  0.43311  1.0000
  H   H706      1.0  0.25182  0.57098  0.33225  1.0000
  H   H707      1.0  0.27141  0.76113  0.20811  1.0000
  H   H708      1.0  0.39935  0.52852  0.45961  1.0000
  H   H709      1.0  0.25155  0.74889  0.14745  1.0000
  C   C422      1.0  0.48559  0.96453  0.48447  1.0000
  H   H710      1.0  0.45283  0.85053  0.13139  1.0000
  H   H711      1.0  0.27815  0.51141  0.24811  1.0000
  H   H712      1.0  0.41102  0.56238  0.41609  1.0000
  H   H713      1.0  0.45075  0.90331  0.14484  1.0000
  C   C423      1.0  0.48239  0.60900  0.35630  1.0000
  H   H714      1.0  0.46065  0.53400  0.47985  1.0000
  H   H715      1.0  0.46903  0.69086  0.11791  1.0000
  H   H716      1.0  0.41646  0.51939  0.42914  1.0000
  C   C424      1.0  0.45040  0.96350  0.47207  1.0000
  C   C425      1.0  0.32367  0.82468  0.45355  1.0000
  H   H717      1.0  0.32145  0.78562  0.36948  1.0000
  H   H718      1.0  0.37750  0.55553  0.44637  1.0000
  H   H719      1.0  0.38112  0.53619  0.43787  1.0000
  H   H720      1.0  0.38094  0.55002  0.41000  1.0000
  C   C426      1.0  0.34059  0.52784  0.03842  1.0000
  H   H721      1.0  0.26797  0.60100  0.24585  1.0000
  H   H722      1.0  0.35478  0.53502  0.04481  1.0000
  H   H723      1.0  0.48053  0.88148  0.27034  1.0000
  C   C427      1.0  0.36652  0.93638  0.17618  1.0000
  C   C428      1.0  0.46958  0.69232  0.14178  1.0000
  C   C429      1.0  0.42982  0.98313  0.04512  1.0000
  H   H724      1.0  0.29235  0.79940  0.42149  1.0000
  H   H725      1.0  0.47861  0.71282  0.17536  1.0000
  C   C430      1.0  0.46355  0.57478  0.00566  1.0000
  C   C431      1.0  0.31537  0.83110  0.37298  1.0000
  C   C432      1.0  0.33741  0.52519  0.00532  1.0000
  H   H726      1.0  0.44933  0.64928  0.36121  1.0000
  C   C433      1.0  0.35070  0.92909  0.19587  1.0000
  H   H727      1.0  0.37527  0.53109  0.20594  1.0000
  N   N32       1.0  0.48171  0.89450  0.15128  1.0000
  H   H728      1.0  0.43764  0.59180  0.30525  1.0000
  C   C434      1.0  0.46396  0.84318  0.34569  1.0000
  C   C435      1.0  0.47616  0.51713  0.04151  1.0000
  H   H729      1.0  0.43770  0.59104  0.49097  1.0000
  H   H730      1.0  0.46149  0.82559  0.30809  1.0000
  C   C436      1.0  0.45665  0.62744  0.35408  1.0000
  Fe  Fe66      1.0  0.48841  0.66544  0.20443  1.0000
  H   H731      1.0  0.33496  0.91841  0.14093  1.0000
  H   H732      1.0  0.49887  0.72005  0.34414  1.0000
  H   H733      1.0  0.49505  0.68800  0.11523  1.0000
  C   C437      1.0  0.47799  0.75177  0.21672  1.0000
  H   H734      1.0  0.49100  0.55367  0.04174  1.0000
  S   S137      1.0  0.48541  0.56912  0.46711  1.0000
  C   C438      1.0  0.48114  0.71156  0.15218  1.0000
  H   H735      1.0  0.43318  0.59534  0.45397  1.0000
  C   C439      1.0  0.25933  0.74610  0.30565  1.0000
  H   H736      1.0  0.34464  0.92592  0.08817  1.0000
  C   C440      1.0  0.46786  0.62250  0.30833  1.0000
  H   H737      1.0  0.26642  0.59056  0.29239  1.0000
  H   H738      1.0  0.43365  0.61087  0.30542  1.0000
  H   H739      1.0  0.33404  0.53607  0.04647  1.0000
  H   H740      1.0  0.33621  0.51076  0.17326  1.0000
  H   H741      1.0  0.28966  0.81940  0.41901  1.0000
  H   H742      1.0  0.25297  0.60813  0.28613  1.0000
  Fe  Fe67      1.0  0.34159  0.51121  0.24795  1.0000
  H   H743      1.0  0.48914  0.92152  0.16778  1.0000
  H   H744      1.0  0.45587  0.68872  0.14813  1.0000
  H   H745      1.0  0.28537  0.79985  0.36083  1.0000
  H   H746      1.0  0.25419  0.72924  0.24780  1.0000
  H   H747      1.0  0.40243  0.83217  0.19782  1.0000
  H   H748      1.0  0.44253  0.81775  0.33023  1.0000
  C   C441      1.0  0.28911  0.77012  0.30334  1.0000
  H   H749      1.0  0.37659  0.80630  0.20224  1.0000
  H   H750      1.0  0.33292  0.81830  0.45353  1.0000
  C   C442      1.0  0.27358  0.57971  0.22979  1.0000
  C   C443      1.0  0.37892  0.94201  0.12892  1.0000
  C   C444      1.0  0.45709  0.82476  0.33042  1.0000
  S   S138      1.0  0.39872  0.51626  0.03944  1.0000
  H   H751      1.0  0.38173  0.83930  0.22069  1.0000
  C   C445      1.0  0.30850  0.84561  0.37449  1.0000
  H   H752      1.0  0.35763  0.91350  0.09400  1.0000
  H   H753      1.0  0.49196  0.88745  0.34655  1.0000
  H   H754      1.0  0.35039  0.90903  0.14399  1.0000
  H   H755      1.0  0.40629  0.57558  0.44086  1.0000
  H   H756      1.0  0.34265  0.51334  0.12117  1.0000
  C   C446      1.0  0.47168  0.86275  0.30471  1.0000
  H   H757      1.0  0.46791  0.85180  0.28812  1.0000
  H   H758      1.0  0.48912  0.74785  0.15568  1.0000
  H   H759      1.0  0.47139  0.90531  0.18479  1.0000
  H   H760      1.0  0.47037  0.63574  0.36229  1.0000
  C   C447      1.0  0.34626  0.91572  0.10129  1.0000
  H   H761      1.0  0.28104  0.57854  0.24928  1.0000
  N   N33       1.0  0.45995  0.85690  0.33002  1.0000
  C   C448      1.0  0.46317  0.87220  0.35074  1.0000
  C   C449      1.0  0.48223  0.88201  0.36341  1.0000
  H   H762      1.0  0.48014  0.89572  0.10471  1.0000
  H   H763      1.0  0.28329  0.74245  0.30815  1.0000
  H   H764      1.0  0.35421  0.79446  0.18921  1.0000
  C   C450      1.0  0.32290  0.83294  0.42427  1.0000
  H   H765      1.0  0.43283  0.53271  0.01385  1.0000
  H   H766      1.0  0.31766  0.85729  0.38781  1.0000
  H   H767      1.0  0.43112  0.83662  0.36025  1.0000
  H   H768      1.0  0.47512  0.72489  0.22202  1.0000
  H   H769      1.0  0.35570  0.92925  0.21846  1.0000
  C   C451      1.0  0.46447  0.91363  0.14426  1.0000
  H   H770      1.0  0.45790  0.64935  0.32670  1.0000
  H   H771      1.0  0.31712  0.84253  0.42856  1.0000
  H   H772      1.0  0.35479  0.82249  0.16771  1.0000
  H   H773      1.0  0.36778  0.81302  0.15107  1.0000
  H   H774      1.0  0.43376  0.86803  0.01146  1.0000
  H   H775      1.0  0.46265  0.63099  0.29665  1.0000
  C   C452      1.0  0.44921  0.90552  0.49280  1.0000
  H   H776      1.0  0.31053  0.81517  0.46003  1.0000
  C   C453      1.0  0.36444  0.80782  0.19587  1.0000
  H   H777      1.0  0.37567  0.94951  0.18589  1.0000
  Fe  Fe68      1.0  0.42035  0.50950  0.05562  1.0000
  C   C454      1.0  0.42692  0.84209  0.34140  1.0000
  H   H778      1.0  0.45468  0.86761  0.36955  1.0000
  H   H779      1.0  0.47802  0.99185  0.49918  1.0000
  S   S139      1.0  0.36927  0.51861  0.34881  1.0000
  N   N34       1.0  0.31296  0.82019  0.39948  1.0000
  C   C455      1.0  0.36710  0.82052  0.17071  1.0000
  H   H780      1.0  0.47856  0.95173  0.47194  1.0000
  C   C456      1.0  0.39427  0.96018  0.13660  1.0000
  H   H781      1.0  0.41509  0.83092  0.33142  1.0000
  C   C457      1.0  0.28022  0.80238  0.38115  1.0000
  C   C458      1.0  0.38051  0.84045  0.11866  1.0000
  H   H782      1.0  0.35956  0.81219  0.21503  1.0000
  H   H783      1.0  0.45587  0.87999  0.13009  1.0000
  C   C459      1.0  0.34677  0.50507  0.13440  1.0000
  C   C460      1.0  0.44106  0.84945  0.31870  1.0000
  H   H784      1.0  0.49726  0.89036  0.11823  1.0000
  H   H785      1.0  0.33446  0.90305  0.09666  1.0000
  H   H786      1.0  0.37092  0.85266  0.15053  1.0000
  H   H787      1.0  0.39743  0.82272  0.16257  1.0000
  C   C461      1.0  0.45856  0.93828  0.03399  1.0000
  C   C462      1.0  0.47183  0.87896  0.28882  1.0000
  N   N35       1.0  0.38298  0.83817  0.17402  1.0000
  C   C463      1.0  0.38228  0.84920  0.14892  1.0000
  C   C464      1.0  0.48374  0.73881  0.22532  1.0000
  H   H788      1.0  0.39919  0.96125  0.15937  1.0000
  C   C465      1.0  0.39942  0.83493  0.17537  1.0000
  H   H789      1.0  0.36811  0.84739  0.20175  1.0000
  C   C466      1.0  0.36458  0.51046  0.38420  1.0000
  H   H790      1.0  0.43828  0.85981  0.30770  1.0000
  H   H791      1.0  0.42299  0.85253  0.34927  1.0000
  C   C467      1.0  0.38124  0.84703  0.20164  1.0000
  H   H792      1.0  0.39399  0.86214  0.14918  1.0000
  H   H793      1.0  0.41985  0.86280  0.17478  1.0000
  C   C468      1.0  0.41645  0.84963  0.16454  1.0000
  C   C469      1.0  0.35586  0.95215  0.14213  1.0000
  H   H794      1.0  0.34298  0.94808  0.15229  1.0000
  H   H795      1.0  0.48675  0.62109  0.37045  1.0000
  C   C470      1.0  0.39511  0.86606  0.20845  1.0000
  H   H796      1.0  0.39581  0.87533  0.19121  1.0000
  H   H797      1.0  0.42758  0.84611  0.16978  1.0000
  H   H798      1.0  0.48581  0.88553  0.19335  1.0000
  C   C471      1.0  0.41343  0.98215  0.05254  1.0000
  C   C472      1.0  0.41177  0.99803  0.05837  1.0000
  H   H799      1.0  0.34175  0.91506  0.19019  1.0000
  H   H800      1.0  0.40819  0.86644  0.21357  1.0000
  H   H801      1.0  0.41582  0.85071  0.14077  1.0000
  H   H802      1.0  0.47727  0.89119  0.30276  1.0000
  H   H803      1.0  0.32959  0.83784  0.36843  1.0000
  C   C473      1.0  0.49307  0.89041  0.17329  1.0000
  H   H804      1.0  0.46833  0.91564  0.12155  1.0000
  H   H805      1.0  0.36242  0.95703  0.09577  1.0000
  C   C474      1.0  0.47010  0.94534  0.01162  1.0000
  C   C475      1.0  0.34927  0.50854  0.39772  1.0000
  H   H806      1.0  0.43566  0.63380  0.33391  1.0000
  H   H807      1.0  0.48527  0.59912  0.36861  1.0000
  H   H808      1.0  0.42044  0.53561  0.47607  1.0000
  H   H809      1.0  0.45714  0.87529  0.16721  1.0000
  H   H810      1.0  0.29514  0.84074  0.38286  1.0000
  H   H811      1.0  0.35551  0.97194  0.11225  1.0000
  H   H812      1.0  0.40546  0.96180  0.12295  1.0000
  H   H813      1.0  0.33567  0.81518  0.39071  1.0000
  H   H814      1.0  0.28102  0.75552  0.23905  1.0000
  C   C476      1.0  0.43419  0.56936  0.45949  1.0000
  H   H815      1.0  0.46439  0.92618  0.15259  1.0000
  C   C477      1.0  0.39266  0.54497  0.50204  1.0000
  C   C478      1.0  0.44938  0.64052  0.34292  1.0000
  H   H816      1.0  0.27313  0.81080  0.37675  1.0000
  H   H817      1.0  0.40662  0.57230  0.49098  1.0000
  H   H818      1.0  0.47219  0.50345  0.04912  1.0000
  H   H819      1.0  0.45251  0.97753  0.47471  1.0000
  H   H820      1.0  0.26725  0.56667  0.21804  1.0000
  C   C479      1.0  0.26845  0.75486  0.22934  1.0000
  H   H821      1.0  0.48710  0.97511  0.46899  1.0000
  C   C480      1.0  0.49034  0.89888  0.12262  1.0000
  H   H822      1.0  0.33493  0.51511  0.04966  1.0000
  C   C481      1.0  0.37680  0.50577  0.39916  1.0000
  C   C482      1.0  0.25578  0.57718  0.28693  1.0000
  H   H823      1.0  0.46875  0.59734  0.29284  1.0000
  C   C483      1.0  0.49389  0.64418  0.10628  1.0000
  H   H824      1.0  0.48599  0.87333  0.37730  1.0000
  H   H825      1.0  0.49738  0.92542  0.10552  1.0000
  C   C484      1.0  0.25502  0.73525  0.22631  1.0000
  C   C485      1.0  0.48216  0.93842  0.00505  1.0000
  C   C486      1.0  0.25242  0.75870  0.30302  1.0000
  H   H826      1.0  0.48116  0.63208  0.31650  1.0000
  H   H827      1.0  0.25382  0.58879  0.21660  1.0000
  H   H828      1.0  0.26426  0.76285  0.24390  1.0000
  C   C487      1.0  0.25199  0.51002  0.25335  1.0000
  S   S140      1.0  0.49784  0.61922  0.48659  1.0000
  H   H829      1.0  0.48717  0.51112  0.00431  1.0000
  H   H830      1.0  0.49842  0.69821  0.08140  1.0000
  H   H831      1.0  0.49932  0.66773  0.34021  1.0000
  H   H832      1.0  0.49977  0.63647  0.06460  1.0000
  H   H833      1.0  0.47480  0.82569  0.57060  1.0000
  Fe  Fe69      1.0  0.41413  0.90995  0.56440  1.0000
  H   H834      1.0  0.30579  0.56521  0.69059  1.0000
  S   S141      1.0  0.43289  0.89769  0.57412  1.0000
  Fe  Fe70      1.0  0.38606  0.91720  0.59340  1.0000
  S   S142      1.0  0.38474  0.93500  0.55784  1.0000
  S   S143      1.0  0.37472  0.91485  0.63794  1.0000
  H   H835      1.0  0.37315  0.52575  0.86875  1.0000
  S   S144      1.0  0.38553  0.88410  0.97032  1.0000
  Fe  Fe71      1.0  0.41443  0.94692  0.55900  1.0000
  S   S145      1.0  0.43669  0.97506  0.56429  1.0000
  S   S146      1.0  0.38473  0.89525  0.56313  1.0000
  S   S147      1.0  0.41545  0.93065  0.59659  1.0000
  Fe  Fe72      1.0  0.45943  0.65168  0.73193  1.0000
  S   S148      1.0  0.48440  0.65001  0.74740  1.0000
  S   S149      1.0  0.43536  0.62691  0.71724  1.0000
  H   H836      1.0  0.48278  0.85902  0.63224  1.0000
  H   H837      1.0  0.36335  0.94466  0.61067  1.0000
  S   S150      1.0  0.47248  0.67215  0.69920  1.0000
  S   S151      1.0  0.46096  0.67223  0.76521  1.0000
  Fe  Fe73      1.0  0.32297  0.53534  0.79019  1.0000
  S   S152      1.0  0.30039  0.54418  0.78657  1.0000
  Fe  Fe74      1.0  0.36373  0.55297  0.79896  1.0000
  S   S153      1.0  0.36642  0.52791  0.78761  1.0000
  S   S154      1.0  0.38752  0.57823  0.81291  1.0000
  Fe  Fe75      1.0  0.34617  0.52404  0.75162  1.0000
  H   H838      1.0  0.39409  0.56759  0.64550  1.0000
  Fe  Fe76      1.0  0.34326  0.51508  0.81585  1.0000
  H   H839      1.0  0.40164  0.52511  0.60967  1.0000
  S   S155      1.0  0.34522  0.55016  0.76146  1.0000
  S   S156      1.0  0.34167  0.54044  0.82909  1.0000
  H   H840      1.0  0.40882  0.75184  0.74775  1.0000
  S   S157      1.0  0.48766  0.82746  0.69097  1.0000
  H   H841      1.0  0.46725  0.63560  0.87322  1.0000
  S   S158      1.0  0.47751  0.82280  0.76027  1.0000
  H   H842      1.0  0.27898  0.81044  0.76235  1.0000
  C   C488      1.0  0.25546  0.76920  0.72221  1.0000
  Fe  Fe77      1.0  0.46748  0.82989  0.71919  1.0000
  S   S159      1.0  0.43866  0.81890  0.70548  1.0000
  H   H843      1.0  0.31420  0.54762  0.72634  1.0000
  Fe  Fe78      1.0  0.34111  0.83877  0.75188  1.0000
  S   S160      1.0  0.34701  0.81507  0.75828  1.0000
  S   S161      1.0  0.33716  0.84270  0.70409  1.0000
  Fe  Fe79      1.0  0.34189  0.84568  0.81734  1.0000
  S   S162      1.0  0.34770  0.82244  0.82769  1.0000
  S   S163      1.0  0.33784  0.86252  0.85302  1.0000
  Fe  Fe80      1.0  0.36676  0.83201  0.79229  1.0000
  S   S164      1.0  0.39484  0.83587  0.80007  1.0000
  Fe  Fe81      1.0  0.32708  0.80753  0.79271  1.0000
  S   S165      1.0  0.30870  0.77809  0.79612  1.0000
  S   S166      1.0  0.36230  0.85631  0.78390  1.0000
  S   S167      1.0  0.31990  0.83021  0.78438  1.0000
  S   S168      1.0  0.42588  0.54213  0.55639  1.0000
  H   H844      1.0  0.47806  0.77743  0.70473  1.0000
  H   H845      1.0  0.26693  0.65751  0.67442  1.0000
  C   C489      1.0  0.42050  0.97851  0.64195  1.0000
  H   H846      1.0  0.26771  0.77942  0.86492  1.0000
  H   H847      1.0  0.46991  0.96797  0.57015  1.0000
  H   H848      1.0  0.43405  0.87141  0.90425  1.0000
  H   H849      1.0  0.41893  0.57273  0.85724  1.0000
  C   C490      1.0  0.43072  0.58232  0.63658  1.0000
  H   H850      1.0  0.27464  0.80977  0.85441  1.0000
  C   C491      1.0  0.47750  0.95514  0.53434  1.0000
  H   H851      1.0  0.44286  0.55591  0.97763  1.0000
  H   H852      1.0  0.44249  0.58801  0.62330  1.0000
  C   C492      1.0  0.42631  0.82371  0.73132  1.0000
  C   C493      1.0  0.43466  0.83363  0.75643  1.0000
  C   C494      1.0  0.42478  0.83715  0.77731  1.0000
  C   C495      1.0  0.40649  0.83090  0.77318  1.0000
  C   C496      1.0  0.39806  0.82091  0.74808  1.0000
  C   C497      1.0  0.40798  0.81728  0.72718  1.0000
  H   H853      1.0  0.44876  0.83855  0.75998  1.0000
  H   H854      1.0  0.43136  0.84481  0.79675  1.0000
  H   H855      1.0  0.38393  0.81587  0.74492  1.0000
  H   H856      1.0  0.40144  0.80945  0.70788  1.0000
  C   C498      1.0  0.27828  0.74723  0.79579  1.0000
  C   C499      1.0  0.28544  0.76588  0.79679  1.0000
  H   H857      1.0  0.28697  0.74067  0.79454  1.0000
  C   C500      1.0  0.27403  0.77414  0.79854  1.0000
  H   H858      1.0  0.43791  0.93726  0.96725  1.0000
  H   H859      1.0  0.38265  0.55740  0.59966  1.0000
  H   H860      1.0  0.45270  0.94686  0.55706  1.0000
  C   C501      1.0  0.26765  0.54434  0.78073  1.0000
  C   C502      1.0  0.27689  0.53376  0.78512  1.0000
  C   C503      1.0  0.31237  0.54312  0.70316  1.0000
  H   H861      1.0  0.27495  0.55853  0.77923  1.0000
  C   C504      1.0  0.38965  0.96112  0.62788  1.0000
  C   C505      1.0  0.32300  0.50743  0.94657  1.0000
  C   C506      1.0  0.45594  0.56704  0.53515  1.0000
  H   H862      1.0  0.47711  0.72598  0.62740  1.0000
  H   H863      1.0  0.27954  0.54200  0.68973  1.0000
  H   H864      1.0  0.37998  0.53508  0.60534  1.0000
  S   S169      1.0  0.49123  0.67228  0.82821  1.0000
  H   H865      1.0  0.47377  0.94121  0.52697  1.0000
  C   C507      1.0  0.42191  0.61368  0.74394  1.0000
  C   C508      1.0  0.40741  0.59775  0.73572  1.0000
  C   C509      1.0  0.39669  0.58681  0.75665  1.0000
  C   C510      1.0  0.40035  0.59183  0.78595  1.0000
  C   C511      1.0  0.41465  0.60793  0.79409  1.0000
  C   C512      1.0  0.42545  0.61878  0.77319  1.0000
  H   H866      1.0  0.40442  0.59392  0.71310  1.0000
  H   H867      1.0  0.38557  0.57455  0.75018  1.0000
  H   H868      1.0  0.41728  0.61210  0.81661  1.0000
  H   H869      1.0  0.43641  0.63117  0.77962  1.0000
  C   C513      1.0  0.37167  0.87817  0.93834  1.0000
  C   C514      1.0  0.35887  0.88448  0.93270  1.0000
  C   C515      1.0  0.34857  0.87957  0.90652  1.0000
  C   C516      1.0  0.35105  0.86843  0.88570  1.0000
  C   C517      1.0  0.36371  0.86199  0.89152  1.0000
  C   C518      1.0  0.37388  0.86678  0.91770  1.0000
  H   H870      1.0  0.35699  0.89322  0.94837  1.0000
  H   H871      1.0  0.33877  0.88459  0.90227  1.0000
  H   H872      1.0  0.36573  0.85336  0.87581  1.0000
  H   H873      1.0  0.38355  0.86163  0.92198  1.0000
  C   C519      1.0  0.36524  0.89461  0.65619  1.0000
  C   C520      1.0  0.35904  0.87814  0.64145  1.0000
  C   C521      1.0  0.35057  0.86237  0.65644  1.0000
  C   C522      1.0  0.34860  0.86286  0.68640  1.0000
  C   C523      1.0  0.35534  0.87929  0.70130  1.0000
  C   C524      1.0  0.36340  0.89507  0.68619  1.0000
  H   H874      1.0  0.36026  0.87758  0.61834  1.0000
  H   H875      1.0  0.34536  0.84975  0.64468  1.0000
  H   H876      1.0  0.35379  0.87987  0.72431  1.0000
  H   H877      1.0  0.36805  0.90773  0.69776  1.0000
  H   H878      1.0  0.37720  0.99184  0.63645  1.0000
  H   H879      1.0  0.42525  0.55691  0.61760  1.0000
  H   H880      1.0  0.47326  0.63713  0.92065  1.0000
  C   C525      1.0  0.46364  0.90478  0.54778  1.0000
  C   C526      1.0  0.44581  0.90114  0.54412  1.0000
  H   H881      1.0  0.36424  0.96240  0.63330  1.0000
  H   H882      1.0  0.38956  0.54073  0.00016  1.0000
  C   C527      1.0  0.42700  0.58622  0.86681  1.0000
  H   H883      1.0  0.46943  0.90534  0.56915  1.0000
  C   C528      1.0  0.44638  0.53712  0.51568  1.0000
  Fe  Fe82      1.0  0.40738  0.51385  0.54537  1.0000
  H   H884      1.0  0.47201  0.62507  0.82524  1.0000
  H   H885      1.0  0.41051  0.99779  0.67237  1.0000
  C   C529      1.0  0.46707  0.95453  0.56132  1.0000
  N   N36       1.0  0.28659  0.78905  0.70458  1.0000
  C   C530      1.0  0.30249  0.78712  0.69361  1.0000
  C   C531      1.0  0.27887  0.79539  0.67976  1.0000
  C   C532      1.0  0.27357  0.77094  0.71306  1.0000
  C   C533      1.0  0.29250  0.80189  0.73029  1.0000
  C   C534      1.0  0.31118  0.77837  0.71403  1.0000
  C   C535      1.0  0.29116  0.81347  0.66793  1.0000
  H   H886      1.0  0.39283  0.97694  0.67789  1.0000
  C   C536      1.0  0.28045  0.81096  0.73862  1.0000
  H   H887      1.0  0.29910  0.77927  0.67278  1.0000
  H   H888      1.0  0.31311  0.80031  0.68893  1.0000
  C   C537      1.0  0.39843  0.98730  0.66157  1.0000
  H   H889      1.0  0.27408  0.50709  0.79045  1.0000
  C   C538      1.0  0.38301  0.51834  0.90773  1.0000
  H   H890      1.0  0.27894  0.76623  0.73175  1.0000
  H   H891      1.0  0.29466  0.79529  0.74977  1.0000
  H   H892      1.0  0.30560  0.81285  0.72664  1.0000
  H   H893      1.0  0.31421  0.78477  0.73585  1.0000
  H   H894      1.0  0.30295  0.76394  0.71563  1.0000
  H   H895      1.0  0.32387  0.77983  0.70532  1.0000
  C   C539      1.0  0.42031  0.96556  0.66556  1.0000
  Fe  Fe83      1.0  0.49761  0.67197  0.71665  1.0000
  H   H896      1.0  0.30191  0.81254  0.65575  1.0000
  C   C540      1.0  0.26724  0.51543  0.78705  1.0000
  N   N37       1.0  0.34431  0.51310  0.99129  1.0000
  C   C541      1.0  0.35422  0.50802  0.68056  1.0000
  H   H897      1.0  0.32854  0.56994  0.69076  1.0000
  H   H898      1.0  0.37624  0.99245  0.67458  1.0000
  H   H899      1.0  0.28680  0.82528  0.73381  1.0000
  N   N38       1.0  0.40451  0.86906  0.70508  1.0000
  C   C542      1.0  0.41102  0.88282  0.72959  1.0000
  C   C543      1.0  0.41777  0.86127  0.70310  1.0000
  C   C544      1.0  0.38713  0.85481  0.71336  1.0000
  C   C545      1.0  0.40240  0.87785  0.67788  1.0000
  C   C546      1.0  0.39929  0.89246  0.73631  1.0000
  C   C547      1.0  0.43639  0.87414  0.69484  1.0000
  C   C548      1.0  0.37803  0.83891  0.69192  1.0000
  C   C549      1.0  0.40190  0.86835  0.64862  1.0000
  H   H900      1.0  0.41298  0.87681  0.75002  1.0000
  H   H901      1.0  0.42407  0.89354  0.72514  1.0000
  H   H902      1.0  0.41341  0.84981  0.68766  1.0000
  H   H903      1.0  0.41927  0.85569  0.72417  1.0000
  H   H904      1.0  0.38862  0.84945  0.73467  1.0000
  H   H905      1.0  0.37731  0.86030  0.71621  1.0000
  H   H906      1.0  0.39016  0.87997  0.67824  1.0000
  H   H907      1.0  0.41326  0.89142  0.67702  1.0000
  H   H908      1.0  0.40620  0.90302  0.75315  1.0000
  H   H909      1.0  0.39675  0.89905  0.71724  1.0000
  H   H910      1.0  0.38668  0.88354  0.74535  1.0000
  H   H911      1.0  0.44406  0.86635  0.69025  1.0000
  H   H912      1.0  0.43623  0.88153  0.67527  1.0000
  H   H913      1.0  0.44365  0.88356  0.71296  1.0000
  H   H914      1.0  0.37369  0.84295  0.67153  1.0000
  H   H915      1.0  0.36586  0.82932  0.70149  1.0000
  H   H916      1.0  0.38606  0.83155  0.68766  1.0000
  H   H917      1.0  0.39030  0.86742  0.63510  1.0000
  H   H918      1.0  0.40099  0.85477  0.64990  1.0000
  H   H919      1.0  0.41359  0.87642  0.63628  1.0000
  C   C550      1.0  0.43042  0.87941  0.97103  1.0000
  C   C551      1.0  0.25666  0.67053  0.78111  1.0000
  H   H920      1.0  0.42835  0.84001  0.59897  1.0000
  H   H921      1.0  0.31922  0.51870  0.94516  1.0000
  H   H922      1.0  0.45445  0.93416  0.94813  1.0000
  H   H923      1.0  0.47699  0.89133  0.94446  1.0000
  H   H924      1.0  0.27985  0.50871  0.66320  1.0000
  C   C552      1.0  0.40557  0.53279  0.65642  1.0000
  C   C553      1.0  0.39678  0.54994  0.70624  1.0000
  H   H925      1.0  0.39176  0.52456  0.66198  1.0000
  H   H926      1.0  0.38108  0.54544  0.65230  1.0000
  H   H927      1.0  0.40093  0.55607  0.72830  1.0000
  H   H928      1.0  0.38461  0.55144  0.69993  1.0000
  H   H929      1.0  0.39373  0.53569  0.70809  1.0000
  H   H930      1.0  0.40442  0.50957  0.63271  1.0000
  C   C554      1.0  0.42566  0.56234  0.63974  1.0000
  C   C555      1.0  0.43154  0.77087  0.70555  1.0000
  H   H931      1.0  0.41562  0.78275  0.74544  1.0000
  H   H932      1.0  0.42219  0.75666  0.70427  1.0000
  H   H933      1.0  0.42434  0.77930  0.70299  1.0000
  H   H934      1.0  0.43991  0.77327  0.68662  1.0000
  N   N39       1.0  0.30389  0.81125  0.88785  1.0000
  C   C556      1.0  0.30566  0.82799  0.90372  1.0000
  C   C557      1.0  0.30265  0.81423  0.85600  1.0000
  C   C558      1.0  0.32049  0.80890  0.89465  1.0000
  C   C559      1.0  0.28788  0.79581  0.89794  1.0000
  C   C560      1.0  0.30946  0.82898  0.93668  1.0000
  C   C561      1.0  0.28740  0.81888  0.84602  1.0000
  C   C562      1.0  0.32170  0.79256  0.88071  1.0000
  H   H935      1.0  0.44981  0.58776  0.84465  1.0000
  H   H936      1.0  0.31633  0.83987  0.89487  1.0000
  H   H937      1.0  0.29345  0.83006  0.90060  1.0000
  H   H938      1.0  0.30156  0.80271  0.84246  1.0000
  H   H939      1.0  0.31502  0.82523  0.84947  1.0000
  H   H940      1.0  0.33224  0.82089  0.88855  1.0000
  H   H941      1.0  0.32231  0.80760  0.91821  1.0000
  H   H942      1.0  0.29098  0.79126  0.91898  1.0000
  H   H943      1.0  0.27724  0.80012  0.90209  1.0000
  H   H944      1.0  0.32339  0.83161  0.94196  1.0000
  H   H945      1.0  0.30763  0.84040  0.94615  1.0000
  H   H946      1.0  0.30047  0.81690  0.94736  1.0000
  H   H947      1.0  0.34860  0.50664  0.94739  1.0000
  H   H948      1.0  0.29085  0.53086  0.65309  1.0000
  H   H949      1.0  0.29027  0.83279  0.85235  1.0000
  H   H950      1.0  0.46594  0.62392  0.95169  1.0000
  H   H951      1.0  0.44738  0.95817  0.51677  1.0000
  H   H952      1.0  0.47769  0.87818  0.66720  1.0000
  C   C563      1.0  0.42591  0.78559  0.76301  1.0000
  H   H953      1.0  0.42172  0.90582  0.97534  1.0000
  H   H954      1.0  0.41393  0.53089  0.67407  1.0000
  H   H955      1.0  0.43591  0.79935  0.75989  1.0000
  H   H956      1.0  0.27927  0.78842  0.79937  1.0000
  H   H957      1.0  0.45629  0.63411  0.82343  1.0000
  H   H958      1.0  0.42317  0.52923  0.62512  1.0000
  C   C564      1.0  0.25571  0.76383  0.79958  1.0000
  C   C565      1.0  0.44416  0.54912  0.53477  1.0000
  H   H959      1.0  0.47995  0.60799  0.85258  1.0000
  H   H960      1.0  0.41205  0.79657  0.79001  1.0000
  H   H961      1.0  0.46528  0.90741  0.96902  1.0000
  S   S170      1.0  0.41530  0.92689  0.52660  1.0000
  H   H962      1.0  0.43197  0.92585  0.93299  1.0000
  C   C566      1.0  0.40893  0.52397  0.62921  1.0000
  C   C567      1.0  0.46937  0.57306  0.51547  1.0000
  C   C568      1.0  0.47082  0.86146  0.62813  1.0000
  H   H963      1.0  0.46294  0.88237  0.64302  1.0000
  C   C569      1.0  0.43408  0.85423  0.60566  1.0000
  H   H964      1.0  0.41614  0.87554  0.97381  1.0000
  C   C570      1.0  0.31512  0.55946  0.68524  1.0000
  C   C571      1.0  0.44353  0.77569  0.73331  1.0000
  C   C572      1.0  0.41695  0.78608  0.79134  1.0000
  H   H965      1.0  0.45319  0.78978  0.73201  1.0000
  H   H966      1.0  0.44866  0.61064  0.82054  1.0000
  H   H967      1.0  0.32365  0.53977  0.69922  1.0000
  C   C573      1.0  0.41176  0.55960  0.68569  1.0000
  H   H968      1.0  0.40532  0.77346  0.79456  1.0000
  H   H969      1.0  0.41418  0.72678  0.75137  1.0000
  C   C574      1.0  0.45864  0.62279  0.83165  1.0000
  H   H970      1.0  0.45461  0.87935  0.59544  1.0000
  H   H971      1.0  0.31227  0.78011  0.88994  1.0000
  C   C575      1.0  0.39326  0.55402  0.64150  1.0000
  H   H972      1.0  0.25733  0.50984  0.68732  1.0000
  H   H973      1.0  0.48803  0.91175  0.52682  1.0000
  S   S171      1.0  0.47151  0.59044  0.97876  1.0000
  N   N40       1.0  0.43437  0.77280  0.76147  1.0000
  H   H974      1.0  0.37184  0.96616  0.59641  1.0000
  C   C576      1.0  0.48284  0.59578  0.89123  1.0000
  C   C577      1.0  0.42017  0.75423  0.76312  1.0000
  H   H975      1.0  0.45144  0.76799  0.73157  1.0000
  N   N41       1.0  0.40895  0.55210  0.65505  1.0000
  H   H976      1.0  0.42407  0.55977  0.69595  1.0000
  H   H977      1.0  0.47281  0.78155  0.76890  1.0000
  H   H978      1.0  0.42619  0.78958  0.81053  1.0000
  C   C578      1.0  0.45717  0.62256  0.86474  1.0000
  H   H979      1.0  0.44433  0.62277  0.86936  1.0000
  H   H980      1.0  0.43786  0.52318  0.51611  1.0000
  H   H981      1.0  0.45444  0.57636  0.55012  1.0000
  H   H982      1.0  0.41291  0.86314  0.92066  1.0000
  C   C579      1.0  0.42578  0.73892  0.75925  1.0000
  H   H983      1.0  0.48378  0.88775  0.58654  1.0000
  H   H984      1.0  0.48796  0.64381  0.66444  1.0000
  H   H985      1.0  0.47982  0.58392  0.87695  1.0000
  C   C580      1.0  0.25465  0.65566  0.68509  1.0000
  H   H986      1.0  0.41359  0.57364  0.68620  1.0000
  H   H987      1.0  0.41419  0.75230  0.78454  1.0000
  H   H988      1.0  0.48772  0.62296  0.88203  1.0000
  C   C581      1.0  0.44025  0.99707  0.55559  1.0000
  H   H989      1.0  0.43403  0.96743  0.67070  1.0000
  H   H990      1.0  0.43489  0.90263  0.90885  1.0000
  C   C582      1.0  0.49404  0.63687  0.62239  1.0000
  N   N42       1.0  0.46643  0.86065  0.59617  1.0000
  C   C583      1.0  0.45585  0.60875  0.91126  1.0000
  H   H991      1.0  0.43555  0.74115  0.74263  1.0000
  C   C584      1.0  0.44661  0.58980  0.86713  1.0000
  H   H992      1.0  0.48139  0.62566  0.61891  1.0000
  C   C585      1.0  0.47449  0.87918  0.64402  1.0000
  H   H993      1.0  0.31451  0.51281  0.67211  1.0000
  H   H994      1.0  0.41291  0.95153  0.65790  1.0000
  H   H995      1.0  0.43095  0.73611  0.78003  1.0000
  C   C586      1.0  0.44752  0.77713  0.78690  1.0000
  H   H996      1.0  0.45359  0.79163  0.79238  1.0000
  H   H997      1.0  0.30192  0.50586  0.63881  1.0000
  H   H998      1.0  0.49190  0.74893  0.62932  1.0000
  C   C587      1.0  0.37104  0.51540  0.88396  1.0000
  H   H999      1.0  0.33506  0.79333  0.88566  1.0000
  H   H1000     1.0  0.26711  0.68064  0.76892  1.0000
  H   H1001     1.0  0.49085  0.88848  0.85499  1.0000
  H   H1002     1.0  0.39430  0.53101  0.91057  1.0000
  C   C588      1.0  0.25994  0.73692  0.79654  1.0000
  C   C589      1.0  0.36354  0.51885  0.99931  1.0000
  C   C590      1.0  0.47038  0.62393  0.92939  1.0000
  H   H1003     1.0  0.44086  0.77071  0.80670  1.0000
  N   N43       1.0  0.45934  0.60760  0.87974  1.0000
  C   C591      1.0  0.47775  0.60940  0.87581  1.0000
  C   C592      1.0  0.45104  0.86515  0.59002  1.0000
  H   H1004     1.0  0.48908  0.70951  0.67305  1.0000
  H   H1005     1.0  0.29199  0.51588  0.74067  1.0000
  H   H1006     1.0  0.28816  0.77731  0.86187  1.0000
  S   S172      1.0  0.49326  0.86753  0.80740  1.0000
  H   H1007     1.0  0.47044  0.77415  0.80490  1.0000
  C   C593      1.0  0.37605  0.53790  0.99164  1.0000
  H   H1008     1.0  0.46025  0.85065  0.63932  1.0000
  C   C594      1.0  0.38544  0.99591  0.65666  1.0000
  C   C595      1.0  0.46327  0.77236  0.78363  1.0000
  H   H1009     1.0  0.26702  0.80514  0.72861  1.0000
  H   H1010     1.0  0.39536  0.53335  0.50716  1.0000
  N   N44       1.0  0.29498  0.52709  0.69816  1.0000
  H   H1011     1.0  0.49147  0.96006  0.54191  1.0000
  C   C596      1.0  0.47500  0.75060  0.71178  1.0000
  C   C597      1.0  0.49698  0.74772  0.74363  1.0000
  H   H1012     1.0  0.46333  0.74458  0.69760  1.0000
  H   H1013     1.0  0.46374  0.88884  0.91191  1.0000
  H   H1014     1.0  0.42468  0.89800  0.51354  1.0000
  H   H1015     1.0  0.30908  0.51425  0.72187  1.0000
  H   H1016     1.0  0.27110  0.76105  0.69500  1.0000
  H   H1017     1.0  0.42244  0.58654  0.88886  1.0000
  H   H1018     1.0  0.45558  0.87434  0.94181  1.0000
  H   H1019     1.0  0.31447  0.55658  0.66172  1.0000
  H   H1020     1.0  0.47560  0.67105  0.60982  1.0000
  C   C598      1.0  0.46343  0.88814  0.93580  1.0000
  H   H1021     1.0  0.49737  0.83182  0.97028  1.0000
  H   H1022     1.0  0.48776  0.67637  0.64353  1.0000
  C   C599      1.0  0.40586  0.99103  0.60925  1.0000
  H   H1023     1.0  0.45942  0.75852  0.77597  1.0000
  C   C600      1.0  0.25069  0.65158  0.76798  1.0000
  H   H1024     1.0  0.27472  0.78547  0.66136  1.0000
  H   H1025     1.0  0.46215  0.91310  0.93404  1.0000
  H   H1026     1.0  0.47092  0.94751  0.57845  1.0000
  S   S173      1.0  0.47058  0.71626  0.71969  1.0000
  C   C601      1.0  0.47637  0.83545  0.58834  1.0000
  C   C602      1.0  0.45733  0.90171  0.94864  1.0000
  H   H1027     1.0  0.49212  0.90482  0.74180  1.0000
  C   C603      1.0  0.48951  0.55692  0.96997  1.0000
  Fe  Fe84      1.0  0.47657  0.69293  0.73396  1.0000
  H   H1028     1.0  0.46937  0.98539  0.53282  1.0000
  H   H1029     1.0  0.27005  0.65550  0.72344  1.0000
  H   H1030     1.0  0.43089  0.86765  0.96035  1.0000
  H   H1031     1.0  0.29696  0.82396  0.68517  1.0000
  H   H1032     1.0  0.47295  0.54008  0.00108  1.0000
  H   H1033     1.0  0.41492  0.96794  0.68583  1.0000
  C   C604      1.0  0.38910  0.54929  0.60894  1.0000
  H   H1034     1.0  0.41488  0.89322  0.92718  1.0000
  H   H1035     1.0  0.45043  0.83238  0.59617  1.0000
  C   C605      1.0  0.48999  0.73566  0.63682  1.0000
  H   H1036     1.0  0.43608  0.85579  0.62947  1.0000
  H   H1037     1.0  0.26123  0.50934  0.72616  1.0000
  H   H1038     1.0  0.42406  0.85919  0.59953  1.0000
  S   S174      1.0  0.39641  0.50954  0.95671  1.0000
  C   C606      1.0  0.49826  0.77723  0.73433  1.0000
  H   H1039     1.0  0.44781  0.57893  0.87938  1.0000
  Fe  Fe85      1.0  0.38575  0.91378  0.52736  1.0000
  H   H1040     1.0  0.39376  0.99234  0.60208  1.0000
  H   H1041     1.0  0.40080  0.55234  0.59610  1.0000
  N   N45       1.0  0.43793  0.89561  0.95292  1.0000
  Fe  Fe86      1.0  0.48678  0.67170  0.77923  1.0000
  H   H1042     1.0  0.41598  0.87411  0.88740  1.0000
  H   H1043     1.0  0.31993  0.79187  0.85690  1.0000
  H   H1044     1.0  0.44731  0.86358  0.56651  1.0000
  C   C607      1.0  0.43556  0.91031  0.96900  1.0000
  H   H1045     1.0  0.43445  0.58976  0.65765  1.0000
  H   H1046     1.0  0.43698  0.56104  0.65107  1.0000
  C   C608      1.0  0.42258  0.87416  0.90865  1.0000
  H   H1047     1.0  0.42015  0.58476  0.62520  1.0000
  H   H1048     1.0  0.26662  0.79646  0.68519  1.0000
  H   H1049     1.0  0.48352  0.85985  0.54178  1.0000
  C   C609      1.0  0.42762  0.89226  0.92433  1.0000
  S   S175      1.0  0.48263  0.85889  0.72771  1.0000
  H   H1050     1.0  0.47630  0.59135  0.91177  1.0000
  H   H1051     1.0  0.44351  0.61050  0.91369  1.0000
  N   N46       1.0  0.47495  0.96548  0.50957  1.0000
  H   H1052     1.0  0.25320  0.62021  0.75498  1.0000
  C   C610      1.0  0.44032  0.92774  0.95296  1.0000
  H   H1053     1.0  0.45687  0.84019  0.56176  1.0000
  H   H1054     1.0  0.42409  0.59555  0.85319  1.0000
  N   N47       1.0  0.40326  0.97969  0.63526  1.0000
  C   C611      1.0  0.27931  0.77932  0.87712  1.0000
  S   S176      1.0  0.34726  0.52124  0.70263  1.0000
  C   C612      1.0  0.47424  0.90870  0.52388  1.0000
  H   H1055     1.0  0.45336  0.59615  0.92219  1.0000
  C   C613      1.0  0.48175  0.73970  0.72566  1.0000
  H   H1056     1.0  0.47842  0.52848  0.97386  1.0000
  H   H1057     1.0  0.49423  0.56933  0.98336  1.0000
  C   C614      1.0  0.44927  0.55852  0.99897  1.0000
  H   H1058     1.0  0.34911  0.52765  0.95180  1.0000
  H   H1059     1.0  0.48605  0.89030  0.63565  1.0000
  H   H1060     1.0  0.28350  0.81790  0.65253  1.0000
  H   H1061     1.0  0.25654  0.77700  0.74231  1.0000
  H   H1062     1.0  0.28406  0.54024  0.72691  1.0000
  H   H1063     1.0  0.48268  0.62202  0.93139  1.0000
  C   C615      1.0  0.29235  0.52078  0.66700  1.0000
  H   H1064     1.0  0.28600  0.81794  0.82208  1.0000
  H   H1065     1.0  0.48981  0.84602  0.58674  1.0000
  H   H1066     1.0  0.36851  0.51000  0.98854  1.0000
  C   C616      1.0  0.43854  0.90122  0.51658  1.0000
  Fe  Fe87      1.0  0.49453  0.85200  0.76704  1.0000
  H   H1067     1.0  0.47775  0.55612  0.95709  1.0000
  C   C617      1.0  0.35392  0.50997  0.65050  1.0000
  H   H1068     1.0  0.34931  0.51923  0.64149  1.0000
  H   H1069     1.0  0.47000  0.87195  0.53769  1.0000
  S   S177      1.0  0.49493  0.94555  0.97474  1.0000
  H   H1070     1.0  0.25280  0.52397  0.71191  1.0000
  S   S178      1.0  0.37871  0.50527  0.55188  1.0000
  C   C618      1.0  0.46176  0.84208  0.58479  1.0000
  C   C619      1.0  0.42746  0.00097  0.54108  1.0000
  C   C620      1.0  0.34209  0.51382  0.95901  1.0000
  H   H1071     1.0  0.49604  0.67162  0.88931  1.0000
  H   H1072     1.0  0.42529  0.97448  0.62218  1.0000
  H   H1073     1.0  0.25844  0.62510  0.71743  1.0000
  H   H1074     1.0  0.47660  0.69883  0.62731  1.0000
  H   H1075     1.0  0.37698  0.53940  0.96795  1.0000
  C   C621      1.0  0.30742  0.51689  0.65529  1.0000
  C   C622      1.0  0.48324  0.76923  0.71591  1.0000
  H   H1076     1.0  0.27396  0.76721  0.89006  1.0000
  H   H1077     1.0  0.31684  0.52849  0.64400  1.0000
  H   H1078     1.0  0.26227  0.64839  0.77042  1.0000
  C   C623      1.0  0.37138  0.95893  0.61643  1.0000
  H   H1079     1.0  0.39469  0.95468  0.61156  1.0000
  C   C624      1.0  0.29547  0.51330  0.71865  1.0000
  H   H1080     1.0  0.47815  0.58697  0.51550  1.0000
  H   H1081     1.0  0.38709  0.95274  0.64713  1.0000
  C   C625      1.0  0.48213  0.87400  0.58165  1.0000
  H   H1082     1.0  0.44361  0.91399  0.98952  1.0000
  H   H1083     1.0  0.40890  0.98457  0.59032  1.0000
  H   H1084     1.0  0.47570  0.82909  0.60943  1.0000
  H   H1085     1.0  0.45364  0.88568  0.00097  1.0000
  S   S179      1.0  0.32291  0.50894  0.77861  1.0000
  H   H1086     1.0  0.26215  0.67099  0.80344  1.0000
  C   C626      1.0  0.47924  0.98445  0.51826  1.0000
  C   C627      1.0  0.48415  0.54042  0.98861  1.0000
  H   H1087     1.0  0.48943  0.73619  0.66066  1.0000
  H   H1088     1.0  0.25465  0.72259  0.79585  1.0000
  H   H1089     1.0  0.41505  0.99032  0.53379  1.0000
  C   C628      1.0  0.28071  0.53273  0.70579  1.0000
  C   C629      1.0  0.48199  0.87195  0.54850  1.0000
  H   H1090     1.0  0.43101  0.99168  0.64902  1.0000
  H   H1091     1.0  0.49347  0.88336  0.54038  1.0000
  C   C630      1.0  0.26205  0.51789  0.70769  1.0000
  H   H1092     1.0  0.49449  0.87385  0.59040  1.0000
  C   C631      1.0  0.38052  0.50507  0.92774  1.0000
  C   C632      1.0  0.49773  0.99572  0.53202  1.0000
  H   H1093     1.0  0.48880  0.70236  0.59582  1.0000
  C   C633      1.0  0.49776  0.64712  0.64829  1.0000
  C   C634      1.0  0.48804  0.68054  0.62099  1.0000
  C   C635      1.0  0.48917  0.69949  0.61914  1.0000
  H   H1094     1.0  0.38938  0.54952  0.52272  1.0000
  H   H1095     1.0  0.49889  0.67898  0.61020  1.0000
  H   H1096     1.0  0.34301  0.53852  0.99576  1.0000
  Fe  Fe88      1.0  0.49887  0.82206  0.73294  1.0000
  H   H1097     1.0  0.49957  0.55783  0.95443  1.0000
  H   H1098     1.0  0.49718  0.60206  0.89714  1.0000
  H   H1099     1.0  0.46940  0.95589  0.99906  1.0000
  H   H1100     1.0  0.26364  0.67288  0.72236  1.0000
  H   H1101     1.0  0.41973  0.56252  0.50733  1.0000
  C   C636      1.0  0.25847  0.65834  0.71802  1.0000
  C   C637      1.0  0.43920  0.88120  0.00147  1.0000
  H   H1102     1.0  0.37245  0.54805  0.00147  1.0000
  H   H1103     1.0  0.32294  0.52007  0.00087  1.0000
  H   H1104     1.0  0.41576  0.00219  0.99161  1.0000
  H   H1105     1.0  0.25008  0.66548  0.67661  1.0000
  H   H1106     1.0  0.49980  0.85967  0.95542  1.0000
  S   S180      1.0  0.71577  0.47661  0.26955  1.0000
  H   H1107     1.0  0.57364  0.43106  0.34394  1.0000
  S   S181      1.0  0.61644  0.09213  0.43034  1.0000
  H   H1108     1.0  0.62957  0.49631  0.28977  1.0000
  Fe  Fe89      1.0  0.62763  0.10664  0.01350  1.0000
  H   H1109     1.0  0.51551  0.34025  0.21158  1.0000
  S   S182      1.0  0.63023  0.11170  0.06253  1.0000
  C   C638      1.0  0.56148  0.04085  0.04288  1.0000
  S   S183      1.0  0.57967  0.10361  0.46175  1.0000
  Fe  Fe90      1.0  0.64117  0.11474  0.44796  1.0000
  S   S184      1.0  0.65663  0.13937  0.42244  1.0000
  C   C639      1.0  0.71290  0.18907  0.37999  1.0000
  H   H1110     1.0  0.55165  0.40414  0.40589  1.0000
  Fe  Fe91      1.0  0.67864  0.17999  0.19433  1.0000
  S   S185      1.0  0.67674  0.20583  0.20302  1.0000
  S   S186      1.0  0.68312  0.17388  0.14777  1.0000
  Fe  Fe92      1.0  0.67323  0.16993  0.25813  1.0000
  S   S187      1.0  0.67061  0.19479  0.27083  1.0000
  S   S188      1.0  0.67028  0.14726  0.28781  1.0000
  Fe  Fe93      1.0  0.65397  0.18972  0.22976  1.0000
  S   S189      1.0  0.62757  0.19027  0.22078  1.0000
  Fe  Fe94      1.0  0.69396  0.20901  0.24307  1.0000
  S   S190      1.0  0.71492  0.23544  0.26283  1.0000
  S   S191      1.0  0.65489  0.16379  0.21871  1.0000
  S   S192      1.0  0.69756  0.18418  0.23277  1.0000
  H   H1111     1.0  0.51774  0.13194  0.24866  1.0000
  S   S193      1.0  0.53531  0.19507  0.33837  1.0000
  H   H1112     1.0  0.57057  0.11364  0.05116  1.0000
  Fe  Fe95      1.0  0.52489  0.17625  0.25917  1.0000
  S   S194      1.0  0.54456  0.20443  0.27061  1.0000
  Fe  Fe96      1.0  0.55355  0.19207  0.30675  1.0000
  S   S195      1.0  0.58148  0.19775  0.32117  1.0000
  Fe  Fe97      1.0  0.52453  0.20531  0.30121  1.0000
  S   S196      1.0  0.51614  0.22714  0.31546  1.0000
  S   S197      1.0  0.53527  0.16415  0.29395  1.0000
  S   S198      1.0  0.67510  0.47316  0.22357  1.0000
  S   S199      1.0  0.67040  0.47816  0.29244  1.0000
  H   H1113     1.0  0.55132  0.49126  0.43899  1.0000
  Fe  Fe98      1.0  0.65273  0.46847  0.25232  1.0000
  S   S200      1.0  0.62569  0.44582  0.24429  1.0000
  Fe  Fe99      1.0  0.51553  0.34777  0.33162  1.0000
  S   S201      1.0  0.53890  0.34101  0.33410  1.0000
  C   C640      1.0  0.51978  0.27758  0.30893  1.0000
  S   S202      1.0  0.54645  0.35482  0.26843  1.0000
  Fe  Fe100     1.0  0.53007  0.32900  0.28934  1.0000
  S   S203      1.0  0.53212  0.30458  0.26901  1.0000
  Fe  Fe101     1.0  0.55311  0.36714  0.31298  1.0000
  S   S204      1.0  0.58022  0.38678  0.33001  1.0000
  S   S205      1.0  0.53033  0.37452  0.31324  1.0000
  H   H1114     1.0  0.60503  0.44459  0.35583  1.0000
  H   H1115     1.0  0.56774  0.39952  0.44396  1.0000
  H   H1116     1.0  0.51571  0.28619  0.32135  1.0000
  C   C641      1.0  0.59347  0.38055  0.43093  1.0000
  C   C642      1.0  0.50728  0.37101  0.19766  1.0000
  C   C643      1.0  0.51779  0.32863  0.15667  1.0000
  H   H1117     1.0  0.51322  0.29638  0.18435  1.0000
  C   C644      1.0  0.50770  0.19300  0.39182  1.0000
  H   H1118     1.0  0.53513  0.20767  0.40641  1.0000
  H   H1119     1.0  0.57428  0.45026  0.32697  1.0000
  C   C645      1.0  0.51812  0.15366  0.40257  1.0000
  H   H1120     1.0  0.56501  0.01460  0.37929  1.0000
  Fe  Fe102     1.0  0.67604  0.50018  0.21683  1.0000
  Fe  Fe103     1.0  0.51666  0.40893  0.04587  1.0000
  H   H1121     1.0  0.53355  0.33030  0.42797  1.0000
  C   C646      1.0  0.73620  0.25143  0.25367  1.0000
  S   S206      1.0  0.50411  0.17786  0.28714  1.0000
  C   C647      1.0  0.59303  0.40297  0.30602  1.0000
  C   C648      1.0  0.58562  0.40533  0.27988  1.0000
  C   C649      1.0  0.59589  0.41849  0.26127  1.0000
  C   C650      1.0  0.61364  0.42940  0.26854  1.0000
  C   C651      1.0  0.62114  0.42703  0.29466  1.0000
  C   C652      1.0  0.61081  0.41389  0.31342  1.0000
  H   H1122     1.0  0.57194  0.39705  0.27399  1.0000
  H   H1123     1.0  0.59002  0.42020  0.24106  1.0000
  H   H1124     1.0  0.63489  0.43519  0.30024  1.0000
  H   H1125     1.0  0.61666  0.41204  0.33354  1.0000
  C   C653      1.0  0.52142  0.24889  0.30264  1.0000
  C   C654      1.0  0.53003  0.25480  0.27698  1.0000
  C   C655      1.0  0.53328  0.27187  0.26722  1.0000
  C   C656      1.0  0.52820  0.28341  0.28308  1.0000
  H   H1126     1.0  0.63983  0.48489  0.32628  1.0000
  H   H1127     1.0  0.53402  0.24615  0.26448  1.0000
  C   C657      1.0  0.52080  0.15114  0.43205  1.0000
  H   H1128     1.0  0.71754  0.18112  0.39417  1.0000
  C   C658      1.0  0.53667  0.30393  0.16084  1.0000
  C   C659      1.0  0.61502  0.19220  0.24923  1.0000
  C   C660      1.0  0.59777  0.19013  0.24293  1.0000
  C   C661      1.0  0.58739  0.19167  0.26494  1.0000
  C   C662      1.0  0.59430  0.19560  0.29337  1.0000
  C   C663      1.0  0.61159  0.19776  0.29973  1.0000
  C   C664      1.0  0.62190  0.19591  0.27775  1.0000
  H   H1129     1.0  0.59239  0.18743  0.22095  1.0000
  H   H1130     1.0  0.57409  0.19004  0.25981  1.0000
  H   H1131     1.0  0.61705  0.20096  0.32166  1.0000
  H   H1132     1.0  0.63523  0.19767  0.28275  1.0000
  C   C665      1.0  0.65849  0.14067  0.38441  1.0000
  C   C666      1.0  0.65820  0.12653  0.36736  1.0000
  C   C667      1.0  0.66143  0.12868  0.33770  1.0000
  C   C668      1.0  0.66454  0.14479  0.32457  1.0000
  C   C669      1.0  0.66400  0.15867  0.34137  1.0000
  C   C670      1.0  0.66131  0.15670  0.37122  1.0000
  H   H1133     1.0  0.65616  0.11416  0.37721  1.0000
  H   H1134     1.0  0.66180  0.11785  0.32493  1.0000
  H   H1135     1.0  0.66619  0.17108  0.33155  1.0000
  H   H1136     1.0  0.66155  0.16772  0.38422  1.0000
  C   C671      1.0  0.64459  0.12970  0.08543  1.0000
  C   C672      1.0  0.65799  0.14482  0.07485  1.0000
  C   C673      1.0  0.66960  0.15828  0.09420  1.0000
  C   C674      1.0  0.66777  0.15693  0.12424  1.0000
  C   C675      1.0  0.65423  0.14190  0.13476  1.0000
  C   C676      1.0  0.64277  0.12835  0.11547  1.0000
  H   H1137     1.0  0.65960  0.14603  0.05182  1.0000
  H   H1138     1.0  0.68010  0.16983  0.08586  1.0000
  H   H1139     1.0  0.65286  0.14055  0.15782  1.0000
  H   H1140     1.0  0.63252  0.11666  0.12393  1.0000
  H   H1141     1.0  0.53979  0.27616  0.24722  1.0000
  H   H1142     1.0  0.71002  0.47868  0.20852  1.0000
  C   C677      1.0  0.52640  0.30761  0.18509  1.0000
  H   H1143     1.0  0.56773  0.40511  0.37979  1.0000
  C   C678      1.0  0.54389  0.09630  0.03751  1.0000
  C   C679      1.0  0.74516  0.24884  0.23044  1.0000
  H   H1144     1.0  0.71774  0.16434  0.34141  1.0000
  C   C680      1.0  0.54421  0.33939  0.18923  1.0000
  H   H1145     1.0  0.54496  0.44592  0.48988  1.0000
  H   H1146     1.0  0.57974  0.45081  0.36559  1.0000
  C   C681      1.0  0.56754  0.09995  0.49295  1.0000
  H   H1147     1.0  0.50542  0.30834  0.12194  1.0000
  H   H1148     1.0  0.59470  0.38765  0.45192  1.0000
  H   H1149     1.0  0.63263  0.44891  0.35206  1.0000
  H   H1150     1.0  0.71211  0.15744  0.30441  1.0000
  C   C682      1.0  0.53576  0.34364  0.42042  1.0000
  C   C683      1.0  0.58095  0.44574  0.34390  1.0000
  H   H1151     1.0  0.59195  0.01514  0.03791  1.0000
  C   C684      1.0  0.51304  0.38377  0.17630  1.0000
  N   N48       1.0  0.61206  0.16108  0.13689  1.0000
  C   C685      1.0  0.62494  0.18040  0.13932  1.0000
  C   C686      1.0  0.59375  0.16029  0.13585  1.0000
  C   C687      1.0  0.61504  0.15369  0.10867  1.0000
  C   C688      1.0  0.61550  0.15159  0.16224  1.0000
  C   C689      1.0  0.64462  0.18427  0.13900  1.0000
  C   C690      1.0  0.58965  0.17006  0.16112  1.0000
  C   C691      1.0  0.60280  0.13423  0.10052  1.0000
  C   C692      1.0  0.59983  0.13500  0.17233  1.0000
  H   H1152     1.0  0.62221  0.18800  0.12174  1.0000
  H   H1153     1.0  0.62354  0.18669  0.15982  1.0000
  H   H1154     1.0  0.58353  0.14642  0.13517  1.0000
  H   H1155     1.0  0.59124  0.16600  0.11553  1.0000
  H   H1156     1.0  0.61400  0.16183  0.09045  1.0000
  H   H1157     1.0  0.62857  0.15444  0.10846  1.0000
  H   H1158     1.0  0.62623  0.14754  0.15771  1.0000
  H   H1159     1.0  0.62049  0.16063  0.18169  1.0000
  H   H1160     1.0  0.65267  0.19850  0.14483  1.0000
  H   H1161     1.0  0.64827  0.17656  0.15510  1.0000
  H   H1162     1.0  0.64851  0.18192  0.11728  1.0000
  H   H1163     1.0  0.57517  0.16540  0.16221  1.0000
  H   H1164     1.0  0.59478  0.16775  0.18225  1.0000
  H   H1165     1.0  0.59525  0.18457  0.15790  1.0000
  H   H1166     1.0  0.58865  0.13132  0.10046  1.0000
  H   H1167     1.0  0.60579  0.12506  0.11442  1.0000
  H   H1168     1.0  0.60544  0.13125  0.07819  1.0000
  H   H1169     1.0  0.59013  0.13857  0.18314  1.0000
  H   H1170     1.0  0.60483  0.12843  0.18867  1.0000
  H   H1171     1.0  0.59295  0.12509  0.15478  1.0000
  N   N49       1.0  0.59863  0.13900  0.38365  1.0000
  C   C693      1.0  0.61235  0.13866  0.40537  1.0000
  C   C694      1.0  0.59690  0.12587  0.35957  1.0000
  C   C695      1.0  0.58145  0.13283  0.39856  1.0000
  C   C696      1.0  0.60438  0.15771  0.37354  1.0000
  C   C697      1.0  0.61527  0.14996  0.43346  1.0000
  C   C698      1.0  0.61389  0.12957  0.34363  1.0000
  C   C699      1.0  0.56540  0.13219  0.38054  1.0000
  C   C700      1.0  0.59667  0.16005  0.34385  1.0000
  H   H1172     1.0  0.60919  0.12482  0.41182  1.0000
  H   H1173     1.0  0.62545  0.14351  0.39575  1.0000
  H   H1174     1.0  0.58667  0.12471  0.34294  1.0000
  H   H1175     1.0  0.59232  0.11225  0.36808  1.0000
  H   H1176     1.0  0.57783  0.11934  0.40704  1.0000
  H   H1177     1.0  0.58260  0.14157  0.41765  1.0000
  H   H1178     1.0  0.60134  0.16592  0.38975  1.0000
  H   H1179     1.0  0.61897  0.16417  0.37194  1.0000
  H   H1180     1.0  0.62761  0.15111  0.44484  1.0000
  H   H1181     1.0  0.61686  0.16361  0.42940  1.0000
  H   H1182     1.0  0.60450  0.14344  0.44837  1.0000
  H   H1183     1.0  0.62293  0.12563  0.35668  1.0000
  H   H1184     1.0  0.61055  0.12141  0.32322  1.0000
  H   H1185     1.0  0.62096  0.14363  0.33790  1.0000
  H   H1186     1.0  0.56235  0.12347  0.36092  1.0000
  H   H1187     1.0  0.56697  0.14568  0.37500  1.0000
  H   H1188     1.0  0.55364  0.12660  0.39386  1.0000
  H   H1189     1.0  0.59387  0.17193  0.34534  1.0000
  H   H1190     1.0  0.58423  0.14904  0.33603  1.0000
  H   H1191     1.0  0.60656  0.16297  0.32706  1.0000
  N   N50       1.0  0.66609  0.08630  0.07858  1.0000
  C   C701      1.0  0.68353  0.10226  0.08362  1.0000
  C   C702      1.0  0.66908  0.07000  0.08459  1.0000
  C   C703      1.0  0.65373  0.08777  0.10026  1.0000
  C   C704      1.0  0.65922  0.08632  0.04798  1.0000
  C   C705      1.0  0.68305  0.12056  0.08149  1.0000
  C   C706      1.0  0.63486  0.07302  0.09890  1.0000
  C   C707      1.0  0.64714  0.06816  0.03349  1.0000
  H   H1192     1.0  0.65692  0.05766  0.08026  1.0000
  H   H1193     1.0  0.67252  0.06970  0.10798  1.0000
  H   H1194     1.0  0.65934  0.08855  0.12269  1.0000
  H   H1195     1.0  0.65206  0.10018  0.09777  1.0000
  H   H1196     1.0  0.65188  0.09474  0.04683  1.0000
  H   H1197     1.0  0.67020  0.09255  0.03318  1.0000
  H   H1198     1.0  0.69668  0.13100  0.08018  1.0000
  H   H1199     1.0  0.52184  0.32542  0.23052  1.0000
  C   C708      1.0  0.56433  0.03988  0.01033  1.0000
  H   H1200     1.0  0.62735  0.07406  0.07938  1.0000
  S   S207      1.0  0.60844  0.08035  0.49769  1.0000
  H   H1201     1.0  0.65450  0.06029  0.02782  1.0000
  H   H1202     1.0  0.53934  0.13455  0.01991  1.0000
  H   H1203     1.0  0.63600  0.06007  0.04655  1.0000
  H   H1204     1.0  0.63618  0.16423  0.49808  1.0000
  C   C709      1.0  0.73908  0.48762  0.26679  1.0000
  C   C710      1.0  0.50801  0.13731  0.44686  1.0000
  C   C711      1.0  0.74879  0.47738  0.26534  1.0000
  N   N51       1.0  0.56128  0.37537  0.41794  1.0000
  C   C712      1.0  0.71652  0.47717  0.18903  1.0000
  C   C713      1.0  0.55067  0.37800  0.39300  1.0000
  C   C714      1.0  0.55565  0.35581  0.42260  1.0000
  C   C715      1.0  0.56035  0.38488  0.44537  1.0000
  C   C716      1.0  0.74427  0.41485  0.25127  1.0000
  C   C717      1.0  0.55424  0.39738  0.38703  1.0000
  C   C718      1.0  0.73634  0.21088  0.30980  1.0000
  H   H1205     1.0  0.59022  0.36638  0.43435  1.0000
  C   C719      1.0  0.73348  0.42382  0.26502  1.0000
  C   C720      1.0  0.58508  0.49820  0.10262  1.0000
  H   H1206     1.0  0.53635  0.37092  0.39560  1.0000
  H   H1207     1.0  0.55289  0.37203  0.37278  1.0000
  H   H1208     1.0  0.56151  0.35007  0.40640  1.0000
  H   H1209     1.0  0.72160  0.23072  0.36207  1.0000
  H   H1210     1.0  0.55109  0.31133  0.16504  1.0000
  H   H1211     1.0  0.56066  0.35373  0.44412  1.0000
  C   C721      1.0  0.55406  0.44261  0.03151  1.0000
  H   H1212     1.0  0.55032  0.33740  0.20986  1.0000
  H   H1213     1.0  0.54513  0.39741  0.36908  1.0000
  C   C722      1.0  0.59938  0.48731  0.36612  1.0000
  H   H1214     1.0  0.50886  0.39067  0.13279  1.0000
  H   H1215     1.0  0.52430  0.39626  0.18110  1.0000
  H   H1216     1.0  0.54819  0.03953  0.04751  1.0000
  H   H1217     1.0  0.70034  0.17969  0.36927  1.0000
  S   S208      1.0  0.57752  0.47638  0.48882  1.0000
  H   H1218     1.0  0.52022  0.21165  0.42907  1.0000
  H   H1219     1.0  0.52062  0.48361  0.46744  1.0000
  H   H1220     1.0  0.64142  0.07042  0.01285  1.0000
  H   H1221     1.0  0.63042  0.48004  0.12812  1.0000
  H   H1222     1.0  0.53747  0.36990  0.47104  1.0000
  C   C723      1.0  0.51633  0.26042  0.31850  1.0000
  C   C724      1.0  0.60193  0.02818  0.46580  1.0000
  H   H1223     1.0  0.65289  0.46749  0.34733  1.0000
  H   H1224     1.0  0.67773  0.12396  0.10110  1.0000
  S   S209      1.0  0.65249  0.49470  0.24292  1.0000
  H   H1225     1.0  0.63006  0.46396  0.30783  1.0000
  H   H1226     1.0  0.56104  0.36771  0.19096  1.0000
  S   S210      1.0  0.51815  0.37642  0.23247  1.0000
  H   H1227     1.0  0.60016  0.44261  0.31792  1.0000
  H   H1228     1.0  0.60313  0.45003  0.07617  1.0000
  S   S211      1.0  0.51207  0.13537  0.48431  1.0000
  C   C725      1.0  0.54188  0.38099  0.45588  1.0000
  C   C726      1.0  0.62050  0.47577  0.14484  1.0000
  H   H1229     1.0  0.52801  0.33317  0.14021  1.0000
  S   S212      1.0  0.53478  0.10535  0.06291  1.0000
  H   H1230     1.0  0.58669  0.02751  0.39427  1.0000
  H   H1231     1.0  0.52267  0.19102  0.43053  1.0000
  Fe  Fe104     1.0  0.51617  0.16791  0.32295  1.0000
  H   H1232     1.0  0.59659  0.48707  0.38942  1.0000
  H   H1233     1.0  0.53063  0.34168  0.39764  1.0000
  H   H1234     1.0  0.51040  0.38056  0.37162  1.0000
  S   S213      1.0  0.50557  0.33401  0.28772  1.0000
  H   H1235     1.0  0.52813  0.16434  0.39157  1.0000
  C   C727      1.0  0.54865  0.46480  0.00512  1.0000
  C   C728      1.0  0.54265  0.45001  0.02244  1.0000
  S   S214      1.0  0.64919  0.09747  0.47720  1.0000
  H   H1236     1.0  0.51390  0.33978  0.15973  1.0000
  H   H1237     1.0  0.61927  0.48995  0.09051  1.0000
  H   H1238     1.0  0.59131  0.50188  0.08159  1.0000
  H   H1239     1.0  0.72895  0.47624  0.19542  1.0000
  H   H1240     1.0  0.73039  0.43223  0.24951  1.0000
  H   H1241     1.0  0.58413  0.01488  0.36169  1.0000
  H   H1242     1.0  0.52737  0.14672  0.16257  1.0000
  H   H1243     1.0  0.55258  0.33840  0.17188  1.0000
  N   N52       1.0  0.59492  0.47285  0.10923  1.0000
  C   C729      1.0  0.59413  0.48927  0.12200  1.0000
  C   C730      1.0  0.60165  0.46445  0.13239  1.0000
  C   C731      1.0  0.57695  0.45968  0.09810  1.0000
  C   C732      1.0  0.60692  0.47814  0.08422  1.0000
  H   H1244     1.0  0.52812  0.04216  0.01552  1.0000
  H   H1245     1.0  0.54116  0.36243  0.20848  1.0000
  C   C733      1.0  0.56245  0.45353  0.12026  1.0000
  H   H1246     1.0  0.50556  0.12664  0.12571  1.0000
  C   C734      1.0  0.61780  0.49559  0.30080  1.0000
  C   C735      1.0  0.71916  0.49203  0.16765  1.0000
  H   H1247     1.0  0.60102  0.45146  0.12469  1.0000
  H   H1248     1.0  0.58755  0.48653  0.14294  1.0000
  H   H1249     1.0  0.57214  0.46505  0.07962  1.0000
  H   H1250     1.0  0.57743  0.44742  0.08926  1.0000
  C   C736      1.0  0.50546  0.37587  0.39254  1.0000
  H   H1251     1.0  0.58368  0.10399  0.01130  1.0000
  H   H1252     1.0  0.70490  0.23289  0.33975  1.0000
  C   C737      1.0  0.52208  0.20132  0.41615  1.0000
  H   H1253     1.0  0.56188  0.01581  0.49490  1.0000
  H   H1254     1.0  0.61375  0.47257  0.38145  1.0000
  H   H1255     1.0  0.56727  0.38162  0.46367  1.0000
  H   H1256     1.0  0.71030  0.19833  0.39458  1.0000
  H   H1257     1.0  0.54976  0.44478  0.10884  1.0000
  H   H1258     1.0  0.56053  0.46469  0.13039  1.0000
  H   H1259     1.0  0.56497  0.44549  0.13712  1.0000
  C   C738      1.0  0.54581  0.00745  0.00972  1.0000
  H   H1260     1.0  0.61408  0.01040  0.45777  1.0000
  H   H1261     1.0  0.62120  0.48753  0.15736  1.0000
  H   H1262     1.0  0.72270  0.48745  0.14722  1.0000
  H   H1263     1.0  0.52179  0.11734  0.20666  1.0000
  C   C739      1.0  0.57320  0.01452  0.48662  1.0000
  N   N53       1.0  0.52553  0.32536  0.18467  1.0000
  H   H1264     1.0  0.59315  0.46134  0.15125  1.0000
  H   H1265     1.0  0.60761  0.49962  0.12740  1.0000
  H   H1266     1.0  0.74109  0.20194  0.29858  1.0000
  H   H1267     1.0  0.59263  0.47549  0.31058  1.0000
  Fe  Fe105     1.0  0.62308  0.07527  0.46210  1.0000
  H   H1268     1.0  0.58135  0.37712  0.38833  1.0000
  C   C740      1.0  0.56958  0.09816  0.01287  1.0000
  H   H1269     1.0  0.53386  0.28963  0.16040  1.0000
  Fe  Fe106     1.0  0.60393  0.09889  0.46771  1.0000
  H   H1270     1.0  0.61020  0.04339  0.01506  1.0000
  H   H1271     1.0  0.57098  0.05400  0.05197  1.0000
  C   C741      1.0  0.63033  0.47088  0.32877  1.0000
  C   C742      1.0  0.58708  0.02954  0.47618  1.0000
  S   S215      1.0  0.61995  0.04694  0.45352  1.0000
  H   H1272     1.0  0.58059  0.44488  0.03163  1.0000
  H   H1273     1.0  0.60496  0.46778  0.28911  1.0000
  C   C743      1.0  0.63890  0.46360  0.35213  1.0000
  Fe  Fe107     1.0  0.50575  0.09737  0.05525  1.0000
  C   C744      1.0  0.55429  0.10591  0.49457  1.0000
  H   H1274     1.0  0.55126  0.11231  0.47641  1.0000
  H   H1275     1.0  0.53997  0.00842  0.03034  1.0000
  N   N54       1.0  0.61227  0.46967  0.33473  1.0000
  H   H1276     1.0  0.73906  0.23685  0.21704  1.0000
  Fe  Fe108     1.0  0.69324  0.48535  0.26274  1.0000
  H   H1277     1.0  0.62643  0.49230  0.36364  1.0000
  H   H1278     1.0  0.68219  0.05421  0.06817  1.0000
  C   C745      1.0  0.68375  0.06814  0.06760  1.0000
  H   H1279     1.0  0.67542  0.12141  0.06200  1.0000
  H   H1280     1.0  0.54126  0.36222  0.16949  1.0000
  H   H1281     1.0  0.63436  0.05955  0.10027  1.0000
  C   C746      1.0  0.57820  0.01474  0.38273  1.0000
  H   H1282     1.0  0.53287  0.30699  0.13922  1.0000
  H   H1283     1.0  0.62438  0.46778  0.16020  1.0000
  H   H1284     1.0  0.73728  0.19373  0.35910  1.0000
  H   H1285     1.0  0.69693  0.07663  0.07770  1.0000
  C   C747      1.0  0.58023  0.38304  0.40949  1.0000
  H   H1286     1.0  0.57078  0.48984  0.09894  1.0000
  H   H1287     1.0  0.69309  0.10223  0.06761  1.0000
  C   C748      1.0  0.60027  0.45033  0.33783  1.0000
  C   C749      1.0  0.50980  0.11728  0.24736  1.0000
  H   H1288     1.0  0.50654  0.22957  0.40697  1.0000
  H   H1289     1.0  0.58537  0.39755  0.40636  1.0000
  H   H1290     1.0  0.51917  0.07665  0.01996  1.0000
  H   H1291     1.0  0.53289  0.15996  0.44350  1.0000
  C   C750      1.0  0.54672  0.35889  0.18945  1.0000
  C   C751      1.0  0.57180  0.45069  0.02478  1.0000
  H   H1292     1.0  0.68342  0.07158  0.04466  1.0000
  C   C752      1.0  0.50171  0.31286  0.14226  1.0000
  C   C753      1.0  0.71932  0.16922  0.31908  1.0000
  C   C754      1.0  0.59501  0.01502  0.01546  1.0000
  S   S216      1.0  0.50415  0.37938  0.03897  1.0000
  H   H1293     1.0  0.52785  0.34841  0.43365  1.0000
  S   S217      1.0  0.52439  0.16408  0.21431  1.0000
  H   H1294     1.0  0.58665  0.47965  0.35436  1.0000
  H   H1295     1.0  0.62582  0.46636  0.08066  1.0000
  H   H1296     1.0  0.50510  0.09851  0.30857  1.0000
  Fe  Fe109     1.0  0.52250  0.36047  0.26937  1.0000
  H   H1297     1.0  0.69687  0.20166  0.34148  1.0000
  H   H1298     1.0  0.68959  0.10194  0.10528  1.0000
  H   H1299     1.0  0.72063  0.41342  0.27117  1.0000
  H   H1300     1.0  0.52315  0.12026  0.30482  1.0000
  H   H1301     1.0  0.70754  0.46422  0.17862  1.0000
  H   H1302     1.0  0.73773  0.26936  0.28885  1.0000
  H   H1303     1.0  0.62788  0.07496  0.11763  1.0000
  H   H1304     1.0  0.72551  0.23771  0.32488  1.0000
  H   H1305     1.0  0.70299  0.20892  0.30639  1.0000
  H   H1306     1.0  0.52920  0.44436  0.02877  1.0000
  C   C755      1.0  0.70852  0.20931  0.32871  1.0000
  C   C756      1.0  0.51542  0.32691  0.20998  1.0000
  H   H1307     1.0  0.69753  0.17608  0.32221  1.0000
  C   C757      1.0  0.71115  0.18255  0.31481  1.0000
  C   C758      1.0  0.71588  0.22875  0.33971  1.0000
  H   H1308     1.0  0.70601  0.49205  0.16307  1.0000
  N   N55       1.0  0.72122  0.20078  0.32884  1.0000
  H   H1309     1.0  0.70923  0.18359  0.29115  1.0000
  C   C759      1.0  0.72751  0.19953  0.35922  1.0000
  C   C760      1.0  0.56217  0.10352  0.03559  1.0000
  S   S218      1.0  0.54617  0.42300  0.05043  1.0000
  H   H1310     1.0  0.56427  0.03070  0.05458  1.0000
  C   C761      1.0  0.61362  0.48033  0.36216  1.0000
  H   H1311     1.0  0.63894  0.46918  0.37402  1.0000
  H   H1312     1.0  0.60449  0.50150  0.36060  1.0000
  H   H1313     1.0  0.53179  0.37800  0.43828  1.0000
  C   C762      1.0  0.60605  0.47636  0.30855  1.0000
  H   H1314     1.0  0.73714  0.40806  0.23070  1.0000
  C   C763      1.0  0.50244  0.14254  0.38760  1.0000
  H   H1315     1.0  0.73191  0.21684  0.29164  1.0000
  H   H1316     1.0  0.74196  0.46315  0.26635  1.0000
  H   H1317     1.0  0.58630  0.04218  0.47626  1.0000
  H   H1318     1.0  0.53257  0.30616  0.20603  1.0000
  H   H1319     1.0  0.61334  0.46501  0.04843  1.0000
  H   H1320     1.0  0.50395  0.09661  0.21330  1.0000
  C   C764      1.0  0.61239  0.46384  0.07222  1.0000
  C   C765      1.0  0.60260  0.01156  0.46560  1.0000
  H   H1321     1.0  0.60669  0.38635  0.42171  1.0000
  H   H1322     1.0  0.74009  0.43171  0.28496  1.0000
  C   C766      1.0  0.50521  0.38788  0.41412  1.0000
  H   H1323     1.0  0.74320  0.40384  0.26532  1.0000
  S   S219      1.0  0.62798  0.12228  0.48388  1.0000
  C   C767      1.0  0.50429  0.38064  0.14885  1.0000
  H   H1324     1.0  0.54219  0.39298  0.46728  1.0000
  H   H1325     1.0  0.73340  0.17477  0.31404  1.0000
  C   C768      1.0  0.57801  0.46601  0.00852  1.0000
  H   H1326     1.0  0.60081  0.48232  0.06582  1.0000
  S   S220      1.0  0.50016  0.41385  0.01113  1.0000
  C   C769      1.0  0.53314  0.08299  0.01764  1.0000
  H   H1327     1.0  0.53945  0.48116  0.48168  1.0000
  C   C770      1.0  0.52323  0.02853  0.00584  1.0000
  H   H1328     1.0  0.51007  0.40181  0.40961  1.0000
  H   H1329     1.0  0.73474  0.21295  0.36942  1.0000
  H   H1330     1.0  0.57775  0.04036  0.00923  1.0000
  H   H1331     1.0  0.55768  0.00535  0.01634  1.0000
  H   H1332     1.0  0.50894  0.11632  0.33397  1.0000
  C   C771      1.0  0.50822  0.15101  0.18750  1.0000
  H   H1333     1.0  0.52103  0.01896  0.02312  1.0000
  C   C772      1.0  0.53043  0.48753  0.48607  1.0000
  H   H1334     1.0  0.51116  0.20266  0.37440  1.0000
  H   H1335     1.0  0.50932  0.18143  0.38243  1.0000
  H   H1336     1.0  0.61045  0.50034  0.28532  1.0000
  H   H1337     1.0  0.50963  0.25603  0.33831  1.0000
  C   C773      1.0  0.51358  0.14373  0.16420  1.0000
  C   C774      1.0  0.50122  0.13230  0.14329  1.0000
  C   C775      1.0  0.74449  0.26715  0.27084  1.0000
  H   H1338     1.0  0.51803  0.11148  0.25835  1.0000
  C   C776      1.0  0.50847  0.11118  0.21550  1.0000
  H   H1339     1.0  0.50310  0.13388  0.29427  1.0000
  C   C777      1.0  0.50926  0.11301  0.31072  1.0000
  H   H1340     1.0  0.73424  0.19369  0.75610  1.0000
  H   H1341     1.0  0.52834  0.35715  0.93945  1.0000
  S   S221      1.0  0.61295  0.08863  0.93359  1.0000
  H   H1342     1.0  0.54406  0.14195  0.89211  1.0000
  Fe  Fe110     1.0  0.63386  0.10350  0.51142  1.0000
  H   H1343     1.0  0.60925  0.16417  0.51816  1.0000
  S   S222      1.0  0.63782  0.10514  0.56054  1.0000
  H   H1344     1.0  0.69795  0.42124  0.77012  1.0000
  H   H1345     1.0  0.59801  0.06194  0.59370  1.0000
  Fe  Fe111     1.0  0.63324  0.11541  0.94914  1.0000
  S   S223      1.0  0.64569  0.13948  0.92081  1.0000
  H   H1346     1.0  0.57002  0.01675  0.97241  1.0000
  C   C778      1.0  0.54893  0.09566  0.54356  1.0000
  Fe  Fe112     1.0  0.67343  0.17606  0.69283  1.0000
  S   S224      1.0  0.66818  0.20015  0.70064  1.0000
  S   S225      1.0  0.67951  0.17171  0.64650  1.0000
  Fe  Fe113     1.0  0.66891  0.16640  0.75717  1.0000
  S   S226      1.0  0.66336  0.18967  0.76875  1.0000
  S   S227      1.0  0.66742  0.14541  0.78936  1.0000
  Fe  Fe114     1.0  0.64638  0.18240  0.72776  1.0000
  S   S228      1.0  0.61742  0.17628  0.72232  1.0000
  Fe  Fe115     1.0  0.68603  0.20528  0.74059  1.0000
  S   S229      1.0  0.70600  0.23250  0.75873  1.0000
  S   S230      1.0  0.65064  0.15810  0.71758  1.0000
  S   S231      1.0  0.69260  0.18217  0.73143  1.0000
  Fe  Fe116     1.0  0.52470  0.17723  0.84876  1.0000
  S   S232      1.0  0.54106  0.20618  0.84238  1.0000
  C   C779      1.0  0.56583  0.44911  0.92200  1.0000
  Fe  Fe117     1.0  0.51851  0.17006  0.78307  1.0000
  S   S233      1.0  0.53429  0.19869  0.77207  1.0000
  Fe  Fe118     1.0  0.55340  0.19788  0.80666  1.0000
  S   S234      1.0  0.58294  0.21222  0.80573  1.0000
  Fe  Fe119     1.0  0.52083  0.20528  0.80881  1.0000
  H   H1347     1.0  0.50922  0.36449  0.97192  1.0000
  S   S235      1.0  0.53887  0.16907  0.81540  1.0000
  S   S236      1.0  0.68732  0.47738  0.72748  1.0000
  S   S237      1.0  0.68788  0.48825  0.79618  1.0000
  C   C780      1.0  0.52186  0.27941  0.80528  1.0000
  Fe  Fe120     1.0  0.66943  0.46745  0.76428  1.0000
  S   S238      1.0  0.65740  0.43859  0.77675  1.0000
  Fe  Fe121     1.0  0.53039  0.35308  0.82886  1.0000
  S   S239      1.0  0.55511  0.35201  0.81264  1.0000
  H   H1348     1.0  0.57410  0.41328  0.70080  1.0000
  S   S240      1.0  0.53845  0.35004  0.74741  1.0000
  Fe  Fe122     1.0  0.53656  0.33038  0.78171  1.0000
  H   H1349     1.0  0.52302  0.22948  0.87932  1.0000
  Fe  Fe123     1.0  0.55462  0.37155  0.77995  1.0000
  S   S241      1.0  0.57408  0.39769  0.76285  1.0000
  S   S242      1.0  0.53121  0.37395  0.79813  1.0000
  H   H1350     1.0  0.54645  0.43978  0.67527  1.0000
  S   S243      1.0  0.52340  0.44533  0.58630  1.0000
  C   C781      1.0  0.73747  0.26249  0.76371  1.0000
  C   C782      1.0  0.56662  0.47618  0.54413  1.0000
  C   C783      1.0  0.55447  0.46924  0.56576  1.0000
  C   C784      1.0  0.53893  0.45391  0.55990  1.0000
  H   H1351     1.0  0.60728  0.01468  0.93589  1.0000
  H   H1352     1.0  0.51004  0.32075  0.67498  1.0000
  H   H1353     1.0  0.51175  0.42280  0.65779  1.0000
  H   H1354     1.0  0.52008  0.12461  0.94204  1.0000
  H   H1355     1.0  0.50165  0.42624  0.92005  1.0000
  C   C785      1.0  0.56922  0.03817  0.94821  1.0000
  C   C786      1.0  0.60540  0.03107  0.00256  1.0000
  H   H1356     1.0  0.64212  0.16554  0.57694  1.0000
  H   H1357     1.0  0.72522  0.42422  0.75419  1.0000
  Fe  Fe124     1.0  0.67288  0.49421  0.71711  1.0000
  C   C787      1.0  0.52722  0.10657  0.65487  1.0000
  C   C788      1.0  0.59728  0.40815  0.76652  1.0000
  C   C789      1.0  0.60602  0.42431  0.75301  1.0000
  C   C790      1.0  0.62442  0.43348  0.75553  1.0000
  C   C791      1.0  0.63433  0.42664  0.77179  1.0000
  C   C792      1.0  0.62564  0.41036  0.78515  1.0000
  C   C793      1.0  0.60714  0.40112  0.78258  1.0000
  H   H1358     1.0  0.59852  0.42981  0.74046  1.0000
  H   H1359     1.0  0.63091  0.44579  0.74471  1.0000
  H   H1360     1.0  0.63321  0.40498  0.79780  1.0000
  H   H1361     1.0  0.60052  0.38866  0.79306  1.0000
  C   C794      1.0  0.51923  0.24889  0.80129  1.0000
  C   C795      1.0  0.52810  0.25308  0.77555  1.0000
  C   C796      1.0  0.53378  0.27031  0.76477  1.0000
  C   C797      1.0  0.53092  0.28365  0.77973  1.0000
  C   C798      1.0  0.54470  0.40121  0.97830  1.0000
  H   H1362     1.0  0.53044  0.24299  0.76381  1.0000
  H   H1363     1.0  0.53781  0.14344  0.72442  1.0000
  Fe  Fe125     1.0  0.51517  0.35149  0.76690  1.0000
  H   H1364     1.0  0.63036  0.15196  0.60550  1.0000
  C   C799      1.0  0.60825  0.18700  0.74485  1.0000
  C   C800      1.0  0.58987  0.18018  0.74567  1.0000
  C   C801      1.0  0.58202  0.18794  0.76416  1.0000
  C   C802      1.0  0.59254  0.20276  0.78162  1.0000
  C   C803      1.0  0.61093  0.20983  0.78044  1.0000
  C   C804      1.0  0.61880  0.20186  0.76224  1.0000
  H   H1365     1.0  0.58169  0.16875  0.73214  1.0000
  H   H1366     1.0  0.56783  0.18247  0.76488  1.0000
  H   H1367     1.0  0.61910  0.22131  0.79389  1.0000
  H   H1368     1.0  0.63299  0.20723  0.76156  1.0000
  C   C805      1.0  0.65110  0.14051  0.88398  1.0000
  C   C806      1.0  0.65080  0.12587  0.86833  1.0000
  C   C807      1.0  0.65568  0.12755  0.83932  1.0000
  C   C808      1.0  0.66047  0.14372  0.82541  1.0000
  C   C809      1.0  0.66043  0.15826  0.84092  1.0000
  C   C810      1.0  0.65606  0.15672  0.87013  1.0000
  H   H1369     1.0  0.64713  0.11334  0.87872  1.0000
  H   H1370     1.0  0.65578  0.11624  0.82762  1.0000
  H   H1371     1.0  0.66402  0.17078  0.83059  1.0000
  H   H1372     1.0  0.65642  0.16815  0.88210  1.0000
  C   C811      1.0  0.64928  0.12400  0.58382  1.0000
  C   C812      1.0  0.64598  0.12272  0.61343  1.0000
  C   C813      1.0  0.65478  0.13731  0.63280  1.0000
  C   C814      1.0  0.66727  0.15327  0.62281  1.0000
  C   C815      1.0  0.67052  0.15456  0.59317  1.0000
  C   C816      1.0  0.66143  0.14008  0.57369  1.0000
  H   H1373     1.0  0.63662  0.11034  0.62150  1.0000
  H   H1374     1.0  0.65223  0.13611  0.65555  1.0000
  H   H1375     1.0  0.68022  0.16682  0.58528  1.0000
  H   H1376     1.0  0.66416  0.14124  0.55100  1.0000
  H   H1377     1.0  0.53427  0.12319  0.70615  1.0000
  S   S244      1.0  0.53951  0.30542  0.76602  1.0000
  C   C817      1.0  0.55554  0.40960  0.66451  1.0000
  H   H1378     1.0  0.58066  0.13338  0.57105  1.0000
  H   H1379     1.0  0.51716  0.35152  0.69513  1.0000
  H   H1380     1.0  0.56480  0.14667  0.54637  1.0000
  C   C818      1.0  0.57141  0.09180  0.51667  1.0000
  C   C819      1.0  0.50698  0.35645  0.65435  1.0000
  C   C820      1.0  0.71170  0.15951  0.82498  1.0000
  H   H1381     1.0  0.69383  0.43788  0.78739  1.0000
  H   H1382     1.0  0.63967  0.17464  0.53292  1.0000
  H   H1383     1.0  0.55927  0.44221  0.96572  1.0000
  H   H1384     1.0  0.61524  0.17330  0.56842  1.0000
  H   H1385     1.0  0.58025  0.04892  0.96052  1.0000
  C   C821      1.0  0.61002  0.03107  0.97388  1.0000
  H   H1386     1.0  0.57512  0.45291  0.66385  1.0000
  H   H1387     1.0  0.58205  0.12373  0.64605  1.0000
  C   C822      1.0  0.55833  0.11978  0.93559  1.0000
  H   H1388     1.0  0.56736  0.41461  0.65154  1.0000
  C   C823      1.0  0.52838  0.11769  0.93653  1.0000
  C   C824      1.0  0.51908  0.09860  0.94720  1.0000
  H   H1389     1.0  0.53916  0.39537  0.99906  1.0000
  H   H1390     1.0  0.52755  0.11656  0.91254  1.0000
  H   H1391     1.0  0.55393  0.10605  0.94320  1.0000
  H   H1392     1.0  0.55655  0.11780  0.91169  1.0000
  H   H1393     1.0  0.53086  0.29928  0.69309  1.0000
  S   S245      1.0  0.52396  0.17048  0.89658  1.0000
  H   H1394     1.0  0.63596  0.17503  0.60672  1.0000
  H   H1395     1.0  0.58851  0.24540  0.77692  1.0000
  N   N56       1.0  0.54978  0.13977  0.65326  1.0000
  C   C825      1.0  0.55623  0.15431  0.63166  1.0000
  C   C826      1.0  0.56502  0.13540  0.66152  1.0000
  C   C827      1.0  0.54437  0.14700  0.67942  1.0000
  C   C828      1.0  0.53433  0.12424  0.63909  1.0000
  C   C829      1.0  0.54332  0.16241  0.62282  1.0000
  C   C830      1.0  0.57199  0.12787  0.63688  1.0000
  C   C831      1.0  0.70256  0.43577  0.77175  1.0000
  H   H1396     1.0  0.72948  0.17473  0.79383  1.0000
  H   H1397     1.0  0.56867  0.16548  0.64004  1.0000
  H   H1398     1.0  0.55941  0.14942  0.61114  1.0000
  H   H1399     1.0  0.56182  0.12566  0.67881  1.0000
  H   H1400     1.0  0.57628  0.14742  0.67102  1.0000
  H   H1401     1.0  0.55375  0.16108  0.68433  1.0000
  H   H1402     1.0  0.53137  0.14721  0.67507  1.0000
  H   H1403     1.0  0.52289  0.12755  0.63569  1.0000
  H   H1404     1.0  0.53708  0.12143  0.61669  1.0000
  H   H1405     1.0  0.55034  0.01125  0.95118  1.0000
  N   N57       1.0  0.72004  0.19252  0.81495  1.0000
  Fe  Fe126     1.0  0.70490  0.49931  0.75820  1.0000
  H   H1406     1.0  0.58149  0.08712  0.51567  1.0000
  C   C832      1.0  0.54745  0.43483  0.65324  1.0000
  H   H1407     1.0  0.58575  0.12607  0.92725  1.0000
  C   C833      1.0  0.54876  0.12837  0.98007  1.0000
  H   H1408     1.0  0.50993  0.02494  0.99564  1.0000
  C   C834      1.0  0.54320  0.13744  0.70801  1.0000
  C   C835      1.0  0.74038  0.20512  0.77175  1.0000
  H   H1409     1.0  0.53109  0.15250  0.61182  1.0000
  C   C836      1.0  0.56203  0.08953  0.54185  1.0000
  N   N58       1.0  0.61928  0.46122  0.84196  1.0000
  C   C837      1.0  0.60390  0.46104  0.85805  1.0000
  C   C838      1.0  0.61482  0.44255  0.83113  1.0000
  C   C839      1.0  0.62296  0.47306  0.81650  1.0000
  C   C840      1.0  0.63541  0.46821  0.86212  1.0000
  C   C841      1.0  0.60500  0.47930  0.86793  1.0000
  C   C842      1.0  0.61504  0.42949  0.85417  1.0000
  C   C843      1.0  0.60748  0.46866  0.79424  1.0000
  C   C844      1.0  0.65243  0.46878  0.84946  1.0000
  H   H1410     1.0  0.59135  0.45412  0.84494  1.0000
  H   H1411     1.0  0.60215  0.45326  0.87790  1.0000
  H   H1412     1.0  0.62379  0.44243  0.81423  1.0000
  H   H1413     1.0  0.60149  0.43650  0.82007  1.0000
  H   H1414     1.0  0.62765  0.48718  0.82365  1.0000
  H   H1415     1.0  0.71629  0.44211  0.78100  1.0000
  H   H1416     1.0  0.63874  0.48212  0.86927  1.0000
  H   H1417     1.0  0.63308  0.46105  0.88272  1.0000
  H   H1418     1.0  0.58034  0.45628  0.92546  1.0000
  Fe  Fe127     1.0  0.51330  0.09716  0.56404  1.0000
  H   H1419     1.0  0.64725  0.48439  0.61253  1.0000
  H   H1420     1.0  0.61028  0.41603  0.84383  1.0000
  H   H1421     1.0  0.62857  0.43295  0.86313  1.0000
  H   H1422     1.0  0.60621  0.42860  0.87187  1.0000
  C   C845      1.0  0.61369  0.16025  0.57669  1.0000
  H   H1423     1.0  0.61194  0.47825  0.77662  1.0000
  C   C846      1.0  0.54512  0.10392  0.51993  1.0000
  H   H1424     1.0  0.65966  0.48157  0.83891  1.0000
  H   H1425     1.0  0.65015  0.45791  0.83352  1.0000
  H   H1426     1.0  0.66103  0.46736  0.86705  1.0000
  N   N59       1.0  0.61256  0.04118  0.55964  1.0000
  C   C847      1.0  0.60918  0.02300  0.54750  1.0000
  C   C848      1.0  0.62494  0.05451  0.53989  1.0000
  C   C849      1.0  0.59523  0.04268  0.55860  1.0000
  C   C850      1.0  0.62004  0.04304  0.59027  1.0000
  H   H1427     1.0  0.53528  0.10903  0.52119  1.0000
  C   C851      1.0  0.64268  0.05350  0.53606  1.0000
  C   C852      1.0  0.63103  0.06212  0.60269  1.0000
  H   H1428     1.0  0.60541  0.02184  0.52412  1.0000
  H   H1429     1.0  0.62136  0.02077  0.54901  1.0000
  H   H1430     1.0  0.62803  0.06830  0.54677  1.0000
  S   S246      1.0  0.57307  0.48999  0.97401  1.0000
  H   H1431     1.0  0.70889  0.21396  0.85340  1.0000
  H   H1432     1.0  0.60932  0.03622  0.60524  1.0000
  H   H1433     1.0  0.62896  0.03623  0.59205  1.0000
  C   C853      1.0  0.55606  0.14998  0.90567  1.0000
  H   H1434     1.0  0.58544  0.03238  0.57163  1.0000
  H   H1435     1.0  0.53219  0.43818  0.91314  1.0000
  C   C854      1.0  0.53555  0.02752  0.98267  1.0000
  H   H1436     1.0  0.52979  0.44003  0.95087  1.0000
  H   H1437     1.0  0.58523  0.16504  0.55665  1.0000
  H   H1438     1.0  0.62879  0.06255  0.62611  1.0000
  H   H1439     1.0  0.62792  0.07254  0.59302  1.0000
  H   H1440     1.0  0.64534  0.06582  0.60135  1.0000
  N   N60       1.0  0.54010  0.42100  0.93901  1.0000
  C   C855      1.0  0.52835  0.43033  0.93294  1.0000
  C   C856      1.0  0.55856  0.43499  0.94507  1.0000
  C   C857      1.0  0.53380  0.41065  0.96595  1.0000
  C   C858      1.0  0.53862  0.40889  0.91342  1.0000
  H   H1441     1.0  0.52184  0.09544  0.63851  1.0000
  H   H1442     1.0  0.58102  0.12418  0.96506  1.0000
  S   S247      1.0  0.51164  0.22735  0.81584  1.0000
  H   H1443     1.0  0.55916  0.39981  0.92682  1.0000
  H   H1444     1.0  0.52360  0.43384  0.52766  1.0000
  H   H1445     1.0  0.53994  0.16881  0.64133  1.0000
  H   H1446     1.0  0.56809  0.42909  0.94840  1.0000
  H   H1447     1.0  0.58345  0.14362  0.94583  1.0000
  H   H1448     1.0  0.53317  0.41953  0.98364  1.0000
  H   H1449     1.0  0.52019  0.40019  0.96245  1.0000
  H   H1450     1.0  0.52707  0.39595  0.91518  1.0000
  H   H1451     1.0  0.53591  0.41430  0.89293  1.0000
  H   H1452     1.0  0.54011  0.04038  0.97168  1.0000
  C   C859      1.0  0.52883  0.31154  0.69070  1.0000
  H   H1453     1.0  0.64915  0.05271  0.55689  1.0000
  H   H1454     1.0  0.50528  0.09269  0.93824  1.0000
  H   H1455     1.0  0.60885  0.11072  0.58993  1.0000
  H   H1456     1.0  0.57860  0.13805  0.62099  1.0000
  C   C860      1.0  0.72790  0.24612  0.74878  1.0000
  H   H1457     1.0  0.54960  0.17290  0.60706  1.0000
  H   H1458     1.0  0.54063  0.27338  0.74485  1.0000
  C   C861      1.0  0.70122  0.20838  0.83284  1.0000
  C   C862      1.0  0.59544  0.06026  0.56997  1.0000
  H   H1459     1.0  0.54322  0.15222  0.94347  1.0000
  S   S248      1.0  0.65378  0.48257  0.75203  1.0000
  H   H1460     1.0  0.62500  0.13454  0.56068  1.0000
  H   H1461     1.0  0.53963  0.47015  0.99732  1.0000
  H   H1462     1.0  0.50939  0.17124  0.70939  1.0000
  N   N61       1.0  0.60687  0.15456  0.81848  1.0000
  C   C863      1.0  0.60961  0.17328  0.82622  1.0000
  C   C864      1.0  0.58854  0.14506  0.80490  1.0000
  C   C865      1.0  0.62029  0.15549  0.79687  1.0000
  C   C866      1.0  0.60941  0.14626  0.84592  1.0000
  C   C867      1.0  0.62867  0.18660  0.83487  1.0000
  C   C868      1.0  0.57343  0.14399  0.82390  1.0000
  C   C869      1.0  0.61604  0.13895  0.77716  1.0000
  C   C870      1.0  0.60613  0.12662  0.84407  1.0000
  H   H1463     1.0  0.60511  0.17898  0.80787  1.0000
  H   H1464     1.0  0.60148  0.17355  0.84451  1.0000
  H   H1465     1.0  0.58559  0.13127  0.79786  1.0000
  H   H1466     1.0  0.58737  0.15163  0.78464  1.0000
  H   H1467     1.0  0.62243  0.16641  0.78173  1.0000
  H   H1468     1.0  0.63331  0.15882  0.80791  1.0000
  H   H1469     1.0  0.62314  0.15338  0.85478  1.0000
  H   H1470     1.0  0.60160  0.14801  0.86362  1.0000
  H   H1471     1.0  0.62865  0.19958  0.84079  1.0000
  H   H1472     1.0  0.63419  0.18245  0.85390  1.0000
  H   H1473     1.0  0.63757  0.18904  0.81671  1.0000
  H   H1474     1.0  0.57362  0.15724  0.82815  1.0000
  H   H1475     1.0  0.56067  0.13590  0.81213  1.0000
  H   H1476     1.0  0.57352  0.13745  0.84449  1.0000
  H   H1477     1.0  0.60577  0.13753  0.76025  1.0000
  H   H1478     1.0  0.61208  0.12655  0.78893  1.0000
  H   H1479     1.0  0.62805  0.14067  0.76577  1.0000
  H   H1480     1.0  0.61805  0.12524  0.83719  1.0000
  H   H1481     1.0  0.59464  0.11826  0.82990  1.0000
  H   H1482     1.0  0.60301  0.12095  0.86580  1.0000
  H   H1483     1.0  0.51949  0.28947  0.81703  1.0000
  C   C871      1.0  0.50273  0.14360  0.71528  1.0000
  H   H1484     1.0  0.57667  0.24665  0.74515  1.0000
  N   N62       1.0  0.57864  0.26900  0.81154  1.0000
  C   C872      1.0  0.57151  0.28263  0.81725  1.0000
  C   C873      1.0  0.56748  0.25262  0.82734  1.0000
  C   C874      1.0  0.57695  0.26496  0.77937  1.0000
  C   C875      1.0  0.59769  0.27689  0.82221  1.0000
  C   C876      1.0  0.57853  0.29923  0.79864  1.0000
  C   C877      1.0  0.56755  0.25508  0.86041  1.0000
  C   C878      1.0  0.57680  0.24717  0.76912  1.0000
  C   C879      1.0  0.60735  0.26470  0.82191  1.0000
  H   H1485     1.0  0.55691  0.27657  0.81420  1.0000
  H   H1486     1.0  0.57432  0.28767  0.84011  1.0000
  H   H1487     1.0  0.57129  0.24158  0.82344  1.0000
  H   H1488     1.0  0.55352  0.24733  0.81893  1.0000
  H   H1489     1.0  0.56444  0.26471  0.77012  1.0000
  H   H1490     1.0  0.58763  0.27562  0.76812  1.0000
  H   H1491     1.0  0.60561  0.28835  0.80906  1.0000
  H   H1492     1.0  0.59946  0.28296  0.84436  1.0000
  H   H1493     1.0  0.59302  0.30670  0.80109  1.0000
  H   H1494     1.0  0.57442  0.29594  0.77548  1.0000
  H   H1495     1.0  0.57273  0.30834  0.80579  1.0000
  H   H1496     1.0  0.58101  0.26015  0.87054  1.0000
  H   H1497     1.0  0.56109  0.26374  0.86657  1.0000
  H   H1498     1.0  0.55982  0.24201  0.86976  1.0000
  H   H1499     1.0  0.61358  0.26522  0.80099  1.0000
  H   H1500     1.0  0.59902  0.25075  0.82659  1.0000
  H   H1501     1.0  0.61787  0.26921  0.83937  1.0000
  H   H1502     1.0  0.61858  0.05292  0.51788  1.0000
  C   C880      1.0  0.50992  0.30765  0.67970  1.0000
  S   S249      1.0  0.56761  0.08104  0.96116  1.0000
  C   C881      1.0  0.71743  0.17451  0.80317  1.0000
  H   H1503     1.0  0.56583  0.41660  0.90010  1.0000
  H   H1504     1.0  0.56530  0.15624  0.95031  1.0000
  C   C882      1.0  0.54911  0.41260  0.59968  1.0000
  H   H1505     1.0  0.73379  0.47576  0.77339  1.0000
  N   N63       1.0  0.70464  0.43640  0.71579  1.0000
  C   C883      1.0  0.70125  0.44610  0.69064  1.0000
  C   C884      1.0  0.69257  0.41699  0.71118  1.0000
  C   C885      1.0  0.72368  0.43926  0.71570  1.0000
  C   C886      1.0  0.70087  0.44405  0.74301  1.0000
  C   C887      1.0  0.71519  0.46532  0.68687  1.0000
  C   C888      1.0  0.67267  0.41224  0.71082  1.0000
  H   H1506     1.0  0.53823  0.31966  0.67475  1.0000
  C   C889      1.0  0.53532  0.40693  0.62297  1.0000
  H   H1507     1.0  0.70026  0.43877  0.66981  1.0000
  H   H1508     1.0  0.68837  0.44687  0.69221  1.0000
  H   H1509     1.0  0.69492  0.40880  0.72795  1.0000
  H   H1510     1.0  0.69529  0.41187  0.69044  1.0000
  H   H1511     1.0  0.50898  0.25901  0.83563  1.0000
  C   C890      1.0  0.59486  0.00702  0.56169  1.0000
  H   H1512     1.0  0.70968  0.45835  0.74573  1.0000
  H   H1513     1.0  0.68758  0.44399  0.74158  1.0000
  H   H1514     1.0  0.71866  0.47358  0.70708  1.0000
  H   H1515     1.0  0.72743  0.46555  0.67816  1.0000
  H   H1516     1.0  0.70988  0.47189  0.67098  1.0000
  H   H1517     1.0  0.66520  0.39770  0.70700  1.0000
  H   H1518     1.0  0.66864  0.41552  0.73185  1.0000
  H   H1519     1.0  0.66847  0.41866  0.69321  1.0000
  S   S250      1.0  0.50664  0.14529  0.75337  1.0000
  H   H1520     1.0  0.51047  0.48286  0.51895  1.0000
  H   H1521     1.0  0.50590  0.40742  0.91162  1.0000
  C   C891      1.0  0.51777  0.35993  0.93027  1.0000
  C   C892      1.0  0.73209  0.19834  0.84169  1.0000
  H   H1522     1.0  0.56282  0.44325  0.89974  1.0000
  H   H1523     1.0  0.56089  0.41037  0.60555  1.0000
  C   C893      1.0  0.63148  0.16317  0.59190  1.0000
  S   S251      1.0  0.51623  0.12481  0.55987  1.0000
  C   C894      1.0  0.55993  0.02161  0.96631  1.0000
  H   H1524     1.0  0.73227  0.21991  0.80173  1.0000
  H   H1525     1.0  0.55065  0.39488  0.66297  1.0000
  H   H1526     1.0  0.51338  0.46383  0.50738  1.0000
  N   N64       1.0  0.60644  0.14607  0.55288  1.0000
  C   C895      1.0  0.63328  0.16161  0.52117  1.0000
  H   H1527     1.0  0.56051  0.45923  0.92425  1.0000
  C   C896      1.0  0.61319  0.15341  0.52398  1.0000
  H   H1528     1.0  0.52120  0.16519  0.95735  1.0000
  H   H1529     1.0  0.52528  0.08999  0.93959  1.0000
  H   H1530     1.0  0.53250  0.31930  0.71135  1.0000
  C   C897      1.0  0.61064  0.13043  0.55832  1.0000
  H   H1531     1.0  0.56471  0.23575  0.77529  1.0000
  C   C898      1.0  0.55463  0.40486  0.90784  1.0000
  H   H1532     1.0  0.69707  0.18181  0.84104  1.0000
  H   H1533     1.0  0.51836  0.09817  0.97100  1.0000
  H   H1534     1.0  0.55864  0.41033  0.98345  1.0000
  C   C899      1.0  0.60247  0.11971  0.58508  1.0000
  C   C900      1.0  0.56208  0.41545  0.69613  1.0000
  H   H1535     1.0  0.70545  0.21853  0.81615  1.0000
  H   H1536     1.0  0.56555  0.42968  0.70055  1.0000
  C   C901      1.0  0.58663  0.13917  0.55055  1.0000
  H   H1537     1.0  0.64103  0.04212  0.52152  1.0000
  H   H1538     1.0  0.70744  0.17016  0.78477  1.0000
  H   H1539     1.0  0.65172  0.06566  0.52546  1.0000
  H   H1540     1.0  0.52963  0.41306  0.69446  1.0000
  H   H1541     1.0  0.55225  0.40729  0.71149  1.0000
  H   H1542     1.0  0.60622  0.12091  0.53936  1.0000
  H   H1543     1.0  0.54315  0.40441  0.57969  1.0000
  H   H1544     1.0  0.52236  0.39261  0.67470  1.0000
  H   H1545     1.0  0.57513  0.03447  0.92961  1.0000
  H   H1546     1.0  0.57867  0.48794  0.54870  1.0000
  H   H1547     1.0  0.55709  0.47575  0.58690  1.0000
  H   H1548     1.0  0.52245  0.12553  0.99223  1.0000
  H   H1549     1.0  0.58105  0.12820  0.53400  1.0000
  H   H1550     1.0  0.55084  0.39440  0.89044  1.0000
  H   H1551     1.0  0.55935  0.16410  0.90130  1.0000
  H   H1552     1.0  0.56149  0.11598  0.62591  1.0000
  C   C902      1.0  0.50852  0.41821  0.92798  1.0000
  C   C903      1.0  0.54049  0.07801  0.99443  1.0000
  C   C904      1.0  0.72885  0.42585  0.73145  1.0000
  H   H1553     1.0  0.53724  0.10411  0.66766  1.0000
  H   H1554     1.0  0.52974  0.47949  0.53110  1.0000
  H   H1555     1.0  0.73246  0.45271  0.72479  1.0000
  C   C905      1.0  0.50730  0.35482  0.68457  1.0000
  H   H1556     1.0  0.74341  0.43073  0.73164  1.0000
  C   C906      1.0  0.55869  0.08586  0.99177  1.0000
  H   H1557     1.0  0.72893  0.22855  0.71510  1.0000
  H   H1558     1.0  0.60322  0.45525  0.78407  1.0000
  N   N65       1.0  0.54715  0.12824  0.94760  1.0000
  H   H1559     1.0  0.60483  0.07197  0.55910  1.0000
  S   S252      1.0  0.62469  0.05085  0.95805  1.0000
  H   H1560     1.0  0.52466  0.41034  0.61419  1.0000
  H   H1561     1.0  0.50236  0.41240  0.94828  1.0000
  Fe  Fe128     1.0  0.62428  0.07748  0.96849  1.0000
  H   H1562     1.0  0.58145  0.00560  0.55516  1.0000
  C   C907      1.0  0.50178  0.15626  0.66864  1.0000
  H   H1563     1.0  0.63398  0.47261  0.80440  1.0000
  H   H1564     1.0  0.51656  0.35423  0.64184  1.0000
  C   C908      1.0  0.51598  0.26211  0.81585  1.0000
  H   H1565     1.0  0.56489  0.08299  0.55996  1.0000
  H   H1566     1.0  0.50252  0.40010  0.64356  1.0000
  H   H1567     1.0  0.58827  0.11114  0.58099  1.0000
  H   H1568     1.0  0.60427  0.15747  0.59425  1.0000
  H   H1569     1.0  0.59613  0.46998  0.80371  1.0000
  C   C909      1.0  0.56315  0.46778  0.51674  1.0000
  H   H1570     1.0  0.63944  0.15279  0.52812  1.0000
  H   H1571     1.0  0.56643  0.45724  0.63101  1.0000
  H   H1572     1.0  0.58051  0.15595  0.51975  1.0000
  C   C910      1.0  0.51509  0.35939  0.90007  1.0000
  H   H1573     1.0  0.58221  0.05997  0.56561  1.0000
  H   H1574     1.0  0.72583  0.19027  0.86051  1.0000
  H   H1575     1.0  0.72768  0.43889  0.69311  1.0000
  Fe  Fe129     1.0  0.59682  0.09169  0.96865  1.0000
  S   S253      1.0  0.61584  0.11934  0.98204  1.0000
  H   H1576     1.0  0.71553  0.20540  0.77729  1.0000
  C   C911      1.0  0.70218  0.19099  0.82303  1.0000
  C   C912      1.0  0.50923  0.40895  0.66255  1.0000
  H   H1577     1.0  0.57269  0.43942  0.63170  1.0000
  C   C913      1.0  0.72664  0.20621  0.79197  1.0000
  C   C914      1.0  0.60365  0.01485  0.95800  1.0000
  H   H1578     1.0  0.69241  0.18520  0.80453  1.0000
  H   H1579     1.0  0.71036  0.14708  0.81372  1.0000
  H   H1580     1.0  0.53205  0.06824  0.97842  1.0000
  H   H1581     1.0  0.50936  0.31101  0.73913  1.0000
  S   S254      1.0  0.50925  0.39885  0.55110  1.0000
  H   H1582     1.0  0.55279  0.42656  0.59384  1.0000
  H   H1583     1.0  0.56729  0.14734  0.89885  1.0000
  H   H1584     1.0  0.53845  0.43825  0.63899  1.0000
  H   H1585     1.0  0.52951  0.39216  0.62350  1.0000
  H   H1586     1.0  0.68730  0.20548  0.83680  1.0000
  S   S255      1.0  0.51198  0.33046  0.79946  1.0000
  H   H1587     1.0  0.73440  0.21202  0.84876  1.0000
  H   H1588     1.0  0.55994  0.04332  0.93922  1.0000
  C   C915      1.0  0.64892  0.49753  0.61923  1.0000
  C   C916      1.0  0.56648  0.44632  0.64448  1.0000
  C   C917      1.0  0.50128  0.36288  0.88851  1.0000
  H   H1589     1.0  0.52735  0.01771  0.96549  1.0000
  S   S256      1.0  0.53768  0.09338  0.57543  1.0000
  S   S257      1.0  0.52984  0.35504  0.87807  1.0000
  H   H1590     1.0  0.69865  0.15663  0.83350  1.0000
  C   C918      1.0  0.53560  0.44554  0.53255  1.0000
  N   N66       1.0  0.55110  0.02413  0.99278  1.0000
  C   C919      1.0  0.74654  0.48357  0.76518  1.0000
  C   C920      1.0  0.50698  0.36414  0.94875  1.0000
  H   H1591     1.0  0.54354  0.38993  0.96412  1.0000
  H   H1592     1.0  0.60597  0.48801  0.84962  1.0000
  C   C921      1.0  0.52610  0.40703  0.67222  1.0000
  H   H1593     1.0  0.60418  0.12825  0.60454  1.0000
  H   H1594     1.0  0.55637  0.13936  0.71682  1.0000
  H   H1595     1.0  0.59277  0.47734  0.87882  1.0000
  H   H1596     1.0  0.72159  0.16229  0.84310  1.0000
  H   H1597     1.0  0.58948  0.04034  0.53604  1.0000
  N   N67       1.0  0.54151  0.41499  0.65297  1.0000
  C   C922      1.0  0.57918  0.15274  0.54293  1.0000
  H   H1598     1.0  0.72325  0.41273  0.71983  1.0000
  S   S258      1.0  0.66381  0.49141  0.66928  1.0000
  C   C923      1.0  0.73607  0.24103  0.72690  1.0000
  H   H1599     1.0  0.73132  0.26661  0.78065  1.0000
  S   S259      1.0  0.64641  0.10419  0.98169  1.0000
  Fe  Fe130     1.0  0.50206  0.42011  0.56772  1.0000
  C   C924      1.0  0.57820  0.12902  0.94415  1.0000
  C   C925      1.0  0.55306  0.14707  0.93816  1.0000
  H   H1600     1.0  0.59665  0.00767  0.58554  1.0000
  C   C926      1.0  0.52051  0.47828  0.51265  1.0000
  H   H1601     1.0  0.51640  0.10556  0.66886  1.0000
  H   H1602     1.0  0.61604  0.48622  0.88398  1.0000
  H   H1603     1.0  0.50846  0.28417  0.72431  1.0000
  C   C927      1.0  0.56629  0.47275  0.99806  1.0000
  C   C928      1.0  0.51078  0.15373  0.94662  1.0000
  H   H1604     1.0  0.60718  0.14289  0.50657  1.0000
  H   H1605     1.0  0.74555  0.21722  0.75879  1.0000
  H   H1606     1.0  0.56527  0.05253  0.00120  1.0000
  H   H1607     1.0  0.54640  0.11503  0.98762  1.0000
  C   C929      1.0  0.50879  0.15286  0.91629  1.0000
  H   H1608     1.0  0.66493  0.49084  0.52943  1.0000
  C   C930      1.0  0.54769  0.45244  0.51105  1.0000
  H   H1609     1.0  0.53878  0.14832  0.99114  1.0000
  H   H1610     1.0  0.56245  0.13704  0.98810  1.0000
  H   H1611     1.0  0.52074  0.22443  0.91640  1.0000
  H   H1612     1.0  0.50777  0.30048  0.65837  1.0000
  H   H1613     1.0  0.50444  0.20444  0.94566  1.0000
  C   C931      1.0  0.53654  0.13460  0.99630  1.0000
  S   S260      1.0  0.50333  0.17655  0.81738  1.0000
  H   H1614     1.0  0.50121  0.14071  0.98661  1.0000
  H   H1615     1.0  0.63725  0.50182  0.57935  1.0000
  H   H1616     1.0  0.50950  0.19778  0.88033  1.0000
  C   C932      1.0  0.51316  0.22360  0.89596  1.0000
  C   C933      1.0  0.50515  0.15832  0.69883  1.0000
  H   H1617     1.0  0.50683  0.18671  0.92892  1.0000
  H   H1618     1.0  0.50583  0.23197  0.89720  1.0000
  H   H1619     1.0  0.50347  0.16769  0.65614  1.0000
  H   H1620     1.0  0.59160  0.47199  0.00271  1.0000
  C   C934      1.0  0.50091  0.20444  0.88609  1.0000
  H   H1621     1.0  0.50120  0.27508  0.68873  1.0000
  S   S261      1.0  0.60685  0.07912  0.00242  1.0000
  C   C935      1.0  0.57403  0.59789  0.50247  1.0000
  H   H1622     1.0  0.51109  0.76399  0.15347  1.0000
  H   H1623     1.0  0.51420  0.78904  0.23776  1.0000
  H   H1624     1.0  0.53939  0.63309  0.09894  1.0000
  H   H1625     1.0  0.54485  0.98627  0.36935  1.0000
  Fe  Fe131     1.0  0.53875  0.92002  0.44532  1.0000
  S   S262      1.0  0.54585  0.91759  0.39888  1.0000
  Fe  Fe132     1.0  0.53042  0.91481  0.01579  1.0000
  S   S263      1.0  0.51841  0.88998  0.04275  1.0000
  S   S264      1.0  0.52826  0.94059  0.45018  1.0000
  S   S265      1.0  0.53099  0.94180  0.02298  1.0000
  H   H1626     1.0  0.50985  0.91733  0.19182  1.0000
  C   C936      1.0  0.73259  0.52264  0.15324  1.0000
  Fe  Fe133     1.0  0.51220  0.85395  0.20315  1.0000
  H   H1627     1.0  0.52771  0.59489  0.11903  1.0000
  Fe  Fe134     1.0  0.67123  0.50479  0.28191  1.0000
  S   S266      1.0  0.53133  0.87472  0.17431  1.0000
  S   S267      1.0  0.68098  0.50882  0.17005  1.0000
  S   S268      1.0  0.51796  0.83578  0.23378  1.0000
  H   H1628     1.0  0.50912  0.56753  0.02222  1.0000
  H   H1629     1.0  0.56560  0.56576  0.45008  1.0000
  S   S269      1.0  0.51717  0.65606  0.29699  1.0000
  C   C937      1.0  0.53691  0.71973  0.29682  1.0000
  C   C938      1.0  0.52120  0.71333  0.34161  1.0000
  S   S270      1.0  0.50931  0.72824  0.24645  1.0000
  C   C939      1.0  0.58325  0.96481  0.41303  1.0000
  H   H1630     1.0  0.54879  0.95889  0.33328  1.0000
  H   H1631     1.0  0.55188  0.60568  0.15217  1.0000
  H   H1632     1.0  0.53677  0.51130  0.44280  1.0000
  H   H1633     1.0  0.51102  0.96669  0.47117  1.0000
  C   C940      1.0  0.52936  0.66767  0.11114  1.0000
  H   H1634     1.0  0.57497  0.00214  0.42351  1.0000
  H   H1635     1.0  0.67092  0.50464  0.41122  1.0000
  Fe  Fe135     1.0  0.52284  0.63535  0.46476  1.0000
  N   N68       1.0  0.56550  0.98096  0.39079  1.0000
  S   S271      1.0  0.51721  0.61011  0.02529  1.0000
  S   S272      1.0  0.52909  0.61207  0.45446  1.0000
  Fe  Fe136     1.0  0.62687  0.52907  0.03694  1.0000
  S   S273      1.0  0.60186  0.53118  0.02229  1.0000
  S   S274      1.0  0.63005  0.52837  0.08614  1.0000
  H   H1636     1.0  0.56978  0.98681  0.34571  1.0000
  H   H1637     1.0  0.53698  0.73278  0.29159  1.0000
  S   S275      1.0  0.65548  0.52157  0.44828  1.0000
  C   C941      1.0  0.50756  0.66134  0.38155  1.0000
  S   S276      1.0  0.63776  0.54978  0.50251  1.0000
  C   C942      1.0  0.57384  0.99792  0.48647  1.0000
  H   H1638     1.0  0.62208  0.50488  0.31983  1.0000
  H   H1639     1.0  0.55685  0.70545  0.32537  1.0000
  H   H1640     1.0  0.57472  0.64180  0.13518  1.0000
  C   C943      1.0  0.51174  0.72521  0.33379  1.0000
  H   H1641     1.0  0.52577  0.98127  0.41158  1.0000
  H   H1642     1.0  0.50876  0.72498  0.31025  1.0000
  H   H1643     1.0  0.54188  0.97870  0.43484  1.0000
  H   H1644     1.0  0.52466  0.76631  0.25200  1.0000
  H   H1645     1.0  0.57643  0.60968  0.10202  1.0000
  H   H1646     1.0  0.51081  0.54206  0.06870  1.0000
  H   H1647     1.0  0.57627  0.65970  0.07691  1.0000
  S   S277      1.0  0.59185  0.55513  0.47194  1.0000
  C   C944      1.0  0.56350  0.60858  0.10912  1.0000
  C   C945      1.0  0.66518  0.51140  0.39753  1.0000
  H   H1648     1.0  0.54659  0.99967  0.41850  1.0000
  C   C946      1.0  0.54765  0.51363  0.45917  1.0000
  S   S278      1.0  0.54709  0.58828  0.00949  1.0000
  H   H1649     1.0  0.74023  0.52987  0.10929  1.0000
  C   C947      1.0  0.65607  0.52040  0.41005  1.0000
  C   C948      1.0  0.64883  0.52919  0.39210  1.0000
  H   H1650     1.0  0.50091  0.74928  0.12290  1.0000
  H   H1651     1.0  0.50253  0.52002  0.03392  1.0000
  C   C949      1.0  0.51098  0.90558  0.18236  1.0000
  H   H1652     1.0  0.64195  0.53631  0.40143  1.0000
  C   C950      1.0  0.57492  0.64098  0.11123  1.0000
  S   S279      1.0  0.57592  0.97901  0.01738  1.0000
  H   H1653     1.0  0.69289  0.53296  0.46554  1.0000
  H   H1654     1.0  0.52361  0.74350  0.15572  1.0000
  C   C951      1.0  0.64469  0.52321  0.10882  1.0000
  C   C952      1.0  0.64318  0.52370  0.13892  1.0000
  C   C953      1.0  0.65392  0.51900  0.15787  1.0000
  H   H1655     1.0  0.53337  0.71675  0.14574  1.0000
  C   C954      1.0  0.56806  0.57036  0.01005  1.0000
  H   H1656     1.0  0.54636  0.87735  0.03313  1.0000
  H   H1657     1.0  0.54821  0.72045  0.25521  1.0000
  C   C955      1.0  0.51129  0.86992  0.09115  1.0000
  C   C956      1.0  0.54449  0.70361  0.33559  1.0000
  C   C957      1.0  0.73766  0.51842  0.12333  1.0000
  C   C958      1.0  0.56389  0.60632  0.14210  1.0000
  C   C959      1.0  0.51617  0.65440  0.33509  1.0000
  C   C960      1.0  0.52555  0.64618  0.34967  1.0000
  C   C961      1.0  0.52593  0.64551  0.38005  1.0000
  H   H1658     1.0  0.52369  0.88048  0.41025  1.0000
  H   H1659     1.0  0.70322  0.55620  0.46170  1.0000
  H   H1660     1.0  0.63362  0.52775  0.14769  1.0000
  H   H1661     1.0  0.53352  0.63947  0.39103  1.0000
  H   H1662     1.0  0.74971  0.51607  0.12447  1.0000
  S   S280      1.0  0.60766  0.51988  0.46031  1.0000
  C   C962      1.0  0.52281  0.65679  0.08597  1.0000
  H   H1663     1.0  0.56808  0.95434  0.33489  1.0000
  H   H1664     1.0  0.64623  0.53696  0.34860  1.0000
  S   S281      1.0  0.50118  0.86486  0.23805  1.0000
  H   H1665     1.0  0.52479  0.60030  0.08229  1.0000
  H   H1666     1.0  0.72537  0.50641  0.22146  1.0000
  S   S282      1.0  0.51739  0.89982  0.47010  1.0000
  C   C963      1.0  0.55959  0.95873  0.34769  1.0000
  H   H1667     1.0  0.57576  0.73232  0.33341  1.0000
  H   H1668     1.0  0.58651  0.51074  0.11356  1.0000
  C   C964      1.0  0.53453  0.89845  0.37597  1.0000
  C   C965      1.0  0.52479  0.88180  0.38714  1.0000
  C   C966      1.0  0.57103  0.74280  0.33549  1.0000
  H   H1669     1.0  0.56601  0.51271  0.42786  1.0000
  C   C967      1.0  0.52787  0.88478  0.32712  1.0000
  C   C968      1.0  0.53596  0.89987  0.34586  1.0000
  H   H1670     1.0  0.58017  0.61542  0.05568  1.0000
  H   H1671     1.0  0.52924  0.88602  0.30405  1.0000
  H   H1672     1.0  0.54356  0.91265  0.33698  1.0000
  C   C969      1.0  0.52232  0.88615  0.07939  1.0000
  C   C970      1.0  0.53599  0.89863  0.09692  1.0000
  C   C971      1.0  0.53859  0.89486  0.12583  1.0000
  C   C972      1.0  0.52744  0.87873  0.13772  1.0000
  C   C973      1.0  0.57078  0.97735  0.36154  1.0000
  C   C974      1.0  0.50361  0.91831  0.11851  1.0000
  H   H1673     1.0  0.54464  0.91113  0.08819  1.0000
  H   H1674     1.0  0.54931  0.90454  0.13913  1.0000
  S   S283      1.0  0.66423  0.52259  0.31209  1.0000
  C   C975      1.0  0.54299  0.62319  0.10981  1.0000
  H   H1675     1.0  0.65855  0.51761  0.07475  1.0000
  H   H1676     1.0  0.56483  0.87748  0.01395  1.0000
  C   C976      1.0  0.65133  0.52957  0.36215  1.0000
  H   H1677     1.0  0.68525  0.51471  0.50131  1.0000
  H   H1678     1.0  0.58796  0.64122  0.10667  1.0000
  H   H1679     1.0  0.52893  0.97919  0.00935  1.0000
  C   C977      1.0  0.55925  0.50517  0.44673  1.0000
  H   H1680     1.0  0.50510  0.85378  0.12896  1.0000
  S   S284      1.0  0.51937  0.65521  0.43446  1.0000
  C   C978      1.0  0.51153  0.76214  0.24240  1.0000
  H   H1681     1.0  0.57565  0.61705  0.15297  1.0000
  H   H1682     1.0  0.51202  0.69952  0.33467  1.0000
  C   C979      1.0  0.50503  0.64492  0.08380  1.0000
  H   H1683     1.0  0.53755  0.96486  0.38332  1.0000
  H   H1684     1.0  0.54309  0.67691  0.11305  1.0000
  H   H1685     1.0  0.58495  0.97997  0.36179  1.0000
  C   C980      1.0  0.51861  0.86805  0.33842  1.0000
  H   H1686     1.0  0.51000  0.85381  0.37748  1.0000
  C   C981      1.0  0.52801  0.51575  0.49478  1.0000
  C   C982      1.0  0.52684  0.60518  0.10504  1.0000
  S   S285      1.0  0.51246  0.68400  0.23051  1.0000
  C   C983      1.0  0.58865  0.99649  0.47596  1.0000
  H   H1687     1.0  0.50071  0.86014  0.07778  1.0000
  C   C984      1.0  0.51826  0.66671  0.13388  1.0000
  C   C985      1.0  0.57793  0.99942  0.40129  1.0000
  C   C986      1.0  0.50681  0.66161  0.35115  1.0000
  H   H1688     1.0  0.52389  0.70956  0.28836  1.0000
  H   H1689     1.0  0.56527  0.97243  0.43482  1.0000
  S   S286      1.0  0.50894  0.84839  0.31622  1.0000
  H   H1690     1.0  0.50213  0.69378  0.16066  1.0000
  N   N69       1.0  0.53900  0.71831  0.32909  1.0000
  C   C987      1.0  0.57470  0.65835  0.10051  1.0000
  H   H1691     1.0  0.73965  0.54513  0.20267  1.0000
  H   H1692     1.0  0.52347  0.67507  0.15313  1.0000
  H   H1693     1.0  0.59540  0.97722  0.41662  1.0000
  C   C988      1.0  0.51706  0.86669  0.36849  1.0000
  H   H1694     1.0  0.71927  0.52254  0.15041  1.0000
  Fe  Fe137     1.0  0.50837  0.92119  0.47751  1.0000
  H   H1695     1.0  0.56416  0.72574  0.28450  1.0000
  H   H1696     1.0  0.55364  0.94835  0.36353  1.0000
  Fe  Fe138     1.0  0.50436  0.84513  0.26715  1.0000
  H   H1697     1.0  0.51699  0.70046  0.10318  1.0000
  S   S287      1.0  0.53723  0.65841  0.05781  1.0000
  H   H1698     1.0  0.59172  0.00084  0.40296  1.0000
  C   C989      1.0  0.58494  0.57128  0.48516  1.0000
  C   C990      1.0  0.66066  0.52080  0.34968  1.0000
  H   H1699     1.0  0.54415  0.62692  0.13322  1.0000
  C   C991      1.0  0.74817  0.50609  0.26632  1.0000
  H   H1700     1.0  0.54832  0.70303  0.27692  1.0000
  Fe  Fe139     1.0  0.60886  0.54192  0.49062  1.0000
  C   C992      1.0  0.51722  0.65341  0.39620  1.0000
  C   C993      1.0  0.66656  0.51402  0.14694  1.0000
  H   H1701     1.0  0.58737  0.63932  0.05791  1.0000
  H   H1702     1.0  0.51998  0.90925  0.16424  1.0000
  H   H1703     1.0  0.58398  0.95768  0.39305  1.0000
  C   C994      1.0  0.54679  0.97900  0.38810  1.0000
  H   H1704     1.0  0.51484  0.60682  0.11078  1.0000
  H   H1705     1.0  0.55082  0.73590  0.36679  1.0000
  S   S288      1.0  0.64345  0.55066  0.00780  1.0000
  H   H1706     1.0  0.55140  0.68971  0.36960  1.0000
  H   H1707     1.0  0.55594  0.52819  0.45986  1.0000
  H   H1708     1.0  0.51441  0.91831  0.10532  1.0000
  H   H1709     1.0  0.55476  0.63366  0.05838  1.0000
  C   C995      1.0  0.70057  0.54567  0.47767  1.0000
  S   S289      1.0  0.55759  0.93078  0.48447  1.0000
  C   C996      1.0  0.65723  0.51808  0.09783  1.0000
  H   H1710     1.0  0.54907  0.61072  0.05815  1.0000
  C   C997      1.0  0.50361  0.70004  0.10418  1.0000
  H   H1711     1.0  0.54750  0.74649  0.33648  1.0000
  C   C998      1.0  0.66821  0.51368  0.11684  1.0000
  H   H1712     1.0  0.52908  0.55686  0.04848  1.0000
  H   H1713     1.0  0.51670  0.51089  0.47858  1.0000
  C   C999      1.0  0.51370  0.86629  0.12021  1.0000
  C   C1000     1.0  0.54732  0.70076  0.36783  1.0000
  H   H1714     1.0  0.57934  0.75164  0.35357  1.0000
  S   S290      1.0  0.62296  0.50698  0.00480  1.0000
  C   C1001     1.0  0.56646  0.96806  0.41254  1.0000
  H   H1715     1.0  0.52431  0.85186  0.02004  1.0000
  C   C1002     1.0  0.55153  0.73586  0.34284  1.0000
  Fe  Fe140     1.0  0.52933  0.63931  0.01848  1.0000
  N   N70       1.0  0.50066  0.71837  0.14827  1.0000
  Fe  Fe141     1.0  0.63525  0.52595  0.47515  1.0000
  H   H1716     1.0  0.55577  0.58869  0.46567  1.0000
  C   C1003     1.0  0.55919  0.62367  0.06671  1.0000
  H   H1717     1.0  0.55794  0.71264  0.37859  1.0000
  C   C1004     1.0  0.57629  0.62642  0.05182  1.0000
  H   H1718     1.0  0.52214  0.71347  0.36560  1.0000
  H   H1719     1.0  0.55365  0.59593  0.09879  1.0000
  H   H1720     1.0  0.57357  0.75051  0.31550  1.0000
  H   H1721     1.0  0.57392  0.62639  0.02809  1.0000
  C   C1005     1.0  0.55037  0.71713  0.27771  1.0000
  H   H1722     1.0  0.53456  0.69086  0.32585  1.0000
  C   C1006     1.0  0.56592  0.58680  0.47826  1.0000
  H   H1723     1.0  0.53280  0.64051  0.33746  1.0000
  N   N71       1.0  0.54045  0.50745  0.48842  1.0000
  C   C1007     1.0  0.66727  0.51139  0.36747  1.0000
  H   H1724     1.0  0.56485  0.59366  0.14647  1.0000
  H   H1725     1.0  0.71345  0.54628  0.48552  1.0000
  H   H1726     1.0  0.56251  0.65954  0.10608  1.0000
  H   H1727     1.0  0.55515  0.95490  0.40941  1.0000
  C   C1008     1.0  0.72655  0.51576  0.20406  1.0000
  H   H1728     1.0  0.53470  0.72699  0.18114  1.0000
  H   H1729     1.0  0.51922  0.73909  0.34190  1.0000
  H   H1730     1.0  0.67800  0.50994  0.10815  1.0000
  N   N72       1.0  0.56016  0.62410  0.09927  1.0000
  S   S291      1.0  0.69524  0.51279  0.25492  1.0000
  H   H1731     1.0  0.51741  0.90079  0.19941  1.0000
  C   C1009     1.0  0.50200  0.75013  0.14682  1.0000
  N   N73       1.0  0.73266  0.51040  0.17687  1.0000
  H   H1732     1.0  0.58277  0.95607  0.43117  1.0000
  C   C1010     1.0  0.57152  0.57378  0.46948  1.0000
  H   H1733     1.0  0.74105  0.51421  0.26860  1.0000
  H   H1734     1.0  0.67723  0.54741  0.49251  1.0000
  H   H1735     1.0  0.51801  0.56547  0.07187  1.0000
  H   H1736     1.0  0.50421  0.70843  0.18961  1.0000
  H   H1737     1.0  0.71313  0.51510  0.20018  1.0000
  Fe  Fe142     1.0  0.50516  0.59667  0.47927  1.0000
  H   H1738     1.0  0.58590  0.66980  0.11121  1.0000
  C   C1011     1.0  0.51596  0.55438  0.05638  1.0000
  H   H1739     1.0  0.65262  0.51951  0.18096  1.0000
  C   C1012     1.0  0.50928  0.73741  0.15958  1.0000
  H   H1740     1.0  0.53168  0.70455  0.17777  1.0000
  H   H1741     1.0  0.53804  0.54115  0.47276  1.0000
  H   H1742     1.0  0.50842  0.73812  0.18341  1.0000
  C   C1013     1.0  0.69014  0.54884  0.50221  1.0000
  C   C1014     1.0  0.53617  0.53621  0.49504  1.0000
  C   C1015     1.0  0.54010  0.98506  0.41494  1.0000
  C   C1016     1.0  0.52810  0.71463  0.16759  1.0000
  H   H1743     1.0  0.53511  0.69671  0.37979  1.0000
  H   H1744     1.0  0.56183  0.89717  0.01881  1.0000
  C   C1017     1.0  0.50304  0.55422  0.03172  1.0000
  C   C1018     1.0  0.55468  0.88267  0.01447  1.0000
  H   H1745     1.0  0.72668  0.50687  0.11244  1.0000
  C   C1019     1.0  0.50791  0.70806  0.16686  1.0000
  C   C1020     1.0  0.50564  0.77510  0.23432  1.0000
  H   H1746     1.0  0.52497  0.54165  0.00729  1.0000
  C   C1021     1.0  0.50452  0.71781  0.11679  1.0000
  H   H1747     1.0  0.73174  0.53657  0.23662  1.0000
  H   H1748     1.0  0.51808  0.72789  0.11302  1.0000
  H   H1749     1.0  0.67456  0.50467  0.35821  1.0000
  C   C1022     1.0  0.73817  0.53431  0.21741  1.0000
  H   H1750     1.0  0.50994  0.92610  0.13851  1.0000
  C   C1023     1.0  0.50416  0.96566  0.49158  1.0000
  H   H1751     1.0  0.74139  0.53665  0.15875  1.0000
  H   H1752     1.0  0.58950  0.98388  0.47631  1.0000
  H   H1753     1.0  0.55810  0.56099  0.02299  1.0000
  Fe  Fe143     1.0  0.54323  0.61783  0.49836  1.0000
  H   H1754     1.0  0.58422  0.55586  0.01151  1.0000
  Fe  Fe144     1.0  0.54544  0.95012  0.49054  1.0000
  C   C1024     1.0  0.50065  0.74393  0.23792  1.0000
  C   C1025     1.0  0.50039  0.65504  0.13145  1.0000
  Fe  Fe145     1.0  0.50127  0.66631  0.26797  1.0000
  H   H1755     1.0  0.50080  0.66751  0.39388  1.0000
  H   H1756     1.0  0.56963  0.50565  0.46257  1.0000
  Fe  Fe146     1.0  0.59976  0.50296  0.49873  1.0000
  S   S292      1.0  0.55642  0.97985  0.50167  1.0000
  H   H1757     1.0  0.50338  0.95335  0.50167  1.0000
  C   C1026     1.0  0.58292  0.56741  0.00359  1.0000
  N   N74       1.0  0.53477  0.91503  0.77038  1.0000
  H   H1758     1.0  0.53420  0.90884  0.81569  1.0000
  H   H1759     1.0  0.52350  0.70011  0.85311  1.0000
  H   H1760     1.0  0.53315  0.72435  0.63867  1.0000
  H   H1761     1.0  0.54900  0.67574  0.80013  1.0000
  Fe  Fe147     1.0  0.54012  0.92192  0.95227  1.0000
  S   S293      1.0  0.54597  0.90719  0.91487  1.0000
  H   H1762     1.0  0.52122  0.85796  0.63147  1.0000
  S   S294      1.0  0.53602  0.89185  0.54268  1.0000
  S   S295      1.0  0.54161  0.94970  0.95423  1.0000
  S   S296      1.0  0.52433  0.93206  0.51887  1.0000
  C   C1027     1.0  0.54932  0.68746  0.78859  1.0000
  C   C1028     1.0  0.51248  0.65795  0.89764  1.0000
  S   S297      1.0  0.51913  0.67480  0.68569  1.0000
  H   H1763     1.0  0.54026  0.72016  0.86622  1.0000
  H   H1764     1.0  0.53495  0.88612  0.98797  1.0000
  S   S298      1.0  0.51609  0.88114  0.67528  1.0000
  C   C1029     1.0  0.55571  0.51283  0.51034  1.0000
  S   S299      1.0  0.51688  0.85118  0.74260  1.0000
  H   H1765     1.0  0.56844  0.73575  0.86872  1.0000
  C   C1030     1.0  0.51607  0.91318  0.76880  1.0000
  H   H1766     1.0  0.52186  0.51178  0.51574  1.0000
  C   C1031     1.0  0.68065  0.57524  0.96576  1.0000
  C   C1032     1.0  0.54112  0.93677  0.81455  1.0000
  S   S300      1.0  0.69148  0.51707  0.74579  1.0000
  H   H1767     1.0  0.51017  0.65059  0.81421  1.0000
  C   C1033     1.0  0.68348  0.56148  0.55856  1.0000
  C   C1034     1.0  0.53264  0.99020  0.99406  1.0000
  C   C1035     1.0  0.59270  0.99882  0.97061  1.0000
  H   H1768     1.0  0.56915  0.63788  0.56587  1.0000
  H   H1769     1.0  0.55435  0.89403  0.79196  1.0000
  Fe  Fe148     1.0  0.51428  0.62488  0.52808  1.0000
  C   C1036     1.0  0.57163  0.73877  0.84599  1.0000
  Fe  Fe149     1.0  0.53028  0.63376  0.95297  1.0000
  S   S301      1.0  0.53615  0.64319  0.90701  1.0000
  H   H1770     1.0  0.51104  0.82341  0.99013  1.0000
  S   S302      1.0  0.51852  0.60411  0.95602  1.0000
  Fe  Fe150     1.0  0.62786  0.53040  0.53859  1.0000
  S   S303      1.0  0.59939  0.52432  0.52833  1.0000
  S   S304      1.0  0.63958  0.53789  0.58479  1.0000
  C   C1037     1.0  0.65318  0.53143  0.63609  1.0000
  S   S305      1.0  0.61389  0.53075  0.95543  1.0000
  H   H1771     1.0  0.55499  0.93631  0.70757  1.0000
  H   H1772     1.0  0.55269  0.88638  0.96851  1.0000
  C   C1038     1.0  0.64539  0.52114  0.86079  1.0000
  H   H1773     1.0  0.51222  0.72334  0.70987  1.0000
  H   H1774     1.0  0.53854  0.98630  0.97572  1.0000
  S   S306      1.0  0.51947  0.60071  0.52204  1.0000
  H   H1775     1.0  0.65691  0.59528  0.88734  1.0000
  H   H1776     1.0  0.68062  0.56869  0.86010  1.0000
  H   H1777     1.0  0.65229  0.61705  0.91396  1.0000
  H   H1778     1.0  0.66507  0.51632  0.50590  1.0000
  C   C1039     1.0  0.56067  0.85738  0.95938  1.0000
  Fe  Fe151     1.0  0.51726  0.93762  0.97951  1.0000
  C   C1040     1.0  0.65858  0.52143  0.65522  1.0000
  H   H1779     1.0  0.51722  0.71343  0.81082  1.0000
  H   H1780     1.0  0.52940  0.72697  0.68582  1.0000
  H   H1781     1.0  0.52472  0.88669  0.77556  1.0000
  C   C1041     1.0  0.59262  0.58193  0.51000  1.0000
  H   H1782     1.0  0.54023  0.68242  0.85448  1.0000
  C   C1042     1.0  0.53466  0.89726  0.76300  1.0000
  H   H1783     1.0  0.53810  0.50708  0.54820  1.0000
  C   C1043     1.0  0.64784  0.56774  0.92529  1.0000
  H   H1784     1.0  0.64264  0.56900  0.94658  1.0000
  C   C1044     1.0  0.65819  0.52236  0.90919  1.0000
  C   C1045     1.0  0.64481  0.52297  0.89098  1.0000
  C   C1046     1.0  0.56242  0.64183  0.58284  1.0000
  H   H1785     1.0  0.54198  0.94045  0.75065  1.0000
  Fe  Fe152     1.0  0.53680  0.60843  0.99485  1.0000
  C   C1047     1.0  0.70575  0.53639  0.57425  1.0000
  C   C1048     1.0  0.50200  0.66199  0.84954  1.0000
  Fe  Fe153     1.0  0.53498  0.91190  0.51009  1.0000
  C   C1049     1.0  0.55234  0.89599  0.76869  1.0000
  S   S307      1.0  0.65897  0.52609  0.94718  1.0000
  C   C1050     1.0  0.64554  0.52451  0.60852  1.0000
  H   H1786     1.0  0.55646  0.52873  0.54911  1.0000
  C   C1051     1.0  0.65912  0.51829  0.84845  1.0000
  H   H1787     1.0  0.53049  0.89311  0.74008  1.0000
  H   H1788     1.0  0.56015  0.93583  0.76031  1.0000
  H   H1789     1.0  0.60428  0.60389  0.96460  1.0000
  H   H1790     1.0  0.67773  0.56477  0.91208  1.0000
  H   H1791     1.0  0.62825  0.57603  0.90554  1.0000
  H   H1792     1.0  0.55211  0.88425  0.75661  1.0000
  H   H1793     1.0  0.64886  0.55485  0.92595  1.0000
  H   H1794     1.0  0.55719  0.85686  0.93598  1.0000
  S   S308      1.0  0.55633  0.92588  0.99400  1.0000
  H   H1795     1.0  0.69055  0.58719  0.90309  1.0000
  S   S309      1.0  0.65957  0.51693  0.81024  1.0000
  C   C1052     1.0  0.52183  0.64925  0.88550  1.0000
  C   C1053     1.0  0.52074  0.64643  0.85533  1.0000
  C   C1054     1.0  0.50798  0.87779  0.83757  1.0000
  Fe  Fe154     1.0  0.67319  0.50418  0.78181  1.0000
  H   H1796     1.0  0.52795  0.63972  0.84577  1.0000
  H   H1797     1.0  0.57148  0.64833  0.60173  1.0000
  H   H1798     1.0  0.58622  0.74526  0.84562  1.0000
  C   C1055     1.0  0.52285  0.65545  0.60586  1.0000
  C   C1056     1.0  0.52664  0.66565  0.63196  1.0000
  C   C1057     1.0  0.51410  0.66154  0.65330  1.0000
  H   H1799     1.0  0.55986  0.50956  0.55609  1.0000
  H   H1800     1.0  0.55486  0.91578  0.71805  1.0000
  H   H1801     1.0  0.53253  0.65879  0.58956  1.0000
  H   H1802     1.0  0.53931  0.67681  0.63559  1.0000
  H   H1803     1.0  0.56233  0.72785  0.80346  1.0000
  N   N75       1.0  0.54802  0.70688  0.83208  1.0000
  C   C1058     1.0  0.53104  0.89590  0.88541  1.0000
  C   C1059     1.0  0.51476  0.89665  0.88162  1.0000
  H   H1804     1.0  0.51543  0.70260  0.58258  1.0000
  C   C1060     1.0  0.51224  0.53008  0.96662  1.0000
  C   C1061     1.0  0.52418  0.87685  0.84151  1.0000
  C   C1062     1.0  0.53566  0.88593  0.86527  1.0000
  H   H1805     1.0  0.51616  0.73947  0.68335  1.0000
  H   H1806     1.0  0.52791  0.86927  0.82617  1.0000
  H   H1807     1.0  0.54822  0.88525  0.86804  1.0000
  C   C1063     1.0  0.53029  0.88914  0.57947  1.0000
  C   C1064     1.0  0.52828  0.90237  0.59590  1.0000
  C   C1065     1.0  0.52405  0.89970  0.62517  1.0000
  C   C1066     1.0  0.52135  0.88365  0.63825  1.0000
  C   C1067     1.0  0.58733  0.59529  0.51838  1.0000
  H   H1808     1.0  0.71440  0.55485  0.54036  1.0000
  H   H1809     1.0  0.53028  0.91476  0.58615  1.0000
  H   H1810     1.0  0.52284  0.91016  0.63774  1.0000
  Fe  Fe155     1.0  0.63780  0.52856  0.97429  1.0000
  H   H1811     1.0  0.71611  0.53158  0.57824  1.0000
  N   N76       1.0  0.66571  0.58275  0.92142  1.0000
  H   H1812     1.0  0.66447  0.52695  0.67630  1.0000
  C   C1068     1.0  0.51150  0.86635  0.94248  1.0000
  C   C1069     1.0  0.67520  0.58865  0.95068  1.0000
  H   H1813     1.0  0.56111  0.69107  0.89435  1.0000
  H   H1814     1.0  0.52473  0.60719  0.64996  1.0000
  C   C1070     1.0  0.55187  0.51455  0.54240  1.0000
  H   H1815     1.0  0.52755  0.93444  0.81995  1.0000
  H   H1816     1.0  0.52882  0.58429  0.61678  1.0000
  C   C1071     1.0  0.52550  0.71391  0.59541  1.0000
  H   H1817     1.0  0.58796  0.98643  0.95821  1.0000
  C   C1072     1.0  0.51860  0.85205  0.99808  1.0000
  H   H1818     1.0  0.56197  0.50343  0.50907  1.0000
  H   H1819     1.0  0.52074  0.59232  0.58695  1.0000
  H   H1820     1.0  0.68741  0.60114  0.94915  1.0000
  C   C1073     1.0  0.52722  0.72244  0.82699  1.0000
  C   C1074     1.0  0.67767  0.51827  0.51737  1.0000
  H   H1821     1.0  0.50251  0.53034  0.95008  1.0000
  C   C1075     1.0  0.52775  0.87315  0.59265  1.0000
  C   C1076     1.0  0.56010  0.70201  0.88208  1.0000
  C   C1077     1.0  0.67680  0.57670  0.90306  1.0000
  C   C1078     1.0  0.59613  0.57947  0.98724  1.0000
  H   H1822     1.0  0.63669  0.56528  0.88011  1.0000
  C   C1079     1.0  0.54631  0.92952  0.75128  1.0000
  N   N77       1.0  0.50471  0.71393  0.63521  1.0000
  H   H1823     1.0  0.56810  0.84914  0.96227  1.0000
  C   C1080     1.0  0.56604  0.58527  0.99999  1.0000
  C   C1081     1.0  0.51598  0.72631  0.68721  1.0000
  H   H1824     1.0  0.53462  0.91716  0.70800  1.0000
  H   H1825     1.0  0.66976  0.56183  0.96512  1.0000
  H   H1826     1.0  0.51790  0.74269  0.63498  1.0000
  H   H1827     1.0  0.66690  0.59176  0.96608  1.0000
  H   H1828     1.0  0.59552  0.99464  0.55376  1.0000
  H   H1829     1.0  0.52232  0.70093  0.63621  1.0000
  C   C1082     1.0  0.57916  0.59732  0.98344  1.0000
  H   H1830     1.0  0.52606  0.68574  0.80877  1.0000
  C   C1083     1.0  0.54164  0.91985  0.80139  1.0000
  H   H1831     1.0  0.65841  0.55885  0.86951  1.0000
  H   H1832     1.0  0.51327  0.66027  0.92079  1.0000
  N   N78       1.0  0.54703  0.61024  0.60317  1.0000
  C   C1084     1.0  0.52859  0.59652  0.60788  1.0000
  C   C1085     1.0  0.55454  0.60255  0.58049  1.0000
  C   C1086     1.0  0.54544  0.62643  0.59188  1.0000
  C   C1087     1.0  0.55757  0.61449  0.63158  1.0000
  H   H1833     1.0  0.50237  0.73957  0.75445  1.0000
  C   C1088     1.0  0.55553  0.58497  0.58778  1.0000
  H   H1834     1.0  0.53664  0.70493  0.78855  1.0000
  C   C1089     1.0  0.57788  0.62247  0.63023  1.0000
  Fe  Fe156     1.0  0.55558  0.95271  0.99763  1.0000
  C   C1090     1.0  0.67321  0.50394  0.54011  1.0000
  H   H1835     1.0  0.56794  0.61185  0.57498  1.0000
  H   H1836     1.0  0.54663  0.60010  0.55982  1.0000
  H   H1837     1.0  0.53593  0.62273  0.57291  1.0000
  H   H1838     1.0  0.54000  0.63235  0.60834  1.0000
  H   H1839     1.0  0.55428  0.62374  0.64516  1.0000
  H   H1840     1.0  0.55384  0.60221  0.64412  1.0000
  H   H1841     1.0  0.70988  0.54865  0.58803  1.0000
  H   H1842     1.0  0.66542  0.50577  0.55753  1.0000
  H   H1843     1.0  0.57784  0.60888  0.97558  1.0000
  H   H1844     1.0  0.54234  0.57364  0.58556  1.0000
  Fe  Fe157     1.0  0.50392  0.85648  0.70249  1.0000
  S   S310      1.0  0.50254  0.69384  0.75012  1.0000
  H   H1845     1.0  0.63417  0.52516  0.90008  1.0000
  C   C1091     1.0  0.52309  0.87031  0.62173  1.0000
  H   H1846     1.0  0.58386  0.63262  0.64801  1.0000
  H   H1847     1.0  0.58329  0.62911  0.61010  1.0000
  H   H1848     1.0  0.58277  0.61219  0.63436  1.0000
  H   H1849     1.0  0.62150  0.55277  0.90569  1.0000
  C   C1092     1.0  0.67608  0.54186  0.54808  1.0000
  C   C1093     1.0  0.64329  0.50742  0.60031  1.0000
  H   H1850     1.0  0.68438  0.57942  0.98883  1.0000
  H   H1851     1.0  0.65497  0.54463  0.64270  1.0000
  C   C1094     1.0  0.65656  0.50443  0.64683  1.0000
  Fe  Fe158     1.0  0.61800  0.55103  0.99095  1.0000
  C   C1095     1.0  0.51069  0.65259  0.83740  1.0000
  C   C1096     1.0  0.67180  0.51932  0.89687  1.0000
  H   H1852     1.0  0.57367  0.71255  0.88140  1.0000
  C   C1097     1.0  0.67221  0.51715  0.86670  1.0000
  H   H1853     1.0  0.67786  0.60872  0.90322  1.0000
  S   S311      1.0  0.51080  0.63774  0.98090  1.0000
  H   H1854     1.0  0.69740  0.56311  0.50869  1.0000
  H   H1855     1.0  0.67314  0.53386  0.56761  1.0000
  H   H1856     1.0  0.56372  0.90785  0.76173  1.0000
  H   H1857     1.0  0.52936  0.86287  0.58021  1.0000
  H   H1858     1.0  0.55888  0.65212  0.57329  1.0000
  S   S312      1.0  0.73522  0.51053  0.75863  1.0000
  C   C1098     1.0  0.53485  0.71210  0.84606  1.0000
  C   C1099     1.0  0.52533  0.85884  0.94656  1.0000
  C   C1100     1.0  0.54755  0.92416  0.71960  1.0000
  S   S313      1.0  0.50884  0.80065  0.74108  1.0000
  H   H1859     1.0  0.50528  0.73270  0.60299  1.0000
  H   H1860     1.0  0.67631  0.56262  0.57762  1.0000
  H   H1861     1.0  0.66867  0.58199  0.85938  1.0000
  C   C1101     1.0  0.53920  0.69638  0.80456  1.0000
  H   H1862     1.0  0.57542  0.71851  0.82115  1.0000
  H   H1863     1.0  0.53828  0.71313  0.59282  1.0000
  C   C1102     1.0  0.70520  0.54059  0.54187  1.0000
  S   S314      1.0  0.50107  0.62682  0.56957  1.0000
  H   H1864     1.0  0.56383  0.58228  0.57194  1.0000
  H   H1865     1.0  0.53644  0.83595  0.96910  1.0000
  H   H1866     1.0  0.68223  0.51884  0.91074  1.0000
  S   S315      1.0  0.61531  0.57640  0.97931  1.0000
  H   H1867     1.0  0.69763  0.56702  0.56518  1.0000
  H   H1868     1.0  0.51685  0.77240  0.76203  1.0000
  C   C1103     1.0  0.51475  0.54283  0.99267  1.0000
  H   H1869     1.0  0.64433  0.59890  0.93793  1.0000
  H   H1870     1.0  0.51251  0.97728  0.50552  1.0000
  C   C1104     1.0  0.63299  0.56555  0.90264  1.0000
  H   H1871     1.0  0.55163  0.70649  0.89458  1.0000
  H   H1872     1.0  0.50688  0.89657  0.72840  1.0000
  C   C1105     1.0  0.67048  0.57142  0.87130  1.0000
  H   H1873     1.0  0.68290  0.51507  0.85754  1.0000
  H   H1874     1.0  0.66584  0.61682  0.94446  1.0000
  H   H1875     1.0  0.56187  0.69050  0.84184  1.0000
  H   H1876     1.0  0.54907  0.94040  0.83531  1.0000
  Fe  Fe159     1.0  0.59954  0.51099  0.98802  1.0000
  N   N79       1.0  0.53292  0.85996  0.97692  1.0000
  C   C1106     1.0  0.50274  0.66439  0.87972  1.0000
  H   H1877     1.0  0.55561  0.92188  0.80391  1.0000
  C   C1107     1.0  0.65621  0.60827  0.92742  1.0000
  H   H1878     1.0  0.59379  0.60385  0.53703  1.0000
  H   H1879     1.0  0.60304  0.58028  0.52218  1.0000
  C   C1108     1.0  0.66451  0.59871  0.90835  1.0000
  H   H1880     1.0  0.66289  0.53847  0.53741  1.0000
  H   H1881     1.0  0.56151  0.58539  0.60961  1.0000
  N   N80       1.0  0.68746  0.53729  0.52808  1.0000
  C   C1109     1.0  0.50653  0.64090  0.60106  1.0000
  H   H1882     1.0  0.63522  0.52207  0.84685  1.0000
  C   C1110     1.0  0.55228  0.69474  0.85159  1.0000
  C   C1111     1.0  0.50535  0.73162  0.62687  1.0000
  H   H1883     1.0  0.50350  0.69906  0.67353  1.0000
  C   C1112     1.0  0.51773  0.60209  0.62875  1.0000
  H   H1884     1.0  0.50860  0.51631  0.97341  1.0000
  H   H1885     1.0  0.51369  0.61198  0.61917  1.0000
  C   C1113     1.0  0.52173  0.71315  0.62783  1.0000
  H   H1886     1.0  0.56310  0.69681  0.78503  1.0000
  H   H1887     1.0  0.50275  0.98834  0.54652  1.0000
  H   H1888     1.0  0.69230  0.57466  0.95599  1.0000
  H   H1889     1.0  0.52664  0.72649  0.58604  1.0000
  C   C1114     1.0  0.56456  0.72262  0.82447  1.0000
  S   S316      1.0  0.51444  0.90985  0.97381  1.0000
  H   H1890     1.0  0.56616  0.52600  0.50512  1.0000
  H   H1891     1.0  0.54269  0.68241  0.76700  1.0000
  H   H1892     1.0  0.56720  0.74897  0.83885  1.0000
  H   H1893     1.0  0.50799  0.90310  0.78415  1.0000
  H   H1894     1.0  0.54674  0.94823  0.80036  1.0000
  H   H1895     1.0  0.52500  0.53433  0.95602  1.0000
  C   C1115     1.0  0.50334  0.88768  0.85782  1.0000
  C   C1116     1.0  0.59416  0.59446  0.97723  1.0000
  H   H1896     1.0  0.56978  0.87114  0.96621  1.0000
  H   H1897     1.0  0.51114  0.91969  0.72462  1.0000
  H   H1898     1.0  0.52027  0.72827  0.84070  1.0000
  H   H1899     1.0  0.53591  0.86628  0.93168  1.0000
  H   H1900     1.0  0.68125  0.56973  0.54169  1.0000
  H   H1901     1.0  0.53754  0.73339  0.81589  1.0000
  H   H1902     1.0  0.51547  0.92577  0.77558  1.0000
  S   S317      1.0  0.53910  0.64271  0.50717  1.0000
  H   H1903     1.0  0.52029  0.99101  0.98671  1.0000
  H   H1904     1.0  0.51103  0.90425  0.89693  1.0000
  S   S318      1.0  0.62719  0.50733  0.51212  1.0000
  S   S319      1.0  0.55019  0.63800  0.99007  1.0000
  H   H1905     1.0  0.69349  0.52611  0.58216  1.0000
  H   H1906     1.0  0.50678  0.86446  0.91943  1.0000
  S   S320      1.0  0.56859  0.61563  0.51274  1.0000
  Fe  Fe160     1.0  0.50026  0.60835  0.98598  1.0000
  H   H1907     1.0  0.52094  0.55659  0.98488  1.0000
  C   C1117     1.0  0.54414  0.84980  0.97748  1.0000
  C   C1118     1.0  0.50627  0.90826  0.73901  1.0000
  C   C1119     1.0  0.50516  0.76636  0.74790  1.0000
  H   H1908     1.0  0.51738  0.88076  0.94738  1.0000
  H   H1909     1.0  0.54891  0.54232  0.50762  1.0000
  C   C1120     1.0  0.58854  0.99881  0.99959  1.0000
  C   C1121     1.0  0.50249  0.71140  0.66717  1.0000
  H   H1910     1.0  0.51934  0.84491  0.93783  1.0000
  H   H1911     1.0  0.50534  0.59033  0.63277  1.0000
  H   H1912     1.0  0.71121  0.53303  0.52978  1.0000
  C   C1122     1.0  0.54365  0.87918  0.98566  1.0000
  C   C1123     1.0  0.50494  0.83290  0.99086  1.0000
  H   H1913     1.0  0.50731  0.00200  0.51517  1.0000
  H   H1914     1.0  0.52704  0.54101  0.50494  1.0000
  H   H1915     1.0  0.68523  0.50308  0.54916  1.0000
  H   H1916     1.0  0.51130  0.86044  0.00071  1.0000
  H   H1917     1.0  0.54839  0.84851  0.00003  1.0000
  C   C1124     1.0  0.87314  0.46974  0.09344  1.0000
  H   H1918     1.0  0.97032  0.40926  0.15503  1.0000
  S   S321      1.0  0.87480  0.38255  0.44659  1.0000
  H   H1919     1.0  0.86301  0.30961  0.42883  1.0000
  S   S322      1.0  0.91472  0.40586  0.04538  1.0000
  H   H1920     1.0  0.97779  0.39200  0.11541  1.0000
  H   H1921     1.0  0.77331  0.43513  0.31927  1.0000
  C   C1125     1.0  0.96388  0.38844  0.12066  1.0000
  Fe  Fe161     1.0  0.90104  0.37648  0.03740  1.0000
  S   S323      1.0  0.89337  0.35837  0.07609  1.0000
  C   C1126     1.0  0.93549  0.38818  0.10252  1.0000
  H   H1922     1.0  0.76887  0.25955  0.20658  1.0000
  H   H1923     1.0  0.95041  0.36576  0.04018  1.0000
  H   H1924     1.0  0.92323  0.43860  0.01735  1.0000
  S   S324      1.0  0.81999  0.48062  0.28381  1.0000
  Fe  Fe162     1.0  0.83029  0.47366  0.24362  1.0000
  S   S325      1.0  0.82268  0.44721  0.22061  1.0000
  H   H1925     1.0  0.78868  0.31740  0.12379  1.0000
  C   C1127     1.0  0.82694  0.31600  0.42850  1.0000
  Fe  Fe163     1.0  0.83945  0.35417  0.22271  1.0000
  S   S326      1.0  0.81027  0.34520  0.22725  1.0000
  S   S327      1.0  0.85106  0.36886  0.18160  1.0000
  Fe  Fe164     1.0  0.84440  0.34507  0.28606  1.0000
  S   S328      1.0  0.81557  0.33486  0.29429  1.0000
  S   S329      1.0  0.86579  0.34741  0.31996  1.0000
  Fe  Fe165     1.0  0.81060  0.32154  0.24989  1.0000
  S   S330      1.0  0.79184  0.29340  0.23294  1.0000
  Fe  Fe166     1.0  0.81755  0.35911  0.27085  1.0000
  S   S331      1.0  0.80785  0.37816  0.29067  1.0000
  S   S332      1.0  0.83967  0.32993  0.24319  1.0000
  S   S333      1.0  0.84650  0.36984  0.26488  1.0000
  C   C1128     1.0  0.82001  0.42872  0.24107  1.0000
  C   C1129     1.0  0.81620  0.42815  0.27025  1.0000
  C   C1130     1.0  0.81211  0.41244  0.28519  1.0000
  C   C1131     1.0  0.81258  0.39753  0.27137  1.0000
  C   C1132     1.0  0.81695  0.39831  0.24247  1.0000
  C   C1133     1.0  0.82032  0.41376  0.22722  1.0000
  H   H1926     1.0  0.81593  0.43964  0.28104  1.0000
  H   H1927     1.0  0.80876  0.41187  0.30757  1.0000
  H   H1928     1.0  0.81738  0.38688  0.23168  1.0000
  H   H1929     1.0  0.82318  0.41410  0.20460  1.0000
  N   N81       1.0  0.86607  0.41560  0.32960  1.0000
  C   C1134     1.0  0.85449  0.40583  0.35354  1.0000
  C   C1135     1.0  0.87774  0.40633  0.32329  1.0000
  H   H1930     1.0  0.83103  0.33059  0.17254  1.0000
  C   C1136     1.0  0.77034  0.27759  0.24156  1.0000
  S   S334      1.0  0.95730  0.39701  0.49421  1.0000
  H   H1931     1.0  0.86247  0.40637  0.37349  1.0000
  H   H1932     1.0  0.98752  0.43913  0.09461  1.0000
  C   C1137     1.0  0.92885  0.39947  0.12113  1.0000
  H   H1933     1.0  0.90210  0.49943  0.32140  1.0000
  H   H1934     1.0  0.88214  0.43569  0.36162  1.0000
  C   C1138     1.0  0.87287  0.37306  0.41129  1.0000
  C   C1139     1.0  0.85787  0.37020  0.39359  1.0000
  C   C1140     1.0  0.85552  0.36237  0.36564  1.0000
  C   C1141     1.0  0.86821  0.35736  0.35499  1.0000
  C   C1142     1.0  0.88321  0.36021  0.37269  1.0000
  C   C1143     1.0  0.88556  0.36803  0.40068  1.0000
  H   H1935     1.0  0.84792  0.37393  0.40163  1.0000
  H   H1936     1.0  0.84383  0.36006  0.35237  1.0000
  H   H1937     1.0  0.89309  0.35636  0.36466  1.0000
  H   H1938     1.0  0.89720  0.37018  0.41397  1.0000
  C   C1144     1.0  0.88170  0.36147  0.10542  1.0000
  C   C1145     1.0  0.87526  0.37447  0.10531  1.0000
  C   C1146     1.0  0.86601  0.37652  0.12887  1.0000
  C   C1147     1.0  0.86305  0.36564  0.15286  1.0000
  C   C1148     1.0  0.86959  0.35270  0.15308  1.0000
  C   C1149     1.0  0.87886  0.35065  0.12949  1.0000
  H   H1939     1.0  0.87734  0.38291  0.08701  1.0000
  H   H1940     1.0  0.86104  0.38658  0.12843  1.0000
  H   H1941     1.0  0.86764  0.34439  0.17151  1.0000
  H   H1942     1.0  0.88387  0.34062  0.12988  1.0000
  H   H1943     1.0  0.81586  0.32391  0.09730  1.0000
  H   H1944     1.0  0.83151  0.41199  0.34540  1.0000
  S   S335      1.0  0.82908  0.49560  0.21734  1.0000
  C   C1150     1.0  0.86454  0.42145  0.27515  1.0000
  H   H1945     1.0  0.98202  0.47672  0.47067  1.0000
  C   C1151     1.0  0.84083  0.41237  0.36320  1.0000
  S   S336      1.0  0.90579  0.36702  0.49870  1.0000
  H   H1946     1.0  0.90096  0.44820  0.11126  1.0000
  H   H1947     1.0  0.76744  0.29218  0.27815  1.0000
  H   H1948     1.0  0.84724  0.42572  0.37390  1.0000
  H   H1949     1.0  0.75703  0.44891  0.23344  1.0000
  H   H1950     1.0  0.95743  0.37370  0.12057  1.0000
  N   N82       1.0  0.81150  0.31375  0.14040  1.0000
  C   C1152     1.0  0.79797  0.32121  0.14313  1.0000
  C   C1153     1.0  0.80153  0.29447  0.13120  1.0000
  C   C1154     1.0  0.82366  0.32367  0.11715  1.0000
  C   C1155     1.0  0.82148  0.31648  0.16916  1.0000
  H   H1951     1.0  0.87415  0.49696  0.09300  1.0000
  H   H1952     1.0  0.90620  0.47532  0.09177  1.0000
  H   H1953     1.0  0.78679  0.44567  0.20016  1.0000
  H   H1954     1.0  0.90881  0.48897  0.04043  1.0000
  H   H1955     1.0  0.81238  0.31409  0.18713  1.0000
  C   C1156     1.0  0.96749  0.44903  0.46055  1.0000
  C   C1157     1.0  0.80522  0.34154  0.14710  1.0000
  H   H1956     1.0  0.79394  0.29319  0.11038  1.0000
  H   H1957     1.0  0.83102  0.30651  0.48783  1.0000
  H   H1958     1.0  0.84521  0.32565  0.09090  1.0000
  C   C1158     1.0  0.76724  0.48539  0.26285  1.0000
  H   H1959     1.0  0.79516  0.28300  0.17421  1.0000
  C   C1159     1.0  0.83716  0.31683  0.10768  1.0000
  H   H1960     1.0  0.93578  0.40358  0.14252  1.0000
  H   H1961     1.0  0.81662  0.30604  0.44122  1.0000
  C   C1160     1.0  0.78071  0.45285  0.21285  1.0000
  H   H1962     1.0  0.79010  0.46101  0.23040  1.0000
  H   H1963     1.0  0.83092  0.30332  0.09758  1.0000
  H   H1964     1.0  0.83403  0.30951  0.41683  1.0000
  H   H1965     1.0  0.77740  0.28632  0.15603  1.0000
  C   C1161     1.0  0.86903  0.32422  0.42730  1.0000
  H   H1966     1.0  0.95448  0.36153  0.07659  1.0000
  C   C1162     1.0  0.77274  0.42672  0.30005  1.0000
  H   H1967     1.0  0.83190  0.29640  0.15684  1.0000
  C   C1163     1.0  0.89088  0.40687  0.34791  1.0000
  H   H1968     1.0  0.89898  0.40019  0.34002  1.0000
  H   H1969     1.0  0.88954  0.43980  0.32583  1.0000
  H   H1970     1.0  0.83275  0.40331  0.37965  1.0000
  H   H1971     1.0  0.84551  0.41990  0.30562  1.0000
  N   N83       1.0  0.85173  0.32904  0.46931  1.0000
  H   H1972     1.0  0.76979  0.44814  0.27847  1.0000
  C   C1164     1.0  0.86926  0.33379  0.45609  1.0000
  S   S337      1.0  0.96185  0.42760  0.02012  1.0000
  C   C1165     1.0  0.84432  0.31026  0.47935  1.0000
  C   C1166     1.0  0.85518  0.34210  0.49440  1.0000
  H   H1973     1.0  0.91294  0.47956  0.12880  1.0000
  H   H1974     1.0  0.76741  0.41306  0.20894  1.0000
  H   H1975     1.0  0.75406  0.43330  0.20487  1.0000
  Fe  Fe167     1.0  0.89442  0.38584  0.48445  1.0000
  H   H1976     1.0  0.85926  0.46548  0.16428  1.0000
  Fe  Fe168     1.0  0.89759  0.40707  0.00820  1.0000
  H   H1977     1.0  0.87570  0.34824  0.45213  1.0000
  C   C1167     1.0  0.91994  0.44947  0.02256  1.0000
  H   H1978     1.0  0.85899  0.48174  0.06795  1.0000
  H   H1979     1.0  0.99029  0.41230  0.46667  1.0000
  H   H1980     1.0  0.76194  0.23321  0.30757  1.0000
  H   H1981     1.0  0.78768  0.44420  0.26812  1.0000
  H   H1982     1.0  0.84659  0.34306  0.43362  1.0000
  H   H1983     1.0  0.95556  0.43735  0.46648  1.0000
  H   H1984     1.0  0.83030  0.33673  0.45879  1.0000
  C   C1168     1.0  0.94853  0.36858  0.06301  1.0000
  H   H1985     1.0  0.82624  0.29649  0.19368  1.0000
  H   H1986     1.0  0.84657  0.31761  0.12554  1.0000
  H   H1987     1.0  0.97584  0.40108  0.00895  1.0000
  C   C1169     1.0  0.90240  0.44711  0.02114  1.0000
  H   H1988     1.0  0.86778  0.44850  0.13769  1.0000
  S   S338      1.0  0.92131  0.37641  0.00629  1.0000
  C   C1170     1.0  0.97147  0.46537  0.48069  1.0000
  H   H1989     1.0  0.87371  0.45561  0.31456  1.0000
  H   H1990     1.0  0.87544  0.43477  0.27909  1.0000
  H   H1991     1.0  0.85516  0.42271  0.25879  1.0000
  H   H1992     1.0  0.88427  0.39949  0.36685  1.0000
  H   H1993     1.0  0.86964  0.39210  0.31690  1.0000
  N   N84       1.0  0.88539  0.47345  0.11981  1.0000
  C   C1171     1.0  0.88194  0.45589  0.13314  1.0000
  C   C1172     1.0  0.88227  0.48489  0.14249  1.0000
  C   C1173     1.0  0.90442  0.48179  0.11178  1.0000
  H   H1994     1.0  0.88283  0.32822  0.42108  1.0000
  C   C1174     1.0  0.88667  0.44288  0.11497  1.0000
  H   H1995     1.0  0.86249  0.32834  0.40955  1.0000
  Fe  Fe169     1.0  0.84859  0.49813  0.29640  1.0000
  H   H1996     1.0  0.87673  0.46242  0.07650  1.0000
  H   H1997     1.0  0.88929  0.45801  0.15443  1.0000
  H   H1998     1.0  0.86261  0.48792  0.16852  1.0000
  H   H1999     1.0  0.88573  0.49851  0.13521  1.0000
  H   H2000     1.0  0.89118  0.48678  0.16193  1.0000
  H   H2001     1.0  0.84223  0.30083  0.46089  1.0000
  H   H2002     1.0  0.88485  0.45965  0.02627  1.0000
  H   H2003     1.0  0.77455  0.47740  0.26184  1.0000
  H   H2004     1.0  0.75023  0.23524  0.33771  1.0000
  Fe  Fe170     1.0  0.93369  0.40620  0.01193  1.0000
  H   H2005     1.0  0.76030  0.21985  0.33815  1.0000
  C   C1175     1.0  0.92951  0.48052  0.03573  1.0000
  S   S339      1.0  0.91943  0.41015  0.49529  1.0000
  C   C1176     1.0  0.76211  0.26180  0.22453  1.0000
  H   H2006     1.0  0.93034  0.37467  0.11151  1.0000
  H   H2007     1.0  0.77806  0.39361  0.23522  1.0000
  C   C1177     1.0  0.76274  0.44021  0.22415  1.0000
  S   S340      1.0  0.85845  0.48897  0.25787  1.0000
  H   H2008     1.0  0.92982  0.41142  0.10958  1.0000
  C   C1178     1.0  0.91296  0.50195  0.10735  1.0000
  H   H2009     1.0  0.91467  0.39158  0.12483  1.0000
  H   H2010     1.0  0.88328  0.43049  0.12697  1.0000
  H   H2011     1.0  0.88204  0.49047  0.06118  1.0000
  H   H2012     1.0  0.87440  0.45839  0.35248  1.0000
  C   C1179     1.0  0.77347  0.43716  0.27251  1.0000
  H   H2013     1.0  0.99077  0.42220  0.11365  1.0000
  H   H2014     1.0  0.84708  0.39150  0.34720  1.0000
  C   C1180     1.0  0.86930  0.44818  0.33461  1.0000
  H   H2015     1.0  0.95271  0.39501  0.05161  1.0000
  H   H2016     1.0  0.86961  0.41237  0.26533  1.0000
  H   H2017     1.0  0.82010  0.32064  0.41188  1.0000
  H   H2018     1.0  0.78637  0.42453  0.23178  1.0000
  H   H2019     1.0  0.84562  0.31376  0.18138  1.0000
  N   N85       1.0  0.76313  0.42695  0.24575  1.0000
  H   H2020     1.0  0.78422  0.42341  0.30203  1.0000
  H   H2021     1.0  0.85481  0.44265  0.33485  1.0000
  H   H2022     1.0  0.84598  0.39949  0.29777  1.0000
  C   C1181     1.0  0.87747  0.43471  0.33856  1.0000
  C   C1182     1.0  0.83169  0.30501  0.17499  1.0000
  H   H2023     1.0  0.88601  0.41223  0.30469  1.0000
  C   C1183     1.0  0.85470  0.41372  0.30270  1.0000
  H   H2024     1.0  0.90006  0.42061  0.35476  1.0000
  C   C1184     1.0  0.98348  0.42892  0.01735  1.0000
  H   H2025     1.0  0.75187  0.50058  0.16605  1.0000
  C   C1185     1.0  0.76934  0.39876  0.24568  1.0000
  H   H2026     1.0  0.77300  0.40015  0.26898  1.0000
  H   H2027     1.0  0.95694  0.42000  0.08095  1.0000
  H   H2028     1.0  0.81063  0.34837  0.12695  1.0000
  C   C1186     1.0  0.92211  0.46204  0.49634  1.0000
  H   H2029     1.0  0.78271  0.26870  0.14471  1.0000
  H   H2030     1.0  0.85943  0.46044  0.09812  1.0000
  H   H2031     1.0  0.99551  0.45720  0.02565  1.0000
  H   H2032     1.0  0.81033  0.28805  0.12642  1.0000
  C   C1187     1.0  0.95760  0.38887  0.06895  1.0000
  N   N86       1.0  0.95509  0.39535  0.09833  1.0000
  H   H2033     1.0  0.78969  0.31565  0.16192  1.0000
  H   H2034     1.0  0.97879  0.44546  0.45967  1.0000
  C   C1188     1.0  0.83922  0.33202  0.44792  1.0000
  H   H2035     1.0  0.93411  0.36287  0.06563  1.0000
  H   H2036     1.0  0.85370  0.47657  0.13470  1.0000
  C   C1189     1.0  0.89840  0.46144  0.02739  1.0000
  C   C1190     1.0  0.78853  0.28269  0.15300  1.0000
  C   C1191     1.0  0.76137  0.28017  0.26479  1.0000
  C   C1192     1.0  0.87233  0.48574  0.07826  1.0000
  H   H2037     1.0  0.87908  0.43895  0.09398  1.0000
  C   C1193     1.0  0.91196  0.47811  0.03484  1.0000
  H   H2038     1.0  0.92019  0.45973  0.47317  1.0000
  C   C1194     1.0  0.77197  0.41644  0.23205  1.0000
  H   H2039     1.0  0.97703  0.49897  0.49777  1.0000
  H   H2040     1.0  0.97176  0.39286  0.06521  1.0000
  H   H2041     1.0  0.98750  0.42079  0.07473  1.0000
  H   H2042     1.0  0.79434  0.34513  0.15273  1.0000
  C   C1195     1.0  0.99296  0.41641  0.48926  1.0000
  C   C1196     1.0  0.96390  0.39463  0.15210  1.0000
  C   C1197     1.0  0.98675  0.41395  0.01258  1.0000
  S   S341      1.0  0.94269  0.49638  0.48472  1.0000
  H   H2043     1.0  0.96098  0.42115  0.11873  1.0000
  H   H2044     1.0  0.92814  0.38636  0.08138  1.0000
  C   C1198     1.0  0.99788  0.44555  0.02187  1.0000
  C   C1199     1.0  0.98339  0.42458  0.09516  1.0000
  H   H2045     1.0  0.83161  0.33778  0.12413  1.0000
  C   C1200     1.0  0.86330  0.47805  0.15274  1.0000
  H   H2046     1.0  0.87861  0.33154  0.47133  1.0000
  H   H2047     1.0  0.77870  0.46228  0.19808  1.0000
  H   H2048     1.0  0.81538  0.34677  0.16487  1.0000
  S   S342      1.0  0.86205  0.49595  0.33924  1.0000
  C   C1201     1.0  0.96329  0.41537  0.09846  1.0000
  H   H2049     1.0  0.85754  0.35543  0.48637  1.0000
  H   H2050     1.0  0.95964  0.46828  0.47930  1.0000
  H   H2051     1.0  0.97150  0.38935  0.16606  1.0000
  H   H2052     1.0  0.88297  0.49309  0.38732  1.0000
  H   H2053     1.0  0.76059  0.41450  0.30187  1.0000
  C   C1202     1.0  0.93347  0.46612  0.03004  1.0000
  H   H2054     1.0  0.95040  0.38928  0.16002  1.0000
  S   S343      1.0  0.94663  0.50156  0.04260  1.0000
  C   C1203     1.0  0.75301  0.22562  0.32453  1.0000
  S   S344      1.0  0.88553  0.42648  0.01075  1.0000
  H   H2055     1.0  0.96475  0.45218  0.43824  1.0000
  H   H2056     1.0  0.94703  0.46789  0.03065  1.0000
  H   H2057     1.0  0.75569  0.38848  0.24170  1.0000
  C   C1204     1.0  0.85587  0.30619  0.50231  1.0000
  H   H2058     1.0  0.86212  0.29817  0.49238  1.0000
  H   H2059     1.0  0.85176  0.50236  0.47388  1.0000
  H   H2060     1.0  0.90306  0.44799  0.90127  1.0000
  S   S345      1.0  0.87166  0.50003  0.76467  1.0000
  S   S346      1.0  0.90030  0.36822  0.92546  1.0000
  Fe  Fe171     1.0  0.90953  0.40914  0.53994  1.0000
  S   S347      1.0  0.92215  0.39218  0.55781  1.0000
  H   H2061     1.0  0.88810  0.44393  0.62947  1.0000
  C   C1205     1.0  0.79412  0.48114  0.83083  1.0000
  C   C1206     1.0  0.91563  0.45743  0.64192  1.0000
  Fe  Fe172     1.0  0.89649  0.36946  0.54317  1.0000
  S   S348      1.0  0.87713  0.34619  0.56759  1.0000
  H   H2062     1.0  0.86415  0.40632  0.69287  1.0000
  S   S349      1.0  0.88367  0.38674  0.52795  1.0000
  H   H2063     1.0  0.87345  0.38184  0.70011  1.0000
  S   S350      1.0  0.83749  0.48285  0.71686  1.0000
  S   S351      1.0  0.83241  0.47579  0.78608  1.0000
  Fe  Fe173     1.0  0.84988  0.47340  0.75254  1.0000
  S   S352      1.0  0.85942  0.45189  0.74729  1.0000
  H   H2064     1.0  0.87161  0.47839  0.62690  1.0000
  S   S353      1.0  0.79132  0.47691  0.75215  1.0000
  Fe  Fe174     1.0  0.84241  0.33637  0.72829  1.0000
  S   S354      1.0  0.81612  0.33061  0.70709  1.0000
  S   S355      1.0  0.86729  0.34344  0.70345  1.0000
  Fe  Fe175     1.0  0.82907  0.33511  0.78974  1.0000
  S   S356      1.0  0.80162  0.32933  0.77222  1.0000
  S   S357      1.0  0.83219  0.33826  0.83898  1.0000
  Fe  Fe176     1.0  0.80473  0.31006  0.74094  1.0000
  S   S358      1.0  0.78518  0.28195  0.72561  1.0000
  Fe  Fe177     1.0  0.81530  0.35020  0.74024  1.0000
  S   S359      1.0  0.80608  0.37124  0.72817  1.0000
  S   S360      1.0  0.83153  0.31455  0.76022  1.0000
  S   S361      1.0  0.84230  0.35722  0.75969  1.0000
  C   C1207     1.0  0.84432  0.42973  0.74115  1.0000
  C   C1208     1.0  0.82637  0.42491  0.73554  1.0000
  C   C1209     1.0  0.81474  0.40691  0.73109  1.0000
  C   C1210     1.0  0.82098  0.39372  0.73261  1.0000
  C   C1211     1.0  0.83897  0.39866  0.73790  1.0000
  C   C1212     1.0  0.85059  0.41659  0.74206  1.0000
  H   H2065     1.0  0.82146  0.43502  0.73472  1.0000
  H   H2066     1.0  0.80083  0.40319  0.72689  1.0000
  H   H2067     1.0  0.84401  0.38873  0.73867  1.0000
  H   H2068     1.0  0.86449  0.42029  0.74632  1.0000
  H   H2069     1.0  0.82455  0.37851  0.78966  1.0000
  H   H2070     1.0  0.87076  0.46680  0.96652  1.0000
  C   C1213     1.0  0.93419  0.48215  0.53786  1.0000
  S   S362      1.0  0.88233  0.37759  0.00209  1.0000
  C   C1214     1.0  0.76308  0.26857  0.73500  1.0000
  H   H2071     1.0  0.83620  0.38405  0.89761  1.0000
  C   C1215     1.0  0.98266  0.41599  0.53735  1.0000
  H   H2072     1.0  0.76198  0.28621  0.76850  1.0000
  C   C1216     1.0  0.75355  0.25215  0.72019  1.0000
  N   N87       1.0  0.89327  0.47144  0.63736  1.0000
  H   H2073     1.0  0.85334  0.37514  0.82160  1.0000
  C   C1217     1.0  0.88132  0.36071  0.90153  1.0000
  C   C1218     1.0  0.88306  0.35786  0.87200  1.0000
  C   C1219     1.0  0.86825  0.35124  0.85245  1.0000
  C   C1220     1.0  0.85145  0.34707  0.86234  1.0000
  C   C1221     1.0  0.84972  0.34999  0.89183  1.0000
  C   C1222     1.0  0.86456  0.35694  0.91126  1.0000
  H   H2074     1.0  0.89595  0.36065  0.86427  1.0000
  H   H2075     1.0  0.86982  0.34904  0.82988  1.0000
  H   H2076     1.0  0.83679  0.34672  0.89978  1.0000
  H   H2077     1.0  0.86299  0.35892  0.93391  1.0000
  C   C1223     1.0  0.87435  0.34708  0.60527  1.0000
  C   C1224     1.0  0.88875  0.35523  0.62488  1.0000
  C   C1225     1.0  0.88633  0.35404  0.65483  1.0000
  C   C1226     1.0  0.86945  0.34524  0.66555  1.0000
  C   C1227     1.0  0.85495  0.33770  0.64595  1.0000
  C   C1228     1.0  0.85744  0.33830  0.61598  1.0000
  H   H2078     1.0  0.90187  0.36183  0.61698  1.0000
  H   H2079     1.0  0.89765  0.35987  0.66979  1.0000
  H   H2080     1.0  0.84188  0.33112  0.65389  1.0000
  H   H2081     1.0  0.84622  0.33189  0.60100  1.0000
  H   H2082     1.0  0.89030  0.40660  0.62712  1.0000
  H   H2083     1.0  0.84857  0.36706  0.67492  1.0000
  C   C1229     1.0  0.91752  0.45070  0.54459  1.0000
  C   C1230     1.0  0.77619  0.48681  0.75431  1.0000
  H   H2084     1.0  0.82244  0.37037  0.63033  1.0000
  H   H2085     1.0  0.97212  0.41155  0.55222  1.0000
  H   H2086     1.0  0.89131  0.40318  0.70350  1.0000
  C   C1231     1.0  0.92711  0.46787  0.55626  1.0000
  H   H2087     1.0  0.90153  0.45853  0.60380  1.0000
  H   H2088     1.0  0.75572  0.46303  0.76973  1.0000
  H   H2089     1.0  0.89070  0.43052  0.92446  1.0000
  H   H2090     1.0  0.80393  0.48001  0.81649  1.0000
  H   H2091     1.0  0.86186  0.38878  0.85466  1.0000
  C   C1232     1.0  0.86354  0.38474  0.62829  1.0000
  H   H2092     1.0  0.86625  0.31799  0.51357  1.0000
  H   H2093     1.0  0.84204  0.43190  0.84544  1.0000
  H   H2094     1.0  0.88878  0.39007  0.67150  1.0000
  C   C1233     1.0  0.87870  0.39896  0.61249  1.0000
  H   H2095     1.0  0.87443  0.40812  0.60091  1.0000
  H   H2096     1.0  0.82886  0.35266  0.63688  1.0000
  H   H2097     1.0  0.75999  0.21188  0.83182  1.0000
  H   H2098     1.0  0.87925  0.41527  0.66561  1.0000
  H   H2099     1.0  0.79822  0.37367  0.83742  1.0000
  N   N88       1.0  0.85600  0.39150  0.65212  1.0000
  H   H2100     1.0  0.81506  0.37199  0.88073  1.0000
  H   H2101     1.0  0.91286  0.44464  0.93501  1.0000
  H   H2102     1.0  0.85839  0.41587  0.63268  1.0000
  C   C1234     1.0  0.83615  0.40790  0.65923  1.0000
  H   H2103     1.0  0.99562  0.45888  0.53801  1.0000
  H   H2104     1.0  0.75967  0.24804  0.70320  1.0000
  H   H2105     1.0  0.88075  0.46597  0.89263  1.0000
  C   C1235     1.0  0.90691  0.48978  0.63125  1.0000
  H   H2106     1.0  0.86564  0.45527  0.62593  1.0000
  H   H2107     1.0  0.92748  0.46938  0.63661  1.0000
  H   H2108     1.0  0.91475  0.45594  0.66557  1.0000
  H   H2109     1.0  0.79509  0.35804  0.80838  1.0000
  H   H2110     1.0  0.82500  0.36766  0.82143  1.0000
  N   N89       1.0  0.83547  0.27989  0.69010  1.0000
  C   C1236     1.0  0.83389  0.29484  0.67403  1.0000
  C   C1237     1.0  0.85259  0.28773  0.70791  1.0000
  C   C1238     1.0  0.82035  0.27281  0.70997  1.0000
  C   C1239     1.0  0.83455  0.26569  0.66850  1.0000
  C   C1240     1.0  0.81625  0.29019  0.65701  1.0000
  C   C1241     1.0  0.86917  0.29805  0.69091  1.0000
  C   C1242     1.0  0.81964  0.25814  0.73032  1.0000
  C   C1243     1.0  0.84390  0.25390  0.67745  1.0000
  H   H2111     1.0  0.83604  0.30620  0.68920  1.0000
  H   H2112     1.0  0.84427  0.30018  0.65799  1.0000
  H   H2113     1.0  0.85500  0.27746  0.71978  1.0000
  H   H2114     1.0  0.85209  0.29707  0.72504  1.0000
  H   H2115     1.0  0.82019  0.28379  0.72373  1.0000
  H   H2116     1.0  0.80748  0.26714  0.69750  1.0000
  H   H2117     1.0  0.82059  0.25665  0.66253  1.0000
  H   H2118     1.0  0.84028  0.27158  0.64779  1.0000
  H   H2119     1.0  0.81770  0.30111  0.64239  1.0000
  H   H2120     1.0  0.81207  0.27788  0.64345  1.0000
  H   H2121     1.0  0.80567  0.28904  0.67169  1.0000
  H   H2122     1.0  0.86939  0.29112  0.67044  1.0000
  H   H2123     1.0  0.87028  0.31145  0.68592  1.0000
  H   H2124     1.0  0.88111  0.30002  0.70441  1.0000
  H   H2125     1.0  0.81581  0.24535  0.71829  1.0000
  H   H2126     1.0  0.80905  0.25595  0.74561  1.0000
  H   H2127     1.0  0.83191  0.26170  0.74372  1.0000
  H   H2128     1.0  0.85842  0.26130  0.67793  1.0000
  H   H2129     1.0  0.84040  0.24289  0.66109  1.0000
  H   H2130     1.0  0.84004  0.24780  0.69853  1.0000
  C   C1244     1.0  0.84253  0.37576  0.66653  1.0000
  H   H2131     1.0  0.86832  0.37507  0.63655  1.0000
  H   H2132     1.0  0.83135  0.41673  0.64773  1.0000
  H   H2133     1.0  0.94985  0.43344  0.56156  1.0000
  H   H2134     1.0  0.87921  0.45528  0.67236  1.0000
  H   H2135     1.0  0.79695  0.37955  0.80010  1.0000
  C   C1245     1.0  0.89889  0.45739  0.62718  1.0000
  H   H2136     1.0  0.85229  0.43410  0.81088  1.0000
  H   H2137     1.0  0.83428  0.37137  0.86565  1.0000
  H   H2138     1.0  0.92965  0.47008  0.57932  1.0000
  C   C1246     1.0  0.96144  0.44573  0.55638  1.0000
  H   H2139     1.0  0.91262  0.48982  0.60989  1.0000
  C   C1247     1.0  0.82639  0.36345  0.64732  1.0000
  H   H2140     1.0  0.94203  0.49534  0.54682  1.0000
  C   C1248     1.0  0.87009  0.40249  0.67447  1.0000
  H   H2141     1.0  0.88325  0.39224  0.59591  1.0000
  S   S363      1.0  0.91085  0.43249  0.56689  1.0000
  H   H2142     1.0  0.85314  0.37712  0.61145  1.0000
  H   H2143     1.0  0.86786  0.47776  0.67478  1.0000
  H   H2144     1.0  0.92531  0.48958  0.66784  1.0000
  H   H2145     1.0  0.96028  0.45673  0.56853  1.0000
  H   H2146     1.0  0.84016  0.39705  0.61890  1.0000
  H   H2147     1.0  0.87408  0.39368  0.82302  1.0000
  H   H2148     1.0  0.81479  0.35749  0.66090  1.0000
  C   C1249     1.0  0.88908  0.46907  0.66886  1.0000
  H   H2149     1.0  0.82430  0.39606  0.66502  1.0000
  C   C1250     1.0  0.84795  0.40308  0.63930  1.0000
  H   H2150     1.0  0.91757  0.44590  0.63311  1.0000
  H   H2151     1.0  0.88971  0.49573  0.67680  1.0000
  C   C1251     1.0  0.87635  0.46828  0.62065  1.0000
  H   H2152     1.0  0.84740  0.29796  0.51920  1.0000
  H   H2153     1.0  0.75085  0.18810  0.82538  1.0000
  C   C1252     1.0  0.87718  0.46874  0.58740  1.0000
  H   H2154     1.0  0.88818  0.48082  0.58008  1.0000
  H   H2155     1.0  0.83289  0.43751  0.81375  1.0000
  H   H2156     1.0  0.84262  0.40820  0.87016  1.0000
  Fe  Fe178     1.0  0.82155  0.48782  0.75170  1.0000
  H   H2157     1.0  0.86486  0.46888  0.57803  1.0000
  H   H2158     1.0  0.83780  0.37975  0.68630  1.0000
  H   H2159     1.0  0.87802  0.45677  0.57807  1.0000
  H   H2160     1.0  0.88207  0.48092  0.70581  1.0000
  C   C1253     1.0  0.88138  0.39365  0.68780  1.0000
  N   N90       1.0  0.90534  0.47613  0.93988  1.0000
  C   C1254     1.0  0.92313  0.47938  0.95350  1.0000
  C   C1255     1.0  0.89398  0.45646  0.94049  1.0000
  C   C1256     1.0  0.92239  0.49867  0.65383  1.0000
  C   C1257     1.0  0.90812  0.48292  0.90966  1.0000
  C   C1258     1.0  0.89760  0.48612  0.95793  1.0000
  C   C1259     1.0  0.90077  0.44447  0.92418  1.0000
  C   C1260     1.0  0.75489  0.27367  0.75685  1.0000
  C   C1261     1.0  0.89161  0.47915  0.89004  1.0000
  H   H2161     1.0  0.92159  0.47242  0.97421  1.0000
  H   H2162     1.0  0.93024  0.47383  0.93955  1.0000
  H   H2163     1.0  0.88039  0.45286  0.93185  1.0000
  H   H2164     1.0  0.89232  0.45215  0.96324  1.0000
  C   C1262     1.0  0.87744  0.47968  0.95593  1.0000
  N   N91       1.0  0.97622  0.46374  0.51188  1.0000
  H   H2165     1.0  0.75535  0.19674  0.86104  1.0000
  H   H2166     1.0  0.91682  0.47830  0.89784  1.0000
  Fe  Fe179     1.0  0.90341  0.37989  0.97144  1.0000
  H   H2167     1.0  0.90055  0.49906  0.62941  1.0000
  Fe  Fe180     1.0  0.93050  0.39162  0.51211  1.0000
  H   H2168     1.0  0.84345  0.41524  0.67915  1.0000
  S   S364      1.0  0.91725  0.40964  0.97526  1.0000
  H   H2169     1.0  0.81941  0.39900  0.86412  1.0000
  H   H2170     1.0  0.90089  0.48557  0.98123  1.0000
  H   H2171     1.0  0.87201  0.47863  0.93359  1.0000
  H   H2172     1.0  0.88681  0.48957  0.89324  1.0000
  H   H2173     1.0  0.78889  0.46931  0.84440  1.0000
  H   H2174     1.0  0.89504  0.47914  0.86711  1.0000
  N   N92       1.0  0.83336  0.39622  0.82742  1.0000
  C   C1263     1.0  0.82788  0.40964  0.81389  1.0000
  C   C1264     1.0  0.82194  0.37843  0.81305  1.0000
  C   C1265     1.0  0.85232  0.40129  0.82069  1.0000
  C   C1266     1.0  0.83127  0.39674  0.85961  1.0000
  C   C1267     1.0  0.83961  0.42933  0.82180  1.0000
  C   C1268     1.0  0.80193  0.37229  0.81515  1.0000
  C   C1269     1.0  0.86051  0.38880  0.83078  1.0000
  C   C1270     1.0  0.82908  0.37999  0.87617  1.0000
  H   H2175     1.0  0.82726  0.40823  0.78999  1.0000
  H   H2176     1.0  0.81433  0.40727  0.81969  1.0000
  H   H2177     1.0  0.85392  0.40256  0.79698  1.0000
  H   H2178     1.0  0.86106  0.41446  0.83071  1.0000
  H   H2179     1.0  0.97325  0.44412  0.56441  1.0000
  C   C1271     1.0  0.75914  0.47652  0.76352  1.0000
  H   H2180     1.0  0.78279  0.48046  0.81714  1.0000
  H   H2181     1.0  0.90624  0.43486  0.50573  1.0000
  H   H2182     1.0  0.90063  0.47061  0.68282  1.0000
  C   C1272     1.0  0.91445  0.44793  0.51473  1.0000
  C   C1273     1.0  0.88182  0.48170  0.68189  1.0000
  H   H2183     1.0  0.98638  0.48137  0.54974  1.0000
  H   H2184     1.0  0.91560  0.49761  0.91036  1.0000
  H   H2185     1.0  0.96542  0.47897  0.53618  1.0000
  C   C1274     1.0  0.96107  0.44796  0.52337  1.0000
  C   C1275     1.0  0.97898  0.41073  0.50815  1.0000
  H   H2186     1.0  0.94832  0.44847  0.51740  1.0000
  H   H2187     1.0  0.96022  0.43530  0.51355  1.0000
  C   C1276     1.0  0.97843  0.48010  0.52936  1.0000
  H   H2188     1.0  0.79682  0.49528  0.87198  1.0000
  H   H2189     1.0  0.76762  0.48938  0.85599  1.0000
  H   H2190     1.0  0.87405  0.48941  0.96787  1.0000
  C   C1277     1.0  0.80263  0.49810  0.85040  1.0000
  H   H2191     1.0  0.81644  0.49996  0.85480  1.0000
  H   H2192     1.0  0.86335  0.50110  0.60192  1.0000
  C   C1278     1.0  0.99245  0.46030  0.51500  1.0000
  C   C1279     1.0  0.93211  0.47912  0.50788  1.0000
  H   H2193     1.0  0.94857  0.49946  0.96940  1.0000
  C   C1280     1.0  0.93594  0.49894  0.96016  1.0000
  C   C1281     1.0  0.75057  0.19883  0.83939  1.0000
  C   C1282     1.0  0.75066  0.50095  0.75709  1.0000
  C   C1283     1.0  0.98643  0.49810  0.51442  1.0000
  H   H2194     1.0  0.90350  0.50045  0.95293  1.0000
  H   H2195     1.0  0.84041  0.32638  0.53015  1.0000
  H   H2196     1.0  0.84347  0.34890  0.53102  1.0000
  C   C1284     1.0  0.84058  0.33721  0.51634  1.0000
  H   H2197     1.0  0.75179  0.20447  0.78337  1.0000
  H   H2198     1.0  0.82735  0.33339  0.50588  1.0000
  H   H2199     1.0  0.86759  0.34449  0.50686  1.0000
  H   H2200     1.0  0.99892  0.50080  0.50418  1.0000
  H   H2201     1.0  0.99002  0.44751  0.50407  1.0000
  S   S365      1.0  0.79948  0.51464  0.25792  1.0000
  H   H2202     1.0  0.88727  0.53625  0.31035  1.0000
  S   S366      1.0  0.97875  0.58844  0.04199  1.0000
  H   H2203     1.0  0.92657  0.52992  0.32343  1.0000
  H   H2204     1.0  0.89363  0.58321  0.49061  1.0000
  Fe  Fe181     1.0  0.92354  0.54491  0.47706  1.0000
  S   S367      1.0  0.91017  0.55178  0.43810  1.0000
  Fe  Fe182     1.0  0.91533  0.54139  0.04832  1.0000
  S   S368      1.0  0.89101  0.53618  0.07417  1.0000
  S   S369      1.0  0.95083  0.54583  0.47751  1.0000
  S   S370      1.0  0.94132  0.54378  0.06701  1.0000
  H   H2205     1.0  0.92719  0.57746  0.34837  1.0000
  C   C1285     1.0  0.92161  0.54032  0.26901  1.0000
  H   H2206     1.0  0.90510  0.56188  0.33924  1.0000
  S   S371      1.0  0.92767  0.56267  0.01561  1.0000
  H   H2207     1.0  0.88723  0.53536  0.48240  1.0000
  S   S372      1.0  0.84868  0.52189  0.27383  1.0000
  C   C1286     1.0  0.88420  0.52900  0.17233  1.0000
  H   H2208     1.0  0.93537  0.56811  0.25533  1.0000
  H   H2209     1.0  0.90188  0.51434  0.42588  1.0000
  C   C1287     1.0  0.88407  0.50651  0.38802  1.0000
  H   H2210     1.0  0.87101  0.53289  0.45526  1.0000
  C   C1288     1.0  0.89481  0.51855  0.40998  1.0000
  C   C1289     1.0  0.89651  0.53601  0.41113  1.0000
  C   C1290     1.0  0.88714  0.54116  0.39023  1.0000
  C   C1291     1.0  0.87640  0.52911  0.36823  1.0000
  Fe  Fe183     1.0  0.82058  0.50384  0.25861  1.0000
  H   H2211     1.0  0.88823  0.55459  0.39105  1.0000
  H   H2212     1.0  0.86920  0.53325  0.35247  1.0000
  C   C1292     1.0  0.88889  0.53354  0.11209  1.0000
  C   C1293     1.0  0.90347  0.50878  0.30381  1.0000
  H   H2213     1.0  0.91276  0.52783  0.25699  1.0000
  H   H2214     1.0  0.92038  0.55503  0.35811  1.0000
  H   H2215     1.0  0.77412  0.52773  0.16131  1.0000
  C   C1294     1.0  0.90347  0.53799  0.13133  1.0000
  H   H2216     1.0  0.77621  0.52827  0.19951  1.0000
  H   H2217     1.0  0.92606  0.50566  0.09815  1.0000
  H   H2218     1.0  0.87286  0.50500  0.46332  1.0000
  C   C1295     1.0  0.86961  0.52432  0.15305  1.0000
  H   H2219     1.0  0.90631  0.52825  0.33642  1.0000
  H   H2220     1.0  0.91349  0.55576  0.23826  1.0000
  S   S373      1.0  0.88205  0.52688  0.21031  1.0000
  Fe  Fe184     1.0  0.93844  0.52332  0.03292  1.0000
  C   C1296     1.0  0.91892  0.56353  0.34097  1.0000
  H   H2221     1.0  0.93876  0.56054  0.31601  1.0000
  H   H2222     1.0  0.75076  0.50404  0.20358  1.0000
  C   C1297     1.0  0.76697  0.52747  0.18113  1.0000
  H   H2223     1.0  0.93418  0.53917  0.27399  1.0000
  C   C1298     1.0  0.87197  0.52671  0.12317  1.0000
  H   H2224     1.0  0.90455  0.56829  0.27439  1.0000
  C   C1299     1.0  0.92530  0.55983  0.31185  1.0000
  N   N93       1.0  0.91356  0.54246  0.29658  1.0000
  H   H2225     1.0  0.88393  0.55288  0.25949  1.0000
  C   C1300     1.0  0.91301  0.52794  0.31629  1.0000
  C   C1301     1.0  0.89249  0.55672  0.27961  1.0000
  H   H2226     1.0  0.99250  0.56693  0.00949  1.0000
  S   S374      1.0  0.91108  0.51808  0.49577  1.0000
  H   H2227     1.0  0.86275  0.56368  0.50032  1.0000
  H   H2228     1.0  0.91656  0.54337  0.12320  1.0000
  H   H2229     1.0  0.89945  0.56497  0.48931  1.0000
  H   H2230     1.0  0.76484  0.53965  0.18268  1.0000
  C   C1302     1.0  0.92561  0.55498  0.24689  1.0000
  H   H2231     1.0  0.92748  0.57139  0.29851  1.0000
  C   C1303     1.0  0.89496  0.54039  0.29061  1.0000
  H   H2232     1.0  0.91252  0.53958  0.17593  1.0000
  H   H2233     1.0  0.88544  0.56109  0.29559  1.0000
  C   C1304     1.0  0.87490  0.51171  0.36686  1.0000
  H   H2234     1.0  0.93148  0.55153  0.22798  1.0000
  Fe  Fe185     1.0  0.95365  0.56318  0.03220  1.0000
  H   H2235     1.0  0.84089  0.52127  0.44951  1.0000
  C   C1305     1.0  0.90112  0.53583  0.16126  1.0000
  C   C1306     1.0  0.76660  0.51410  0.26359  1.0000
  H   H2236     1.0  0.91101  0.50595  0.28686  1.0000
  H   H2237     1.0  0.86936  0.55874  0.46696  1.0000
  C   C1307     1.0  0.83679  0.52879  0.46529  1.0000
  H   H2238     1.0  0.83992  0.54222  0.45729  1.0000
  H   H2239     1.0  0.86059  0.52328  0.10853  1.0000
  H   H2240     1.0  0.91534  0.50950  0.12822  1.0000
  Fe  Fe186     1.0  0.85691  0.51157  0.23422  1.0000
  C   C1308     1.0  0.86602  0.50949  0.47951  1.0000
  C   C1309     1.0  0.87098  0.55762  0.49070  1.0000
  H   H2241     1.0  0.77347  0.52840  0.26327  1.0000
  H   H2242     1.0  0.88791  0.52928  0.27462  1.0000
  H   H2243     1.0  0.85651  0.51916  0.16119  1.0000
  C   C1310     1.0  0.87276  0.52981  0.47812  1.0000
  N   N94       1.0  0.86482  0.53844  0.49843  1.0000
  H   H2244     1.0  0.99395  0.57935  0.48599  1.0000
  H   H2245     1.0  0.90535  0.50641  0.09216  1.0000
  H   H2246     1.0  0.75116  0.53531  0.22546  1.0000
  H   H2247     1.0  0.82223  0.52183  0.46600  1.0000
  C   C1311     1.0  0.84502  0.52957  0.49589  1.0000
  C   C1312     1.0  0.89037  0.56982  0.49903  1.0000
  C   C1313     1.0  0.77627  0.50383  0.26183  1.0000
  S   S375      1.0  0.91166  0.51941  0.01608  1.0000
  Fe  Fe187     1.0  0.93837  0.51989  0.49927  1.0000
  H   H2248     1.0  0.86916  0.50539  0.50081  1.0000
  H   H2249     1.0  0.89000  0.50581  0.29532  1.0000
  C   C1314     1.0  0.75026  0.50978  0.18220  1.0000
  H   H2250     1.0  0.99975  0.53017  0.06811  1.0000
  H   H2251     1.0  0.78344  0.52517  0.82596  1.0000
  C   C1315     1.0  0.87428  0.51788  0.86921  1.0000
  S   S376      1.0  0.98035  0.57816  0.54390  1.0000
  C   C1316     1.0  0.86949  0.51297  0.64499  1.0000
  C   C1317     1.0  0.98453  0.60955  0.90082  1.0000
  Fe  Fe188     1.0  0.92576  0.54046  0.98489  1.0000
  S   S377      1.0  0.92177  0.53734  0.93545  1.0000
  Fe  Fe189     1.0  0.91708  0.53177  0.53979  1.0000
  S   S378      1.0  0.89363  0.51849  0.56868  1.0000
  C   C1318     1.0  0.98715  0.59769  0.96259  1.0000
  S   S379      1.0  0.94359  0.53115  0.54454  1.0000
  C   C1319     1.0  0.97303  0.60995  0.92577  1.0000
  S   S380      1.0  0.87765  0.52956  0.69975  1.0000
  Fe  Fe190     1.0  0.85325  0.50337  0.79577  1.0000
  H   H2252     1.0  0.99467  0.61923  0.99588  1.0000
  H   H2253     1.0  0.80836  0.54140  0.85403  1.0000
  S   S381      1.0  0.84186  0.51562  0.76236  1.0000
  C   C1320     1.0  0.78053  0.50438  0.74707  1.0000
  S   S382      1.0  0.85588  0.51145  0.84402  1.0000
  C   C1321     1.0  0.81014  0.52947  0.86082  1.0000
  H   H2254     1.0  0.98890  0.50894  0.53066  1.0000
  H   H2255     1.0  0.96757  0.61483  0.98090  1.0000
  H   H2256     1.0  0.85161  0.53585  0.56089  1.0000
  C   C1322     1.0  0.90307  0.52945  0.91074  1.0000
  C   C1323     1.0  0.90562  0.52786  0.88115  1.0000
  C   C1324     1.0  0.89134  0.52204  0.86053  1.0000
  H   H2257     1.0  0.85692  0.50431  0.65312  1.0000
  H   H2258     1.0  0.91876  0.53131  0.87403  1.0000
  H   H2259     1.0  0.89359  0.52110  0.83785  1.0000
  C   C1325     1.0  0.88945  0.52238  0.60491  1.0000
  H   H2260     1.0  0.83938  0.53654  0.51018  1.0000
  C   C1326     1.0  0.76785  0.51137  0.74850  1.0000
  C   C1327     1.0  0.88192  0.52621  0.66329  1.0000
  C   C1328     1.0  0.89808  0.53756  0.65210  1.0000
  C   C1329     1.0  0.90192  0.53556  0.62319  1.0000
  C   C1330     1.0  0.96831  0.56791  0.92278  1.0000
  H   H2261     1.0  0.95948  0.59253  0.99158  1.0000
  H   H2262     1.0  0.90775  0.54794  0.66597  1.0000
  H   H2263     1.0  0.91450  0.54425  0.61511  1.0000
  H   H2264     1.0  0.88374  0.52605  0.94216  1.0000
  C   C1331     1.0  0.78377  0.51219  0.83033  1.0000
  C   C1332     1.0  0.94145  0.59841  0.96436  1.0000
  H   H2265     1.0  0.80652  0.50811  0.79471  1.0000
  H   H2266     1.0  0.92029  0.50868  0.66742  1.0000
  H   H2267     1.0  0.77131  0.52491  0.74253  1.0000
  Fe  Fe191     1.0  0.95452  0.55746  0.52273  1.0000
  H   H2268     1.0  0.80309  0.52561  0.88122  1.0000
  H   H2269     1.0  0.82606  0.51939  0.81595  1.0000
  H   H2270     1.0  0.97649  0.59986  0.88346  1.0000
  C   C1333     1.0  0.87064  0.53672  0.52887  1.0000
  H   H2271     1.0  0.93270  0.58458  0.95723  1.0000
  C   C1334     1.0  0.87316  0.51125  0.61592  1.0000
  H   H2272     1.0  0.88521  0.54158  0.53138  1.0000
  S   S383      1.0  0.95258  0.54269  0.99958  1.0000
  Fe  Fe192     1.0  0.85865  0.50976  0.73010  1.0000
  C   C1335     1.0  0.86439  0.54541  0.55300  1.0000
  H   H2273     1.0  0.94837  0.57781  0.92184  1.0000
  H   H2274     1.0  0.86306  0.55749  0.54638  1.0000
  H   H2275     1.0  0.85859  0.51613  0.90589  1.0000
  H   H2276     1.0  0.83402  0.54659  0.88556  1.0000
  H   H2277     1.0  0.79354  0.51249  0.73989  1.0000
  S   S384      1.0  0.92806  0.55897  0.52097  1.0000
  H   H2278     1.0  0.99484  0.59385  0.94723  1.0000
  H   H2279     1.0  0.93457  0.50633  0.64231  1.0000
  H   H2280     1.0  0.95181  0.56947  0.95533  1.0000
  H   H2281     1.0  0.82263  0.53787  0.77752  1.0000
  H   H2282     1.0  0.97835  0.62377  0.93498  1.0000
  C   C1336     1.0  0.88596  0.52490  0.91953  1.0000
  C   C1337     1.0  0.81274  0.51891  0.81149  1.0000
  C   C1338     1.0  0.81495  0.53628  0.79713  1.0000
  H   H2283     1.0  0.99586  0.60680  0.90758  1.0000
  N   N95       1.0  0.97014  0.59668  0.94900  1.0000
  H   H2284     1.0  0.82236  0.54811  0.81142  1.0000
  H   H2285     1.0  0.89295  0.57148  0.52278  1.0000
  H   H2286     1.0  0.86569  0.52252  0.53431  1.0000
  N   N96       1.0  0.80229  0.51464  0.83824  1.0000
  H   H2287     1.0  0.98418  0.58778  0.97970  1.0000
  H   H2288     1.0  0.99055  0.62293  0.89157  1.0000
  H   H2289     1.0  0.93898  0.50700  0.94063  1.0000
  H   H2290     1.0  0.97597  0.56397  0.93896  1.0000
  C   C1339     1.0  0.99987  0.61585  0.97613  1.0000
  H   H2291     1.0  0.95825  0.55543  0.91249  1.0000
  H   H2292     1.0  0.83838  0.54070  0.85063  1.0000
  H   H2293     1.0  0.93095  0.50515  0.97674  1.0000
  H   H2294     1.0  0.77381  0.51080  0.87415  1.0000
  H   H2295     1.0  0.97695  0.57541  0.90570  1.0000
  C   C1340     1.0  0.82987  0.53554  0.86915  1.0000
  H   H2296     1.0  0.80212  0.53604  0.78984  1.0000
  H   H2297     1.0  0.87435  0.54968  0.57136  1.0000
  H   H2298     1.0  0.96022  0.60807  0.91521  1.0000
  C   C1341     1.0  0.87170  0.51928  0.89886  1.0000
  C   C1342     1.0  0.95888  0.57803  0.93747  1.0000
  H   H2299     1.0  0.83259  0.52488  0.87912  1.0000
  C   C1343     1.0  0.96038  0.60088  0.97263  1.0000
  H   H2300     1.0  0.94119  0.60769  0.94767  1.0000
  H   H2301     1.0  0.77870  0.50440  0.80970  1.0000
  H   H2302     1.0  0.93566  0.60139  0.98379  1.0000
  H   H2303     1.0  0.83991  0.51583  0.50385  1.0000
  H   H2304     1.0  0.75729  0.50333  0.84539  1.0000
  C   C1344     1.0  0.77004  0.50341  0.85308  1.0000
