data_image0
_chemical_formula_structural       HSHFe2SFeSH3SFeS2FeS2FeSFeS3C5H2CHCH2C6H4C6H4NH5CHCH7CH3C2HC3H2C3HSH2C2NH3CH3CH5C2HCH4CSH2CH5CNC8H22CH5C4H3CH2CH2N2C8H11FeCH9CH2CH3CH4CH5NCH2NH3CH2CSHCHCHSCFeHSFeSHCHSFeS2FeS2FeSFeS3C2HCHC4H3C6H4C6H4CH3CHCH2NC2NC8H20C3H4NCH8CHSCHC3H5CH6CHCHC2HCH7CH3S2CH2NCH4FeH4CNHCHCHCHC3HSCH2CH3FeCH3CH2SFeS2H5FeS2H2SHFeS2HSHS2CFeS2FeSHFeSFeS3FeS2FeS2FeSFeSC6H4CH2C6H2C5H2C6H4C8H3CHSH2CH5S2H3NSCH6CH2C6H4CH6S2FeHCH3C2H3NCH6CHNC8H16C2FeH2NC8H17NCHCHCH4SHC2H2CH2SCHCHCH2CHCHFeSH2FeCH2CHCH6CH2CH4C2HNFeC5H7C3H3SCH3C2HSC2HCH3C2H3CH2FeHSHSCHCFeS2H2SCFeHSCH2S2HFeS2FeSCFeSFeS3FeS2FeS2FeSFeSC6H4CH2C6H2C5H2C6H4CH2C3NH6CH5CH2CH3CHSCNC7H4CSH12NH2CHFeH4S2H6SHC2H3CHFeH3SCHNC8H21CH3C2H7CH4FeC2NC8H9CHCHCH2CHCH2SCH2CH3CSFeH2CH2NFeCHCHC2H2CSH3CH2CHCH3SCFeHSFeSCH2SFeS2FeS2FeSFeS3C5H2CHC2HC4H2NH5C6H4C6H4C2H5NC8H20CH4CH3CH4C2HC2HCHCHSH3NHCHCH6CHC4H10FeH2CH2FeCHC2H3CHC2HCSH6SH3CH3CH2CSHFeCSFeSHNHSFeS2FeS2FeSFeS3HC5H4CH2C2HCHC3HSC7H4C6H4CH3CHCH10C2H2NH2CSH4C3HCSCHCHCH7CH5CH5CH3NC8H15CH4NCH3C2H4NCHC2H3CH3CH2SFeCHCH3SHCHCHCH3FeNFeHSHSHFeSNC2SFeS2FeS2FeSFeS3H3CHC2HC2HCH2C6H4C6H4C4H4CH7CHCH3FeHCH3CH2CH6CH2NCHCHCSC2HCH2CH7CH3SC2H5CH3CH12CH8C2NC8H2C2H3C2HFeCSHSHFeSH3SFeS2FeS2FeSFeS3C3H3C5H2SC6H4C6H4CHC2H2NH3NHC3H4CH5CHCHCH3CH2CH3C3HCHCHCHCH2CH3SH3NFeHCHNCHCHFeCH2SHCH4CH4C2H2C2H5CHC2HCH2CH2C2H2CHCH4CH3NHC3H3CH2FeHSCH6CH2CHSH2SH4CH5SHSCFeSHCHSFeSCFeHSFeSFeSCHFeS2FeS2FeSFeHS2FeS2FeS2FeCFeS3HC6H5CHC4HSH2C6H6SHC7H3C6H4CH4SH4CH9CHCHC2H4C3HCHC2HSC3H2SH3SCH2CHSH2NH5Fe2CHNH4NC8H21CHS2C2H2FeHSH11CHC2NC8H17CH3N2C3HC2HCH6NCH2C2H3CH3C4HC3H2C2H8CH3CHCHC2H2NHSH2SHSHFeSH3SHSCFeCSFeSFeSC2FeS2FeS2FeSFeHS2FeS2FeS2FeHFeS3HC6H5C6H4C6H4CH2C8H3C6H2C2HFeH4C2H14CHCH2CHNH2FeHCSHSNC5H13NC8H21C4H3CH3CSH5CHCH4CHFeC2HSHFeHCHCHSH4SH8CNC8H16SHC4SH2CH2CHCHCHNCH4NCNH2FeHSHSHFeSNH2SFeS2FeS2FeSFeS3C6H5CH3C6H4C6H8CHCH2C2HCH4CH2CH2CNCH4Fe2H4CS2HC2HNC8H7NH2CH3FeCHCH3CHCH2SH2CH4C2H6CHC2H7CNCFeH4CSH2CH2CHCH3SH3C3H4C2HFeHSCSCFeSH2CSFeS2FeS2FeSFeS3C2H3C3HCNH4C6H4C6H10CSH2C2H5CHCH3CHCH3NC3HSHC2HNC8H23CHC2H3C2H2CSCH4CH2CH4CH5CH2CH2SCHCH2CH3C2H2CH2C2H2C2H3
_chemical_formula_sum              "H1536 S256 Fe128 C896 N64"
_cell_length_a       60.2369
_cell_length_b       60.2063
_cell_length_c       45.6686
_cell_angle_alpha    90.2523
_cell_angle_beta     91.0091
_cell_angle_gamma    88.0642

_space_group_name_H-M_alt    "P 1"
_space_group_IT_number       1

loop_
  _space_group_symop_operation_xyz
  'x, y, z'

loop_
  _atom_site_type_symbol
  _atom_site_label
  _atom_site_symmetry_multiplicity
  _atom_site_fract_x
  _atom_site_fract_y
  _atom_site_fract_z
  _atom_site_occupancy
  H   H1        1.0  0.48558  0.11827  0.46722  1.0000
  S   S1        1.0  0.39488  0.06962  0.05241  1.0000
  H   H2        1.0  0.06308  0.28601  0.05972  1.0000
  Fe  Fe1       1.0  0.38655  0.11127  0.48920  1.0000
  Fe  Fe2       1.0  0.42248  0.08833  0.03328  1.0000
  S   S2        1.0  0.37889  0.14166  0.46052  1.0000
  Fe  Fe3       1.0  0.37590  0.10261  0.05009  1.0000
  S   S3        1.0  0.35717  0.11538  0.09058  1.0000
  H   H3        1.0  0.48967  0.22476  0.31114  1.0000
  H   H4        1.0  0.05783  0.32503  0.05156  1.0000
  H   H5        1.0  0.46837  0.00369  0.03718  1.0000
  S   S4        1.0  0.40236  0.07829  0.47733  1.0000
  Fe  Fe4       1.0  0.41125  0.22274  0.27703  1.0000
  S   S5        1.0  0.41134  0.18695  0.26348  1.0000
  S   S6        1.0  0.44432  0.23531  0.29463  1.0000
  Fe  Fe5       1.0  0.35999  0.22808  0.27060  1.0000
  S   S7        1.0  0.35731  0.19186  0.25701  1.0000
  S   S8        1.0  0.32641  0.24797  0.27504  1.0000
  Fe  Fe6       1.0  0.38229  0.18396  0.29346  1.0000
  S   S9        1.0  0.38328  0.15223  0.32138  1.0000
  Fe  Fe7       1.0  0.38662  0.19758  0.22847  1.0000
  S   S10       1.0  0.39356  0.18805  0.18073  1.0000
  S   S11       1.0  0.38317  0.21940  0.30889  1.0000
  S   S12       1.0  0.38830  0.23412  0.24003  1.0000
  C   C1        1.0  0.31234  0.27408  0.26654  1.0000
  C   C2        1.0  0.28942  0.27672  0.27209  1.0000
  C   C3        1.0  0.31124  0.31240  0.24874  1.0000
  C   C4        1.0  0.32312  0.29211  0.25459  1.0000
  C   C5        1.0  0.48984  0.23279  0.29000  1.0000
  H   H6        1.0  0.48177  0.17854  0.27908  1.0000
  H   H7        1.0  0.34070  0.29060  0.25029  1.0000
  C   C6        1.0  0.46961  0.23939  0.27624  1.0000
  H   H8        1.0  0.45651  0.08745  0.45190  1.0000
  C   C7        1.0  0.47012  0.25017  0.24917  1.0000
  H   H9        1.0  0.05899  0.27347  0.09441  1.0000
  H   H10       1.0  0.45474  0.25591  0.23874  1.0000
  C   C8        1.0  0.38132  0.14439  0.42191  1.0000
  C   C9        1.0  0.37565  0.16498  0.40886  1.0000
  C   C10       1.0  0.37677  0.16786  0.37827  1.0000
  C   C11       1.0  0.38331  0.15005  0.36026  1.0000
  C   C12       1.0  0.38931  0.12952  0.37338  1.0000
  C   C13       1.0  0.38856  0.12674  0.40403  1.0000
  H   H11       1.0  0.37018  0.17881  0.42243  1.0000
  H   H12       1.0  0.37211  0.18374  0.36854  1.0000
  H   H13       1.0  0.39452  0.11568  0.35965  1.0000
  H   H14       1.0  0.39339  0.11091  0.41372  1.0000
  C   C14       1.0  0.38306  0.16749  0.15649  1.0000
  C   C15       1.0  0.39209  0.16552  0.12837  1.0000
  C   C16       1.0  0.38431  0.14975  0.10805  1.0000
  C   C17       1.0  0.36714  0.13587  0.11540  1.0000
  C   C18       1.0  0.35788  0.13802  0.14344  1.0000
  C   C19       1.0  0.36593  0.15357  0.16401  1.0000
  H   H15       1.0  0.40514  0.17637  0.12210  1.0000
  H   H16       1.0  0.39140  0.14858  0.08650  1.0000
  H   H17       1.0  0.34452  0.12743  0.14937  1.0000
  H   H18       1.0  0.35870  0.15492  0.18549  1.0000
  N   N1        1.0  0.08549  0.32405  0.08310  1.0000
  H   H19       1.0  0.45767  0.17845  0.14870  1.0000
  H   H20       1.0  0.28074  0.26293  0.28107  1.0000
  H   H21       1.0  0.25994  0.29849  0.27025  1.0000
  H   H22       1.0  0.44514  0.14303  0.00990  1.0000
  H   H23       1.0  0.45638  0.15821  0.48709  1.0000
  C   C20       1.0  0.47187  0.20875  0.18717  1.0000
  H   H24       1.0  0.47131  0.11140  0.39573  1.0000
  C   C21       1.0  0.06023  0.28967  0.08310  1.0000
  H   H25       1.0  0.11843  0.31117  0.07180  1.0000
  H   H26       1.0  0.42702  0.05206  0.13063  1.0000
  H   H27       1.0  0.31896  0.07393  0.36935  1.0000
  H   H28       1.0  0.44817  0.23619  0.17880  1.0000
  H   H29       1.0  0.45937  0.19908  0.24266  1.0000
  H   H30       1.0  0.35207  0.05257  0.37709  1.0000
  H   H31       1.0  0.48782  0.20493  0.24095  1.0000
  C   C22       1.0  0.33694  0.10424  0.37320  1.0000
  H   H32       1.0  0.48433  0.08725  0.43752  1.0000
  H   H33       1.0  0.32591  0.11295  0.35687  1.0000
  H   H34       1.0  0.46822  0.15963  0.25529  1.0000
  C   C23       1.0  0.44185  0.15535  0.47252  1.0000
  C   C24       1.0  0.32622  0.10251  0.44997  1.0000
  H   H35       1.0  0.22797  0.29300  0.31572  1.0000
  C   C25       1.0  0.38205  0.99861  0.02839  1.0000
  C   C26       1.0  0.09792  0.30525  0.03446  1.0000
  C   C27       1.0  0.28420  0.31949  0.37532  1.0000
  H   H36       1.0  0.43646  0.20956  0.17412  1.0000
  H   H37       1.0  0.34193  0.11696  0.38943  1.0000
  C   C28       1.0  0.46638  0.08915  0.43182  1.0000
  C   C29       1.0  0.32201  0.05428  0.42273  1.0000
  C   C30       1.0  0.36985  0.04448  0.41710  1.0000
  H   H38       1.0  0.46608  0.05592  0.11927  1.0000
  S   S13       1.0  0.40446  0.12133  0.03362  1.0000
  H   H39       1.0  0.44623  0.11996  0.47146  1.0000
  H   H40       1.0  0.28889  0.04569  0.43610  1.0000
  C   C31       1.0  0.47708  0.08473  0.02986  1.0000
  C   C32       1.0  0.23345  0.30907  0.32488  1.0000
  N   N2        1.0  0.46331  0.13209  0.43361  1.0000
  H   H41       1.0  0.46605  0.08401  0.13122  1.0000
  H   H42       1.0  0.30841  0.09325  0.39523  1.0000
  H   H43       1.0  0.29777  0.28844  0.35528  1.0000
  C   C33       1.0  0.07902  0.30283  0.09781  1.0000
  H   H44       1.0  0.44360  0.11002  0.40693  1.0000
  H   H45       1.0  0.42665  0.15947  0.41027  1.0000
  H   H46       1.0  0.32377  0.03895  0.40905  1.0000
  C   C34       1.0  0.47572  0.19197  0.23564  1.0000
  H   H47       1.0  0.25195  0.29410  0.36092  1.0000
  H   H48       1.0  0.43621  0.16131  0.15973  1.0000
  H   H49       1.0  0.28922  0.05890  0.40119  1.0000
  H   H50       1.0  0.47660  0.20721  0.16378  1.0000
  H   H51       1.0  0.44161  0.22055  0.21043  1.0000
  C   C35       1.0  0.25545  0.30516  0.34223  1.0000
  C   C36       1.0  0.34404  0.08727  0.43578  1.0000
  H   H52       1.0  0.31994  0.32624  0.23989  1.0000
  C   C37       1.0  0.46092  0.11119  0.41562  1.0000
  H   H53       1.0  0.46446  0.15006  0.15830  1.0000
  H   H54       1.0  0.43856  0.16997  0.45825  1.0000
  H   H55       1.0  0.38241  0.01232  0.04374  1.0000
  H   H56       1.0  0.31448  0.09283  0.46275  1.0000
  C   C38       1.0  0.10368  0.31963  0.06130  1.0000
  S   S14       1.0  0.45588  0.08510  0.05538  1.0000
  H   H57       1.0  0.27644  0.31070  0.39374  1.0000
  H   H58       1.0  0.35184  0.07726  0.45386  1.0000
  C   C39       1.0  0.45715  0.17130  0.19654  1.0000
  H   H59       1.0  0.47137  0.02323  0.00923  1.0000
  H   H60       1.0  0.37646  0.05219  0.43729  1.0000
  H   H61       1.0  0.35164  0.09793  0.36105  1.0000
  H   H62       1.0  0.46232  0.07501  0.41720  1.0000
  H   H63       1.0  0.31458  0.29980  0.38386  1.0000
  C   C40       1.0  0.45395  0.16492  0.16396  1.0000
  N   N3        1.0  0.33044  0.23251  0.17095  1.0000
  C   C41       1.0  0.33219  0.20866  0.16047  1.0000
  C   C42       1.0  0.32331  0.23210  0.20242  1.0000
  C   C43       1.0  0.35335  0.24179  0.16942  1.0000
  C   C44       1.0  0.31413  0.24530  0.15133  1.0000
  C   C45       1.0  0.34153  0.20491  0.12950  1.0000
  C   C46       1.0  0.30140  0.22043  0.20813  1.0000
  C   C47       1.0  0.35632  0.26536  0.18179  1.0000
  C   C48       1.0  0.30286  0.26661  0.16428  1.0000
  H   H64       1.0  0.34276  0.19838  0.17590  1.0000
  H   H65       1.0  0.31563  0.20099  0.16009  1.0000
  H   H66       1.0  0.32137  0.24896  0.21187  1.0000
  H   H67       1.0  0.33646  0.22382  0.21634  1.0000
  H   H68       1.0  0.36565  0.23059  0.18107  1.0000
  H   H69       1.0  0.35895  0.24251  0.14639  1.0000
  H   H70       1.0  0.32220  0.25002  0.13060  1.0000
  H   H71       1.0  0.30025  0.23446  0.14471  1.0000
  H   H72       1.0  0.35964  0.20772  0.12900  1.0000
  H   H73       1.0  0.33947  0.18725  0.12308  1.0000
  H   H74       1.0  0.33267  0.21529  0.11276  1.0000
  H   H75       1.0  0.29581  0.22465  0.23062  1.0000
  H   H76       1.0  0.28792  0.22576  0.19266  1.0000
  H   H77       1.0  0.30385  0.20208  0.20731  1.0000
  H   H78       1.0  0.34741  0.27807  0.16811  1.0000
  H   H79       1.0  0.37421  0.26920  0.18104  1.0000
  H   H80       1.0  0.35160  0.26699  0.20505  1.0000
  H   H81       1.0  0.30002  0.27895  0.14646  1.0000
  H   H82       1.0  0.31234  0.27511  0.18168  1.0000
  H   H83       1.0  0.28606  0.26309  0.17238  1.0000
  H   H84       1.0  0.36881  0.07405  0.39135  1.0000
  H   H85       1.0  0.42962  0.13535  0.11202  1.0000
  C   C49       1.0  0.29668  0.05909  0.42361  1.0000
  H   H86       1.0  0.35722  0.09820  0.42812  1.0000
  H   H87       1.0  0.42703  0.01340  0.03937  1.0000
  H   H88       1.0  0.46167  0.06189  0.15710  1.0000
  H   H89       1.0  0.32762  0.04915  0.44518  1.0000
  H   H90       1.0  0.42358  0.10955  0.09518  1.0000
  C   C50       1.0  0.45804  0.06798  0.13461  1.0000
  C   C51       1.0  0.30361  0.30423  0.36481  1.0000
  C   C52       1.0  0.32410  0.08538  0.38731  1.0000
  C   C53       1.0  0.28838  0.31514  0.25463  1.0000
  H   H91       1.0  0.09373  0.29121  0.10026  1.0000
  H   H92       1.0  0.29204  0.07500  0.43436  1.0000
  H   H93       1.0  0.48310  0.22150  0.19613  1.0000
  C   C54       1.0  0.44097  0.15599  0.39588  1.0000
  H   H94       1.0  0.28823  0.32353  0.31451  1.0000
  H   H95       1.0  0.31718  0.11336  0.43395  1.0000
  C   C55       1.0  0.27753  0.29696  0.26607  1.0000
  H   H96       1.0  0.38440  0.03782  0.40483  1.0000
  H   H97       1.0  0.45134  0.11535  0.10836  1.0000
  N   N4        1.0  0.33632  0.07241  0.41120  1.0000
  N   N5        1.0  0.41930  0.08561  0.14557  1.0000
  C   C56       1.0  0.41996  0.07813  0.17705  1.0000
  C   C57       1.0  0.43287  0.06921  0.12766  1.0000
  C   C58       1.0  0.39583  0.08650  0.13362  1.0000
  C   C59       1.0  0.42833  0.10866  0.14407  1.0000
  C   C60       1.0  0.40439  0.09125  0.19794  1.0000
  C   C61       1.0  0.35667  0.06146  0.39768  1.0000
  C   C62       1.0  0.38316  0.06470  0.13492  1.0000
  C   C63       1.0  0.43335  0.11720  0.11303  1.0000
  H   H98       1.0  0.41615  0.06022  0.17876  1.0000
  H   H99       1.0  0.43701  0.07940  0.18655  1.0000
  H   H100      1.0  0.43058  0.07251  0.10386  1.0000
  H   H101      1.0  0.35997  0.03001  0.42308  1.0000
  H   H102      1.0  0.38565  0.09955  0.14486  1.0000
  H   H103      1.0  0.39548  0.09150  0.11029  1.0000
  H   H104      1.0  0.41652  0.12107  0.15399  1.0000
  H   H105      1.0  0.44403  0.10946  0.15720  1.0000
  H   H106      1.0  0.40717  0.08494  0.22058  1.0000
  H   H107      1.0  0.40775  0.10924  0.19844  1.0000
  H   H108      1.0  0.38661  0.08892  0.19244  1.0000
  Fe  Fe8       1.0  0.38444  0.06419  0.00556  1.0000
  C   C64       1.0  0.44810  0.21912  0.18793  1.0000
  H   H109      1.0  0.39108  0.19367  0.49613  1.0000
  H   H110      1.0  0.36594  0.06803  0.12644  1.0000
  H   H111      1.0  0.38176  0.05838  0.15752  1.0000
  H   H112      1.0  0.39059  0.05165  0.12056  1.0000
  H   H113      1.0  0.33447  0.11389  0.46560  1.0000
  H   H114      1.0  0.04385  0.29846  0.08519  1.0000
  H   H115      1.0  0.47623  0.14999  0.39696  1.0000
  H   H116      1.0  0.26649  0.29483  0.32792  1.0000
  H   H117      1.0  0.42721  0.15419  0.48681  1.0000
  C   C65       1.0  0.49065  0.25436  0.23617  1.0000
  H   H118      1.0  0.44092  0.17752  0.20532  1.0000
  H   H119      1.0  0.07344  0.30618  0.12060  1.0000
  C   C66       1.0  0.37606  0.20437  0.50003  1.0000
  H   H120      1.0  0.09620  0.28763  0.04066  1.0000
  H   H121      1.0  0.49088  0.26308  0.21552  1.0000
  H   H122      1.0  0.08312  0.31165  0.02200  1.0000
  C   C67       1.0  0.43923  0.02433  0.02943  1.0000
  H   H123      1.0  0.36188  0.19816  0.48691  1.0000
  H   H124      1.0  0.11280  0.31455  0.13368  1.0000
  H   H125      1.0  0.44257  0.17088  0.38188  1.0000
  H   H126      1.0  0.31407  0.31260  0.34874  1.0000
  C   C68       1.0  0.46284  0.15181  0.41340  1.0000
  H   H127      1.0  0.43086  0.03464  0.01215  1.0000
  H   H128      1.0  0.48943  0.01656  0.48815  1.0000
  H   H129      1.0  0.23514  0.32054  0.30622  1.0000
  H   H130      1.0  0.11202  0.30551  0.01909  1.0000
  H   H131      1.0  0.48653  0.14708  0.46397  1.0000
  N   N6        1.0  0.47548  0.18704  0.20326  1.0000
  C   C69       1.0  0.45957  0.01106  0.01769  1.0000
  H   H132      1.0  0.23407  0.31695  0.39129  1.0000
  H   H133      1.0  0.43727  0.14194  0.38099  1.0000
  N   N7        1.0  0.26695  0.32583  0.35231  1.0000
  H   H134      1.0  0.46667  0.16732  0.42560  1.0000
  H   H135      1.0  0.46024  0.15530  0.20820  1.0000
  H   H136      1.0  0.42824  0.13073  0.44370  1.0000
  C   C70       1.0  0.44445  0.13349  0.45496  1.0000
  H   H137      1.0  0.44483  0.03596  0.04678  1.0000
  H   H138      1.0  0.37949  0.22111  0.49138  1.0000
  C   C71       1.0  0.48495  0.13169  0.45065  1.0000
  S   S15       1.0  0.35928  0.03224  0.49252  1.0000
  H   H139      1.0  0.22000  0.31549  0.33922  1.0000
  C   C72       1.0  0.37217  0.00540  0.49701  1.0000
  H   H140      1.0  0.09243  0.32943  0.44632  1.0000
  C   C73       1.0  0.48124  0.17220  0.25617  1.0000
  H   H141      1.0  0.35547  0.21740  0.53488  1.0000
  S   S16       1.0  0.39861  0.06497  0.54799  1.0000
  C   C74       1.0  0.49100  0.07514  0.98182  1.0000
  Fe  Fe9       1.0  0.39260  0.11271  0.98791  1.0000
  H   H142      1.0  0.37249  0.22366  0.58936  1.0000
  S   S17       1.0  0.39433  0.14228  0.95652  1.0000
  Fe  Fe10      1.0  0.38327  0.09930  0.55461  1.0000
  S   S18       1.0  0.36821  0.11205  0.59745  1.0000
  H   H143      1.0  0.40276  0.01719  0.51535  1.0000
  C   C75       1.0  0.48544  0.26565  0.80085  1.0000
  H   H144      1.0  0.49130  0.15780  0.92054  1.0000
  S   S19       1.0  0.41371  0.08119  0.98642  1.0000
  Fe  Fe11      1.0  0.41674  0.22635  0.77627  1.0000
  S   S20       1.0  0.41835  0.19061  0.76262  1.0000
  S   S21       1.0  0.44519  0.24727  0.79311  1.0000
  Fe  Fe12      1.0  0.36554  0.23045  0.76885  1.0000
  S   S22       1.0  0.36382  0.19446  0.75426  1.0000
  S   S23       1.0  0.33403  0.25208  0.77931  1.0000
  Fe  Fe13      1.0  0.38855  0.18649  0.79097  1.0000
  S   S24       1.0  0.38720  0.15419  0.81729  1.0000
  Fe  Fe14      1.0  0.39375  0.20087  0.72699  1.0000
  S   S25       1.0  0.40283  0.18966  0.68050  1.0000
  S   S26       1.0  0.38849  0.22166  0.80723  1.0000
  S   S27       1.0  0.39394  0.23741  0.73902  1.0000
  C   C76       1.0  0.31749  0.27621  0.76846  1.0000
  C   C77       1.0  0.32318  0.29001  0.74531  1.0000
  H   H145      1.0  0.48208  0.14631  0.53160  1.0000
  C   C78       1.0  0.29858  0.28235  0.78483  1.0000
  H   H146      1.0  0.33749  0.28564  0.73227  1.0000
  C   C79       1.0  0.37700  0.20655  0.59680  1.0000
  C   C80       1.0  0.37069  0.20646  0.53291  1.0000
  C   C81       1.0  0.47446  0.24782  0.78809  1.0000
  C   C82       1.0  0.31040  0.30968  0.73908  1.0000
  H   H147      1.0  0.33541  0.15556  0.57325  1.0000
  H   H148      1.0  0.45430  0.11689  0.53240  1.0000
  H   H149      1.0  0.47604  0.27825  0.81277  1.0000
  C   C83       1.0  0.39055  0.14515  0.91788  1.0000
  C   C84       1.0  0.39130  0.16650  0.90554  1.0000
  C   C85       1.0  0.39005  0.16960  0.87491  1.0000
  C   C86       1.0  0.38818  0.15131  0.85614  1.0000
  C   C87       1.0  0.38745  0.12993  0.86846  1.0000
  C   C88       1.0  0.38862  0.12684  0.89911  1.0000
  H   H150      1.0  0.39293  0.18078  0.91978  1.0000
  H   H151      1.0  0.39061  0.18614  0.86585  1.0000
  H   H152      1.0  0.38597  0.11565  0.85421  1.0000
  H   H153      1.0  0.38818  0.11030  0.90821  1.0000
  C   C89       1.0  0.39314  0.16737  0.65870  1.0000
  C   C90       1.0  0.40689  0.15852  0.63664  1.0000
  C   C91       1.0  0.39967  0.14137  0.61801  1.0000
  C   C92       1.0  0.37845  0.13304  0.62102  1.0000
  C   C93       1.0  0.36468  0.14188  0.64308  1.0000
  C   C94       1.0  0.37193  0.15902  0.66175  1.0000
  H   H154      1.0  0.42329  0.16494  0.63400  1.0000
  H   H155      1.0  0.41052  0.13461  0.60132  1.0000
  H   H156      1.0  0.34813  0.13572  0.64538  1.0000
  H   H157      1.0  0.36092  0.16614  0.67802  1.0000
  C   C95       1.0  0.38250  0.27940  0.82690  1.0000
  H   H158      1.0  0.40871  0.31275  0.82699  1.0000
  H   H159      1.0  0.43739  0.15794  0.87807  1.0000
  H   H160      1.0  0.36500  0.17352  0.59354  1.0000
  C   C96       1.0  0.45304  0.15193  0.88911  1.0000
  H   H161      1.0  0.17290  0.30940  0.76585  1.0000
  C   C97       1.0  0.45237  0.14984  0.98975  1.0000
  H   H162      1.0  0.37258  0.31649  0.77133  1.0000
  H   H163      1.0  0.27138  0.30634  0.79147  1.0000
  N   N8        1.0  0.46701  0.13673  0.93940  1.0000
  C   C98       1.0  0.47743  0.09069  0.51989  1.0000
  C   C99       1.0  0.36299  0.18915  0.58072  1.0000
  N   N9        1.0  0.38763  0.11464  0.73704  1.0000
  C   C100      1.0  0.40007  0.10966  0.76536  1.0000
  C   C101      1.0  0.37329  0.13536  0.74168  1.0000
  C   C102      1.0  0.40334  0.11856  0.71241  1.0000
  C   C103      1.0  0.37385  0.09506  0.72891  1.0000
  C   C104      1.0  0.41751  0.09032  0.76450  1.0000
  C   C105      1.0  0.35232  0.13246  0.76007  1.0000
  C   C106      1.0  0.42020  0.13686  0.71793  1.0000
  C   C107      1.0  0.35927  0.09774  0.70082  1.0000
  H   H164      1.0  0.40870  0.12459  0.77358  1.0000
  H   H165      1.0  0.38835  0.10569  0.78300  1.0000
  H   H166      1.0  0.36790  0.14308  0.72059  1.0000
  H   H167      1.0  0.38301  0.14842  0.75283  1.0000
  H   H168      1.0  0.41274  0.10302  0.70642  1.0000
  H   H169      1.0  0.39394  0.12333  0.69207  1.0000
  H   H170      1.0  0.38470  0.08008  0.72494  1.0000
  H   H171      1.0  0.36327  0.08997  0.74734  1.0000
  H   H172      1.0  0.43076  0.09316  0.74856  1.0000
  H   H173      1.0  0.42576  0.08895  0.78641  1.0000
  H   H174      1.0  0.40984  0.07414  0.76010  1.0000
  H   H175      1.0  0.33978  0.12256  0.74827  1.0000
  H   H176      1.0  0.35624  0.12491  0.78171  1.0000
  H   H177      1.0  0.34442  0.14906  0.76438  1.0000
  H   H178      1.0  0.41174  0.15312  0.72213  1.0000
  H   H179      1.0  0.43018  0.13886  0.69793  1.0000
  H   H180      1.0  0.43195  0.13273  0.73619  1.0000
  H   H181      1.0  0.36854  0.09199  0.68119  1.0000
  H   H182      1.0  0.35320  0.11503  0.69690  1.0000
  H   H183      1.0  0.34413  0.08788  0.70286  1.0000
  C   C108      1.0  0.46111  0.09757  0.91797  1.0000
  C   C109      1.0  0.40091  0.29444  0.76987  1.0000
  C   C110      1.0  0.35180  0.30714  0.82161  1.0000
  H   H184      1.0  0.48805  0.21729  0.67423  1.0000
  H   H185      1.0  0.39993  0.27465  0.82140  1.0000
  H   H186      1.0  0.47074  0.08320  0.90875  1.0000
  H   H187      1.0  0.45333  0.01668  0.93335  1.0000
  N   N10       1.0  0.37588  0.30200  0.81482  1.0000
  C   C111      1.0  0.48458  0.15386  0.94235  1.0000
  H   H188      1.0  0.44836  0.10265  0.90128  1.0000
  H   H189      1.0  0.46731  0.15883  0.99683  1.0000
  H   H190      1.0  0.45906  0.13724  0.87650  1.0000
  H   H191      1.0  0.41377  0.30582  0.77790  1.0000
  H   H192      1.0  0.45783  0.03248  0.96617  1.0000
  H   H193      1.0  0.44269  0.12090  0.96616  1.0000
  H   H194      1.0  0.32467  0.14720  0.53843  1.0000
  H   H195      1.0  0.38536  0.25869  0.86544  1.0000
  C   C112      1.0  0.47413  0.07461  0.00252  1.0000
  H   H196      1.0  0.36448  0.28001  0.86886  1.0000
  S   S28       1.0  0.45780  0.06995  0.51712  1.0000
  C   C113      1.0  0.48706  0.23159  0.77273  1.0000
  H   H197      1.0  0.38508  0.15391  0.55927  1.0000
  C   C114      1.0  0.39371  0.00273  0.50871  1.0000
  C   C115      1.0  0.29157  0.31589  0.75558  1.0000
  C   C116      1.0  0.28570  0.30192  0.77844  1.0000
  H   H198      1.0  0.46485  0.16556  0.88756  1.0000
  H   H199      1.0  0.42190  0.00563  0.98106  1.0000
  H   H200      1.0  0.40027  0.29576  0.74560  1.0000
  H   H201      1.0  0.38408  0.21626  0.54298  1.0000
  H   H202      1.0  0.39506  0.20333  0.59492  1.0000
  C   C117      1.0  0.41050  0.17709  0.55302  1.0000
  H   H203      1.0  0.34132  0.29331  0.81402  1.0000
  H   H204      1.0  0.47883  0.21765  0.76290  1.0000
  H   H205      1.0  0.29392  0.27194  0.80282  1.0000
  H   H206      1.0  0.17713  0.32762  0.81647  1.0000
  H   H207      1.0  0.49056  0.10893  0.93937  1.0000
  H   H208      1.0  0.43974  0.16159  0.98008  1.0000
  C   C118      1.0  0.38716  0.16875  0.54528  1.0000
  H   H209      1.0  0.34536  0.19488  0.58360  1.0000
  C   C119      1.0  0.16425  0.31502  0.81250  1.0000
  H   H210      1.0  0.43105  0.03315  0.94956  1.0000
  C   C120      1.0  0.33982  0.15296  0.54998  1.0000
  C   C121      1.0  0.44792  0.14623  0.92116  1.0000
  H   H211      1.0  0.37191  0.26656  0.81670  1.0000
  C   C122      1.0  0.47721  0.11633  0.92511  1.0000
  H   H212      1.0  0.18949  0.29396  0.79176  1.0000
  H   H213      1.0  0.08982  0.30257  0.81473  1.0000
  H   H214      1.0  0.31517  0.32024  0.72131  1.0000
  H   H215      1.0  0.45896  0.06630  0.99744  1.0000
  H   H216      1.0  0.35248  0.13929  0.54825  1.0000
  H   H217      1.0  0.41277  0.19480  0.54824  1.0000
  H   H218      1.0  0.12679  0.31712  0.86628  1.0000
  C   C123      1.0  0.17226  0.30018  0.78679  1.0000
  H   H219      1.0  0.12714  0.29606  0.82484  1.0000
  H   H220      1.0  0.45290  0.09155  0.93783  1.0000
  H   H221      1.0  0.09425  0.31974  0.78325  1.0000
  S   S29       1.0  0.40878  0.11649  0.52856  1.0000
  S   S30       1.0  0.37784  0.03045  0.98407  1.0000
  C   C124      1.0  0.34165  0.32878  0.80825  1.0000
  H   H222      1.0  0.34881  0.30808  0.84539  1.0000
  H   H223      1.0  0.39397  0.28622  0.87194  1.0000
  N   N11       1.0  0.36766  0.18485  0.54872  1.0000
  C   C125      1.0  0.44582  0.02209  0.95437  1.0000
  H   H224      1.0  0.48882  0.06727  0.96068  1.0000
  H   H225      1.0  0.16492  0.30416  0.83216  1.0000
  H   H226      1.0  0.16201  0.28537  0.78386  1.0000
  H   H227      1.0  0.42295  0.16801  0.53939  1.0000
  Fe  Fe15      1.0  0.42228  0.08208  0.51888  1.0000
  H   H228      1.0  0.40617  0.27703  0.77474  1.0000
  H   H229      1.0  0.37335  0.20603  0.62058  1.0000
  H   H230      1.0  0.38766  0.16166  0.52272  1.0000
  H   H231      1.0  0.43403  0.13459  0.92054  1.0000
  C   C126      1.0  0.38131  0.27641  0.86026  1.0000
  N   N12       1.0  0.14158  0.32626  0.80860  1.0000
  H   H232      1.0  0.33295  0.18635  0.53487  1.0000
  C   C127      1.0  0.12462  0.30844  0.80693  1.0000
  H   H233      1.0  0.41488  0.17382  0.57633  1.0000
  C   C128      1.0  0.09993  0.31608  0.80605  1.0000
  H   H234      1.0  0.33839  0.32694  0.78441  1.0000
  C   C129      1.0  0.37954  0.00289  0.99842  1.0000
  H   H235      1.0  0.48582  0.12060  0.90464  1.0000
  C   C130      1.0  0.34746  0.17433  0.53516  1.0000
  C   C131      1.0  0.39127  0.31954  0.82595  1.0000
  C   C132      1.0  0.37763  0.30045  0.78187  1.0000
  H   H236      1.0  0.36610  0.28795  0.77290  1.0000
  S   S31       1.0  0.35997  0.09593  0.51580  1.0000
  C   C133      1.0  0.48695  0.12927  0.52666  1.0000
  H   H237      1.0  0.35037  0.16964  0.51189  1.0000
  H   H238      1.0  0.37635  0.32002  0.87097  1.0000
  C   C134      1.0  0.47119  0.11265  0.52688  1.0000
  H   H239      1.0  0.12697  0.29826  0.78676  1.0000
  H   H240      1.0  0.15566  0.32471  0.87123  1.0000
  H   H241      1.0  0.44086  0.16170  0.93128  1.0000
  Fe  Fe16      1.0  0.37770  0.06300  0.50702  1.0000
  C   C135      1.0  0.45815  0.13040  0.96884  1.0000
  H   H242      1.0  0.49511  0.22663  0.85747  1.0000
  H   H243      1.0  0.47752  0.17013  0.95014  1.0000
  H   H244      1.0  0.46988  0.11889  0.98077  1.0000
  C   C136      1.0  0.43856  0.00177  0.97197  1.0000
  H   H245      1.0  0.48372  0.00034  0.97026  1.0000
  H   H246      1.0  0.13877  0.32853  0.76114  1.0000
  S   S32       1.0  0.36239  0.09564  0.00434  1.0000
  Fe  Fe17      1.0  0.11536  0.38413  0.04072  1.0000
  S   S33       1.0  0.09186  0.40945  0.49892  1.0000
  S   S34       1.0  0.14233  0.36701  0.06918  1.0000
  H   H247      1.0  0.14487  0.58954  0.41960  1.0000
  H   H248      1.0  0.16994  0.63871  0.09311  1.0000
  H   H249      1.0  0.15716  0.58835  0.06065  1.0000
  H   H250      1.0  0.04796  0.58420  0.10605  1.0000
  H   H251      1.0  0.17825  0.58281  0.38926  1.0000
  Fe  Fe18      1.0  0.12511  0.39342  0.48924  1.0000
  S   S35       1.0  0.14068  0.40607  0.44733  1.0000
  S   S36       1.0  0.08121  0.39549  0.05501  1.0000
  H   H252      1.0  0.11051  0.38986  0.38827  1.0000
  H   H253      1.0  0.30478  0.65334  0.20950  1.0000
  S   S37       1.0  0.09831  0.58052  0.03397  1.0000
  H   H254      1.0  0.17968  0.35350  0.10580  1.0000
  Fe  Fe19      1.0  0.09627  0.59781  0.45178  1.0000
  S   S38       1.0  0.11922  0.57299  0.47375  1.0000
  S   S39       1.0  0.10290  0.61426  0.40786  1.0000
  H   H255      1.0  0.09451  0.40947  0.43556  1.0000
  S   S40       1.0  0.09102  0.51732  0.46572  1.0000
  H   H256      1.0  0.02575  0.59949  0.41159  1.0000
  S   S41       1.0  0.13041  0.63444  0.05730  1.0000
  S   S42       1.0  0.06628  0.57657  0.45440  1.0000
  C   C137      1.0  0.08168  0.41320  0.41857  1.0000
  Fe  Fe20      1.0  0.22553  0.41054  0.27159  1.0000
  S   S43       1.0  0.19020  0.40069  0.27648  1.0000
  S   S44       1.0  0.23602  0.44556  0.28466  1.0000
  Fe  Fe21      1.0  0.24167  0.36194  0.25710  1.0000
  S   S45       1.0  0.20678  0.34948  0.26013  1.0000
  H   H257      1.0  0.00566  0.62472  0.43907  1.0000
  Fe  Fe22      1.0  0.19567  0.38048  0.23518  1.0000
  S   S46       1.0  0.16551  0.38545  0.20415  1.0000
  Fe  Fe23      1.0  0.20378  0.37086  0.30082  1.0000
  S   S47       1.0  0.19046  0.35548  0.34257  1.0000
  S   S48       1.0  0.23070  0.39186  0.22924  1.0000
  S   S49       1.0  0.23902  0.38184  0.29898  1.0000
  Fe  Fe24      1.0  0.19658  0.60142  0.28274  1.0000
  S   S50       1.0  0.23103  0.58989  0.26913  1.0000
  S   S51       1.0  0.18939  0.59502  0.33094  1.0000
  Fe  Fe25      1.0  0.18197  0.61083  0.21901  1.0000
  S   S52       1.0  0.21524  0.60006  0.20169  1.0000
  S   S53       1.0  0.14966  0.61509  0.19237  1.0000
  Fe  Fe26      1.0  0.21375  0.57140  0.23302  1.0000
  S   S54       1.0  0.21841  0.53627  0.21469  1.0000
  Fe  Fe27      1.0  0.23016  0.61985  0.23929  1.0000
  S   S55       1.0  0.17982  0.58111  0.24828  1.0000
  C   C138      1.0  0.22250  0.51138  0.23510  1.0000
  C   C139      1.0  0.21666  0.49109  0.22223  1.0000
  C   C140      1.0  0.22039  0.47082  0.23720  1.0000
  C   C141      1.0  0.23050  0.47059  0.26500  1.0000
  C   C142      1.0  0.23654  0.49090  0.27777  1.0000
  C   C143      1.0  0.23241  0.51121  0.26305  1.0000
  H   H258      1.0  0.20917  0.49098  0.20052  1.0000
  H   H259      1.0  0.21572  0.45533  0.22707  1.0000
  H   H260      1.0  0.24449  0.49085  0.29919  1.0000
  H   H261      1.0  0.23708  0.52665  0.27324  1.0000
  C   C144      1.0  0.11408  0.47568  0.03621  1.0000
  H   H262      1.0  0.18940  0.36036  0.15820  1.0000
  H   H263      1.0  0.30574  0.58848  0.17607  1.0000
  C   C145      1.0  0.16479  0.60010  0.35134  1.0000
  C   C146      1.0  0.14626  0.61198  0.33992  1.0000
  C   C147      1.0  0.12740  0.61605  0.35739  1.0000
  C   C148      1.0  0.12670  0.60800  0.38627  1.0000
  C   C149      1.0  0.14505  0.59570  0.39741  1.0000
  C   C150      1.0  0.16400  0.59193  0.38012  1.0000
  H   H264      1.0  0.14660  0.61840  0.31784  1.0000
  H   H265      1.0  0.11335  0.62562  0.34853  1.0000
  C   C151      1.0  0.13690  0.62608  0.09370  1.0000
  C   C152      1.0  0.12088  0.61670  0.11118  1.0000
  C   C153      1.0  0.12515  0.61338  0.14129  1.0000
  C   C154      1.0  0.14580  0.61848  0.15403  1.0000
  C   C155      1.0  0.16219  0.62697  0.13630  1.0000
  H   H266      1.0  0.10494  0.61282  0.10169  1.0000
  H   H267      1.0  0.11233  0.60700  0.15491  1.0000
  C   C156      1.0  0.15467  0.39155  0.41870  1.0000
  C   C157      1.0  0.16060  0.40340  0.39369  1.0000
  C   C158      1.0  0.17157  0.39266  0.37025  1.0000
  C   C159      1.0  0.17674  0.36987  0.37155  1.0000
  C   C160      1.0  0.17078  0.35798  0.39655  1.0000
  C   C161      1.0  0.15981  0.36874  0.42002  1.0000
  H   H268      1.0  0.15676  0.42106  0.39246  1.0000
  H   H269      1.0  0.17606  0.40203  0.35120  1.0000
  H   H270      1.0  0.05719  0.39743  0.39168  1.0000
  H   H271      1.0  0.15554  0.35944  0.43921  1.0000
  C   C162      1.0  0.14949  0.37380  0.10606  1.0000
  C   C163      1.0  0.16891  0.36413  0.11889  1.0000
  C   C164      1.0  0.17448  0.36799  0.14861  1.0000
  C   C165      1.0  0.16045  0.38127  0.16601  1.0000
  C   C166      1.0  0.14102  0.39091  0.15314  1.0000
  C   C167      1.0  0.13565  0.38739  0.12331  1.0000
  C   C168      1.0  0.99751  0.58562  0.47180  1.0000
  C   C169      1.0  0.99942  0.59693  0.49851  1.0000
  H   H272      1.0  0.13002  0.40115  0.16640  1.0000
  H   H273      1.0  0.12062  0.39487  0.11386  1.0000
  H   H274      1.0  0.08346  0.36604  0.44942  1.0000
  C   C170      1.0  0.02950  0.60863  0.07809  1.0000
  H   H275      1.0  0.12003  0.56568  0.13879  1.0000
  S   S56       1.0  0.08849  0.61582  0.49414  1.0000
  H   H276      1.0  0.17805  0.63120  0.14588  1.0000
  H   H277      1.0  0.05775  0.36183  0.37030  1.0000
  C   C171      1.0  0.10243  0.33892  0.43077  1.0000
  H   H278      1.0  0.06164  0.44735  0.49434  1.0000
  H   H279      1.0  0.11168  0.47434  0.46940  1.0000
  H   H280      1.0  0.02901  0.61098  0.37515  1.0000
  H   H281      1.0  0.01585  0.60864  0.09427  1.0000
  H   H282      1.0  0.10889  0.37387  0.43473  1.0000
  S   S57       1.0  0.03704  0.36066  0.00787  1.0000
  S   S58       1.0  0.11394  0.35970  0.50240  1.0000
  H   H283      1.0  0.14303  0.50625  0.48607  1.0000
  H   H284      1.0  0.12346  0.36592  0.34922  1.0000
  H   H285      1.0  0.12382  0.54866  0.17041  1.0000
  N   N13       1.0  0.28640  0.55876  0.21431  1.0000
  S   S59       1.0  0.19644  0.63252  0.25500  1.0000
  C   C172      1.0  0.15757  0.63114  0.10638  1.0000
  H   H286      1.0  0.05105  0.62276  0.03523  1.0000
  H   H287      1.0  0.04592  0.45204  0.46156  1.0000
  H   H288      1.0  0.13331  0.56158  0.08446  1.0000
  H   H289      1.0  0.14259  0.52420  0.07502  1.0000
  H   H290      1.0  0.12852  0.52809  0.12361  1.0000
  H   H291      1.0  0.05109  0.59531  0.39227  1.0000
  C   C173      1.0  0.28136  0.58337  0.21105  1.0000
  H   H292      1.0  0.06501  0.50406  0.02391  1.0000
  H   H293      1.0  0.01233  0.57966  0.46082  1.0000
  C   C174      1.0  0.04788  0.34556  0.08790  1.0000
  C   C175      1.0  0.00882  0.38563  0.04375  1.0000
  C   C176      1.0  0.09838  0.37785  0.37945  1.0000
  C   C177      1.0  0.31094  0.55279  0.21360  1.0000
  C   C178      1.0  0.28473  0.56082  0.27108  1.0000
  C   C179      1.0  0.32685  0.56905  0.22892  1.0000
  H   H294      1.0  0.28885  0.59328  0.22889  1.0000
  H   H295      1.0  0.28218  0.55205  0.16777  1.0000
  H   H296      1.0  0.31430  0.53599  0.22319  1.0000
  H   H297      1.0  0.31647  0.55156  0.19046  1.0000
  C   C180      1.0  0.27625  0.55070  0.24214  1.0000
  H   H298      1.0  0.30215  0.55535  0.27596  1.0000
  H   H299      1.0  0.27464  0.55452  0.28922  1.0000
  H   H300      1.0  0.34102  0.55933  0.23894  1.0000
  H   H301      1.0  0.31957  0.57929  0.24665  1.0000
  H   H302      1.0  0.33437  0.58005  0.21261  1.0000
  H   H303      1.0  0.25792  0.55363  0.24122  1.0000
  S   S60       1.0  0.27459  0.34172  0.24808  1.0000
  S   S61       1.0  0.26282  0.63782  0.22933  1.0000
  Fe  Fe28      1.0  0.08699  0.42505  0.02682  1.0000
  H   H304      1.0  0.29306  0.51467  0.19208  1.0000
  C   C181      1.0  0.27589  0.52163  0.18934  1.0000
  H   H305      1.0  0.28803  0.61210  0.18415  1.0000
  H   H306      1.0  0.01312  0.64775  0.09703  1.0000
  H   H307      1.0  0.05883  0.62261  0.42772  1.0000
  C   C182      1.0  0.04550  0.45395  0.48574  1.0000
  C   C183      1.0  0.11279  0.35886  0.36625  1.0000
  H   H308      1.0  0.26319  0.58700  0.21301  1.0000
  H   H309      1.0  0.26512  0.51490  0.20640  1.0000
  H   H310      1.0  0.00529  0.63759  0.39018  1.0000
  N   N14       1.0  0.04198  0.62999  0.07998  1.0000
  C   C184      1.0  0.29158  0.35648  0.33189  1.0000
  H   H311      1.0  0.24735  0.33803  0.41282  1.0000
  H   H312      1.0  0.27902  0.53246  0.24475  1.0000
  H   H313      1.0  0.05278  0.36179  0.09722  1.0000
  H   H314      1.0  0.22161  0.34383  0.39295  1.0000
  H   H315      1.0  0.26458  0.34112  0.30959  1.0000
  H   H316      1.0  0.01217  0.46626  0.02608  1.0000
  C   C185      1.0  0.00831  0.65177  0.47009  1.0000
  H   H317      1.0  0.07016  0.42615  0.42768  1.0000
  N   N15       1.0  0.15870  0.54319  0.10930  1.0000
  C   C186      1.0  0.15898  0.52475  0.08671  1.0000
  C   C187      1.0  0.15022  0.56405  0.09401  1.0000
  C   C188      1.0  0.14299  0.53689  0.13314  1.0000
  C   C189      1.0  0.18201  0.54525  0.12141  1.0000
  C   C190      1.0  0.16434  0.50106  0.09835  1.0000
  C   C191      1.0  0.16482  0.57262  0.06933  1.0000
  C   C192      1.0  0.13264  0.55588  0.15174  1.0000
  C   C193      1.0  0.18624  0.56462  0.14278  1.0000
  H   H318      1.0  0.16034  0.52897  0.25063  1.0000
  H   H319      1.0  0.17136  0.52769  0.06948  1.0000
  H   H320      1.0  0.15133  0.52492  0.14868  1.0000
  H   H321      1.0  0.18725  0.53003  0.13379  1.0000
  H   H322      1.0  0.19437  0.54583  0.10361  1.0000
  H   H323      1.0  0.15182  0.49551  0.11401  1.0000
  H   H324      1.0  0.16400  0.48919  0.07967  1.0000
  H   H325      1.0  0.18120  0.49944  0.10840  1.0000
  H   H326      1.0  0.18171  0.57650  0.07739  1.0000
  H   H327      1.0  0.16576  0.56099  0.05048  1.0000
  H   H328      1.0  0.14502  0.56713  0.16119  1.0000
  H   H329      1.0  0.18278  0.55985  0.16571  1.0000
  H   H330      1.0  0.17684  0.58014  0.13728  1.0000
  H   H331      1.0  0.20395  0.56909  0.14169  1.0000
  H   H332      1.0  0.27691  0.58963  0.16383  1.0000
  H   H333      1.0  0.14415  0.51753  0.27825  1.0000
  C   C194      1.0  0.06853  0.39248  0.41026  1.0000
  C   C195      1.0  0.05378  0.63043  0.10939  1.0000
  Fe  Fe29      1.0  0.08897  0.55305  0.47934  1.0000
  H   H334      1.0  0.14805  0.57812  0.10943  1.0000
  H   H335      1.0  0.14773  0.54712  0.27783  1.0000
  N   N16       1.0  0.17513  0.51959  0.32352  1.0000
  C   C196      1.0  0.19782  0.51749  0.33795  1.0000
  C   C197      1.0  0.16511  0.49694  0.32339  1.0000
  C   C198      1.0  0.16007  0.53566  0.33980  1.0000
  C   C199      1.0  0.17765  0.52824  0.29291  1.0000
  C   C200      1.0  0.20984  0.53940  0.34351  1.0000
  C   C201      1.0  0.17561  0.47969  0.30215  1.0000
  C   C202      1.0  0.15721  0.53079  0.37263  1.0000
  C   C203      1.0  0.15611  0.53063  0.27416  1.0000
  H   H336      1.0  0.19709  0.50872  0.35930  1.0000
  H   H337      1.0  0.20920  0.50695  0.32444  1.0000
  H   H338      1.0  0.14695  0.49803  0.31859  1.0000
  H   H339      1.0  0.16645  0.48934  0.34558  1.0000
  H   H340      1.0  0.16576  0.55297  0.33780  1.0000
  H   H341      1.0  0.14308  0.53617  0.32976  1.0000
  H   H342      1.0  0.18459  0.54512  0.29350  1.0000
  H   H343      1.0  0.19014  0.51827  0.28047  1.0000
  H   H344      1.0  0.20053  0.55080  0.35835  1.0000
  H   H345      1.0  0.22612  0.53552  0.35443  1.0000
  H   H346      1.0  0.21345  0.54814  0.32292  1.0000
  H   H347      1.0  0.16749  0.46354  0.30486  1.0000
  H   H348      1.0  0.17311  0.48453  0.27888  1.0000
  H   H349      1.0  0.19356  0.47657  0.30681  1.0000
  H   H350      1.0  0.17306  0.53174  0.38519  1.0000
  H   H351      1.0  0.14974  0.51447  0.37620  1.0000
  H   H352      1.0  0.14566  0.54365  0.38198  1.0000
  N   N17       1.0  0.08216  0.37173  0.40269  1.0000
  C   C204      1.0  0.27830  0.66196  0.23906  1.0000
  H   H353      1.0  0.07205  0.34979  0.05438  1.0000
  C   C205      1.0  0.27492  0.54731  0.18899  1.0000
  H   H354      1.0  0.08944  0.38640  0.36088  1.0000
  C   C206      1.0  0.09426  0.36361  0.43004  1.0000
  H   H355      1.0  0.14641  0.48901  0.02988  1.0000
  H   H356      1.0  0.02123  0.60694  0.05627  1.0000
  H   H357      1.0  0.28141  0.37096  0.33962  1.0000
  H   H358      1.0  0.12055  0.45957  0.04319  1.0000
  S   S62       1.0  0.07265  0.45853  0.03958  1.0000
  H   H359      1.0  0.05760  0.38946  0.42917  1.0000
  C   C207      1.0  0.09111  0.47981  0.03398  1.0000
  C   C208      1.0  0.01475  0.65218  0.39762  1.0000
  H   H360      1.0  0.06562  0.61597  0.11178  1.0000
  H   H361      1.0  0.05900  0.65830  0.02442  1.0000
  C   C209      1.0  0.06650  0.65341  0.04594  1.0000
  H   H362      1.0  0.02711  0.42378  0.48965  1.0000
  H   H363      1.0  0.29884  0.36156  0.31081  1.0000
  S   S63       1.0  0.13851  0.53329  0.00835  1.0000
  C   C210      1.0  0.25079  0.34260  0.36533  1.0000
  H   H364      1.0  0.02066  0.64890  0.03005  1.0000
  C   C211      1.0  0.03728  0.60755  0.39661  1.0000
  H   H365      1.0  0.10290  0.34600  0.35522  1.0000
  C   C212      1.0  0.05836  0.63038  0.05534  1.0000
  H   H366      1.0  0.29139  0.33453  0.38552  1.0000
  H   H367      1.0  0.08951  0.42057  0.39923  1.0000
  C   C213      1.0  0.28860  0.59369  0.18200  1.0000
  H   H368      1.0  0.25706  0.55275  0.18746  1.0000
  C   C214      1.0  0.10421  0.47813  0.49032  1.0000
  H   H369      1.0  0.11974  0.33790  0.43961  1.0000
  Fe  Fe30      1.0  0.06020  0.59219  0.49828  1.0000
  S   S64       1.0  0.03789  0.58067  0.00609  1.0000
  H   H370      1.0  0.02364  0.39242  0.05347  1.0000
  H   H371      1.0  0.28278  0.57917  0.27179  1.0000
  Fe  Fe31      1.0  0.06873  0.38012  0.01316  1.0000
  C   C215      1.0  0.27747  0.33597  0.32605  1.0000
  H   H372      1.0  0.09882  0.35579  0.09602  1.0000
  H   H373      1.0  0.26925  0.51539  0.16810  1.0000
  C   C216      1.0  0.15271  0.52059  0.49374  1.0000
  H   H374      1.0  0.08243  0.65134  0.10172  1.0000
  C   C217      1.0  0.06615  0.33588  0.06777  1.0000
  H   H375      1.0  0.05842  0.58614  0.06912  1.0000
  H   H376      1.0  0.17059  0.51601  0.49378  1.0000
  H   H377      1.0  0.03070  0.62457  0.46001  1.0000
  H   H378      1.0  0.02398  0.65787  0.37821  1.0000
  H   H379      1.0  0.07477  0.64917  0.13886  1.0000
  H   H380      1.0  0.17471  0.34035  0.39781  1.0000
  C   C218      1.0  0.09291  0.49847  0.49465  1.0000
  H   H381      1.0  0.04162  0.62897  0.12735  1.0000
  H   H382      1.0  0.25951  0.35760  0.37294  1.0000
  C   C219      1.0  0.01894  0.63567  0.44734  1.0000
  H   H383      1.0  0.01854  0.65187  0.49059  1.0000
  H   H384      1.0  0.23870  0.34933  0.34863  1.0000
  H   H385      1.0  0.07338  0.61982  0.06084  1.0000
  H   H386      1.0  0.03321  0.57261  0.07576  1.0000
  C   C220      1.0  0.04718  0.62866  0.41012  1.0000
  C   C221      1.0  0.09735  0.51748  0.01824  1.0000
  H   H387      1.0  0.05780  0.63604  0.39316  1.0000
  N   N18       1.0  0.03082  0.64583  0.42210  1.0000
  Fe  Fe32      1.0  0.11517  0.61181  0.02299  1.0000
  C   C222      1.0  0.04337  0.58686  0.08266  1.0000
  C   C223      1.0  0.08277  0.50083  0.02559  1.0000
  C   C224      1.0  0.06785  0.65077  0.11620  1.0000
  C   C225      1.0  0.02477  0.64879  0.07842  1.0000
  C   C226      1.0  0.01069  0.37047  0.02055  1.0000
  H   H388      1.0  0.12442  0.35137  0.38274  1.0000
  H   H389      1.0  0.07685  0.65214  0.44510  1.0000
  H   H390      1.0  0.08471  0.65216  0.04240  1.0000
  H   H391      1.0  0.30566  0.35295  0.34728  1.0000
  H   H392      1.0  0.05622  0.65241  0.47355  1.0000
  H   H393      1.0  0.08196  0.34382  0.12285  1.0000
  H   H394      1.0  0.03239  0.34876  0.07481  1.0000
  C   C227      1.0  0.01048  0.64984  0.05000  1.0000
  C   C228      1.0  0.00245  0.45091  0.02587  1.0000
  C   C229      1.0  0.04783  0.34834  0.41162  1.0000
  H   H395      1.0  0.04410  0.47204  0.49039  1.0000
  H   H396      1.0  0.15070  0.53390  0.47705  1.0000
  H   H397      1.0  0.05463  0.34295  0.43326  1.0000
  S   S65       1.0  0.04722  0.37121  0.49222  1.0000
  C   C230      1.0  0.00158  0.37697  0.49082  1.0000
  H   H398      1.0  0.00349  0.37997  0.46769  1.0000
  H   H399      1.0  0.03525  0.36198  0.41486  1.0000
  H   H400      1.0  0.07463  0.33960  0.38315  1.0000
  C   C231      1.0  0.12867  0.49235  0.02884  1.0000
  C   C232      1.0  0.06233  0.66143  0.45437  1.0000
  H   H401      1.0  0.01082  0.44843  0.48568  1.0000
  S   S66       1.0  0.12215  0.41522  0.01553  1.0000
  C   C233      1.0  0.12028  0.51313  0.01949  1.0000
  C   C234      1.0  0.06616  0.35515  0.39051  1.0000
  H   H402      1.0  0.04401  0.33415  0.10593  1.0000
  C   C235      1.0  0.09459  0.33964  0.10606  1.0000
  H   H403      1.0  0.10967  0.33563  0.05278  1.0000
  H   H404      1.0  0.11889  0.34281  0.14157  1.0000
  H   H405      1.0  0.01250  0.43825  0.03844  1.0000
  C   C236      1.0  0.23796  0.33475  0.39219  1.0000
  C   C237      1.0  0.02560  0.44135  0.49751  1.0000
  H   H406      1.0  0.09076  0.53348  0.01097  1.0000
  H   H407      1.0  0.99820  0.63649  0.04917  1.0000
  H   H408      1.0  0.03890  0.33411  0.40203  1.0000
  C   C238      1.0  0.11529  0.33093  0.12353  1.0000
  H   H409      1.0  0.10270  0.33013  0.40956  1.0000
  H   H410      1.0  0.13035  0.33010  0.10990  1.0000
  Fe  Fe33      1.0  0.12546  0.36931  0.54822  1.0000
  H   H411      1.0  0.17169  0.45008  0.97354  1.0000
  S   S67       1.0  0.15081  0.34935  0.57562  1.0000
  H   H412      1.0  0.22749  0.49237  0.78998  1.0000
  S   S68       1.0  0.07263  0.41043  0.98591  1.0000
  C   C239      1.0  0.22423  0.47173  0.82798  1.0000
  H   H413      1.0  0.09801  0.50689  0.91291  1.0000
  C   C240      1.0  0.04200  0.42821  0.54343  1.0000
  Fe  Fe34      1.0  0.10741  0.39772  0.97643  1.0000
  S   S69       1.0  0.11807  0.40378  0.92916  1.0000
  S   S70       1.0  0.09174  0.38299  0.56146  1.0000
  H   H414      1.0  0.11444  0.52832  0.92641  1.0000
  H   H415      1.0  0.19499  0.34789  0.66713  1.0000
  S   S71       1.0  0.08113  0.56684  0.52381  1.0000
  C   C241      1.0  0.16287  0.47810  0.53836  1.0000
  Fe  Fe35      1.0  0.11118  0.60317  0.95667  1.0000
  H   H416      1.0  0.37756  0.34672  0.85327  1.0000
  S   S72       1.0  0.11811  0.61831  0.91220  1.0000
  C   C242      1.0  0.10636  0.46281  0.51313  1.0000
  H   H417      1.0  0.15827  0.34657  0.77728  1.0000
  H   H418      1.0  0.15254  0.63831  0.77694  1.0000
  S   S73       1.0  0.14010  0.59408  0.54681  1.0000
  S   S74       1.0  0.09397  0.57093  0.96296  1.0000
  H   H419      1.0  0.12530  0.36585  0.75494  1.0000
  Fe  Fe36      1.0  0.21729  0.40433  0.75863  1.0000
  S   S75       1.0  0.18620  0.38855  0.77376  1.0000
  S   S76       1.0  0.20643  0.44026  0.74807  1.0000
  Fe  Fe37      1.0  0.24313  0.35866  0.75984  1.0000
  S   S77       1.0  0.21294  0.34067  0.77409  1.0000
  C   C243      1.0  0.09656  0.46742  0.54006  1.0000
  Fe  Fe38      1.0  0.19390  0.36181  0.74084  1.0000
  S   S78       1.0  0.16297  0.35300  0.71439  1.0000
  Fe  Fe39      1.0  0.20748  0.36934  0.80565  1.0000
  S   S79       1.0  0.19782  0.36265  0.85309  1.0000
  S   S80       1.0  0.22403  0.37811  0.72429  1.0000
  S   S81       1.0  0.23865  0.38661  0.79317  1.0000
  Fe  Fe40      1.0  0.20111  0.59019  0.77862  1.0000
  S   S82       1.0  0.23775  0.58966  0.76941  1.0000
  S   S83       1.0  0.18986  0.57866  0.82340  1.0000
  Fe  Fe41      1.0  0.18845  0.59495  0.71274  1.0000
  S   S84       1.0  0.22426  0.59451  0.69925  1.0000
  S   S85       1.0  0.15590  0.59503  0.68590  1.0000
  Fe  Fe42      1.0  0.22918  0.56663  0.73209  1.0000
  S   S86       1.0  0.24922  0.53410  0.72614  1.0000
  Fe  Fe43      1.0  0.23002  0.61773  0.73783  1.0000
  S   S87       1.0  0.19328  0.56578  0.74298  1.0000
  C   C244      1.0  0.23737  0.50774  0.73060  1.0000
  C   C245      1.0  0.25127  0.48874  0.73512  1.0000
  C   C246      1.0  0.24225  0.46774  0.74005  1.0000
  C   C247      1.0  0.21919  0.46559  0.74017  1.0000
  C   C248      1.0  0.20536  0.48445  0.73481  1.0000
  C   C249      1.0  0.21435  0.50540  0.73023  1.0000
  H   H420      1.0  0.26911  0.49034  0.73524  1.0000
  H   H421      1.0  0.25310  0.45334  0.74402  1.0000
  H   H422      1.0  0.18751  0.48294  0.73470  1.0000
  H   H423      1.0  0.20345  0.51971  0.72626  1.0000
  C   C250      1.0  0.04150  0.42454  0.57688  1.0000
  H   H424      1.0  0.12730  0.65486  0.78185  1.0000
  H   H425      1.0  0.08521  0.60676  0.74936  1.0000
  C   C251      1.0  0.17056  0.59051  0.84836  1.0000
  C   C252      1.0  0.16156  0.61208  0.84509  1.0000
  C   C253      1.0  0.14572  0.62046  0.86505  1.0000
  C   C254      1.0  0.13897  0.60751  0.88864  1.0000
  C   C255      1.0  0.14835  0.58611  0.89226  1.0000
  C   C256      1.0  0.16402  0.57766  0.87216  1.0000
  H   H426      1.0  0.16689  0.62235  0.82735  1.0000
  H   H427      1.0  0.13876  0.63714  0.86236  1.0000
  C   C257      1.0  0.14383  0.59474  0.58560  1.0000
  C   C258      1.0  0.12630  0.59212  0.60483  1.0000
  C   C259      1.0  0.13032  0.59217  0.63541  1.0000
  C   C260      1.0  0.15190  0.59461  0.64714  1.0000
  C   C261      1.0  0.16946  0.59691  0.62788  1.0000
  H   H428      1.0  0.10964  0.59022  0.59617  1.0000
  H   H429      1.0  0.11659  0.59038  0.65005  1.0000
  C   C262      1.0  0.14121  0.39301  0.90918  1.0000
  C   C263      1.0  0.14441  0.40074  0.88054  1.0000
  C   C264      1.0  0.16209  0.39226  0.86345  1.0000
  C   C265      1.0  0.17671  0.37572  0.87471  1.0000
  C   C266      1.0  0.17370  0.36825  0.90350  1.0000
  C   C267      1.0  0.15612  0.37687  0.92069  1.0000
  H   H430      1.0  0.13297  0.41318  0.87137  1.0000
  H   H431      1.0  0.16413  0.39815  0.84135  1.0000
  H   H432      1.0  0.18488  0.35547  0.91246  1.0000
  H   H433      1.0  0.15394  0.37077  0.94267  1.0000
  C   C268      1.0  0.15418  0.35255  0.61404  1.0000
  H   H434      1.0  0.09131  0.64083  0.81848  1.0000
  H   H435      1.0  0.07466  0.51910  0.52518  1.0000
  C   C269      1.0  0.16026  0.35373  0.67568  1.0000
  C   C270      1.0  0.13898  0.35677  0.66285  1.0000
  C   C271      1.0  0.13598  0.35657  0.63217  1.0000
  N   N19       1.0  0.02290  0.44197  0.53033  1.0000
  H   H436      1.0  0.10874  0.63610  0.74045  1.0000
  H   H437      1.0  0.12470  0.35909  0.67670  1.0000
  H   H438      1.0  0.11949  0.35857  0.62258  1.0000
  H   H439      1.0  0.17911  0.59909  0.58270  1.0000
  H   H440      1.0  0.09743  0.51382  0.95158  1.0000
  H   H441      1.0  0.20584  0.47137  0.82738  1.0000
  C   C272      1.0  0.18790  0.54608  0.54772  1.0000
  H   H442      1.0  0.32454  0.65232  0.77244  1.0000
  H   H443      1.0  0.13009  0.37338  0.79221  1.0000
  H   H444      1.0  0.07791  0.49152  0.56556  1.0000
  H   H445      1.0  0.02352  0.62400  0.98083  1.0000
  H   H446      1.0  0.18797  0.51200  0.53445  1.0000
  C   C273      1.0  0.00160  0.43129  0.53892  1.0000
  H   H447      1.0  0.18613  0.59887  0.63650  1.0000
  H   H448      1.0  0.07484  0.61980  0.80105  1.0000
  C   C274      1.0  0.13818  0.34168  0.83434  1.0000
  H   H449      1.0  0.09082  0.57750  0.71297  1.0000
  H   H450      1.0  0.18684  0.51574  0.57259  1.0000
  H   H451      1.0  0.11947  0.57345  0.72273  1.0000
  C   C275      1.0  0.08534  0.48785  0.54462  1.0000
  H   H452      1.0  0.12481  0.55974  0.77349  1.0000
  S   S88       1.0  0.19348  0.61961  0.74951  1.0000
  C   C276      1.0  0.16541  0.59706  0.59734  1.0000
  N   N20       1.0  0.22629  0.51452  0.82728  1.0000
  C   C277      1.0  0.20140  0.51711  0.82976  1.0000
  C   C278      1.0  0.23633  0.51541  0.85774  1.0000
  C   C279      1.0  0.23292  0.49266  0.81328  1.0000
  C   C280      1.0  0.23444  0.53291  0.80838  1.0000
  C   C281      1.0  0.18774  0.51403  0.80122  1.0000
  C   C282      1.0  0.23588  0.53856  0.87248  1.0000
  C   C283      1.0  0.25986  0.53333  0.80441  1.0000
  H   H453      1.0  0.19503  0.50540  0.84616  1.0000
  H   H454      1.0  0.19664  0.53386  0.83823  1.0000
  H   H455      1.0  0.25385  0.50891  0.85816  1.0000
  H   H456      1.0  0.22761  0.50420  0.87270  1.0000
  C   C284      1.0  0.13674  0.57026  0.78536  1.0000
  S   S89       1.0  0.09826  0.44739  0.56758  1.0000
  H   H457      1.0  0.22735  0.53174  0.78582  1.0000
  H   H458      1.0  0.22831  0.54959  0.81585  1.0000
  H   H459      1.0  0.19158  0.52651  0.78448  1.0000
  H   H460      1.0  0.18987  0.49706  0.79202  1.0000
  H   H461      1.0  0.16983  0.51657  0.80610  1.0000
  H   H462      1.0  0.21887  0.54616  0.87334  1.0000
  H   H463      1.0  0.24212  0.53689  0.89542  1.0000
  H   H464      1.0  0.24691  0.55015  0.86137  1.0000
  H   H465      1.0  0.23029  0.45684  0.81557  1.0000
  H   H466      1.0  0.26516  0.52227  0.78611  1.0000
  H   H467      1.0  0.26955  0.52853  0.82428  1.0000
  H   H468      1.0  0.26461  0.55057  0.79946  1.0000
  N   N21       1.0  0.15482  0.51998  0.55084  1.0000
  H   H469      1.0  0.25134  0.49047  0.81270  1.0000
  H   H470      1.0  0.20630  0.54543  0.54640  1.0000
  C   C285      1.0  0.01775  0.36827  0.53834  1.0000
  H   H471      1.0  0.00383  0.41291  0.53889  1.0000
  Fe  Fe44      1.0  0.10457  0.41484  0.54448  1.0000
  H   H472      1.0  0.17105  0.56104  0.87507  1.0000
  H   H473      1.0  0.07887  0.45275  0.93197  1.0000
  H   H474      1.0  0.13142  0.49364  0.54854  1.0000
  H   H475      1.0  0.11599  0.44757  0.50990  1.0000
  S   S90       1.0  0.24696  0.65155  0.73349  1.0000
  S   S91       1.0  0.13805  0.59580  0.99023  1.0000
  H   H476      1.0  0.01552  0.49944  0.53103  1.0000
  H   H477      1.0  0.15490  0.52829  0.59722  1.0000
  H   H478      1.0  0.12597  0.52642  0.52282  1.0000
  H   H479      1.0  0.12395  0.46819  0.85816  1.0000
  H   H480      1.0  0.16310  0.48088  0.51450  1.0000
  H   H481      1.0  0.14334  0.57602  0.91038  1.0000
  S   S92       1.0  0.13864  0.40192  0.53393  1.0000
  H   H482      1.0  0.15115  0.35435  0.83441  1.0000
  C   C286      1.0  0.13935  0.59302  0.77059  1.0000
  C   C287      1.0  0.14163  0.33946  0.78051  1.0000
  H   H483      1.0  0.03211  0.36449  0.55223  1.0000
  H   H484      1.0  0.04118  0.47148  0.54161  1.0000
  H   H485      1.0  0.14809  0.46200  0.87991  1.0000
  C   C288      1.0  0.02403  0.46517  0.54270  1.0000
  H   H486      1.0  0.13545  0.48993  0.87972  1.0000
  Fe  Fe45      1.0  0.08104  0.37652  0.51457  1.0000
  H   H487      1.0  0.18372  0.55686  0.56672  1.0000
  H   H488      1.0  0.23053  0.46988  0.85081  1.0000
  H   H489      1.0  0.16085  0.47780  0.97784  1.0000
  S   S93       1.0  0.27685  0.34168  0.74750  1.0000
  C   C289      1.0  0.10010  0.59551  0.75251  1.0000
  H   H490      1.0  0.07779  0.48198  0.94191  1.0000
  N   N22       1.0  0.17381  0.42621  0.66199  1.0000
  C   C290      1.0  0.16057  0.43244  0.68881  1.0000
  C   C291      1.0  0.18383  0.44723  0.65119  1.0000
  C   C292      1.0  0.19224  0.41011  0.67156  1.0000
  C   C293      1.0  0.15850  0.41565  0.63979  1.0000
  C   C294      1.0  0.15080  0.41305  0.70579  1.0000
  C   C295      1.0  0.16702  0.46605  0.64235  1.0000
  C   C296      1.0  0.20840  0.40182  0.64783  1.0000
  C   C297      1.0  0.16541  0.41595  0.60727  1.0000
  H   H491      1.0  0.17085  0.44193  0.70474  1.0000
  H   H492      1.0  0.14616  0.44367  0.68291  1.0000
  H   H493      1.0  0.19466  0.44421  0.63221  1.0000
  H   H494      1.0  0.19515  0.45410  0.66836  1.0000
  H   H495      1.0  0.20237  0.41754  0.68954  1.0000
  H   H496      1.0  0.18541  0.39476  0.68073  1.0000
  H   H497      1.0  0.15597  0.39803  0.64568  1.0000
  H   H498      1.0  0.14165  0.42387  0.64039  1.0000
  H   H499      1.0  0.13916  0.41986  0.72243  1.0000
  H   H500      1.0  0.14137  0.40172  0.69143  1.0000
  H   H501      1.0  0.16393  0.40349  0.71807  1.0000
  H   H502      1.0  0.15356  0.46014  0.62772  1.0000
  H   H503      1.0  0.15970  0.47422  0.66194  1.0000
  H   H504      1.0  0.17584  0.47907  0.63044  1.0000
  H   H505      1.0  0.22131  0.39071  0.65827  1.0000
  H   H506      1.0  0.21734  0.41541  0.63750  1.0000
  H   H507      1.0  0.19992  0.39154  0.63114  1.0000
  H   H508      1.0  0.16194  0.39955  0.59719  1.0000
  H   H509      1.0  0.18309  0.41882  0.60332  1.0000
  H   H510      1.0  0.15492  0.42823  0.59470  1.0000
  H   H511      1.0  0.09601  0.33050  0.82029  1.0000
  C   C298      1.0  0.14574  0.53299  0.57661  1.0000
  H   H512      1.0  0.13222  0.57200  0.80871  1.0000
  H   H513      1.0  0.15303  0.56106  0.78513  1.0000
  H   H514      1.0  0.14487  0.45429  0.98865  1.0000
  C   C299      1.0  0.12073  0.53080  0.58253  1.0000
  C   C300      1.0  0.09001  0.62966  0.79911  1.0000
  H   H515      1.0  0.32521  0.33248  0.81818  1.0000
  H   H516      1.0  0.04269  0.44032  0.58931  1.0000
  H   H517      1.0  0.14820  0.55099  0.57382  1.0000
  H   H518      1.0  0.10776  0.35522  0.78223  1.0000
  H   H519      1.0  0.05628  0.41414  0.58353  1.0000
  H   H520      1.0  0.15236  0.60160  0.78345  1.0000
  H   H521      1.0  0.14451  0.54793  0.52304  1.0000
  C   C301      1.0  0.01144  0.59336  0.99743  1.0000
  H   H522      1.0  0.11644  0.51354  0.58790  1.0000
  H   H523      1.0  0.11632  0.54129  0.60179  1.0000
  H   H524      1.0  0.11019  0.53703  0.56402  1.0000
  H   H525      1.0  0.35216  0.34325  0.81225  1.0000
  Fe  Fe46      1.0  0.07393  0.58932  0.99728  1.0000
  C   C302      1.0  0.00778  0.48295  0.52956  1.0000
  C   C303      1.0  0.00894  0.61480  0.98582  1.0000
  N   N23       1.0  0.12449  0.47123  0.93500  1.0000
  C   C304      1.0  0.14654  0.45910  0.94058  1.0000
  C   C305      1.0  0.11684  0.46532  0.90440  1.0000
  C   C306      1.0  0.10821  0.46318  0.95711  1.0000
  C   C307      1.0  0.12805  0.49576  0.93877  1.0000
  C   C308      1.0  0.15623  0.46064  0.97205  1.0000
  C   C309      1.0  0.13223  0.47192  0.87947  1.0000
  C   C310      1.0  0.08326  0.46515  0.94902  1.0000
  C   C311      1.0  0.10813  0.51177  0.93211  1.0000
  H   H526      1.0  0.14533  0.44109  0.93530  1.0000
  H   H527      1.0  0.15958  0.46536  0.92611  1.0000
  H   H528      1.0  0.10024  0.47280  0.89899  1.0000
  H   H529      1.0  0.11462  0.44706  0.90263  1.0000
  H   H530      1.0  0.11146  0.44526  0.96209  1.0000
  H   H531      1.0  0.11036  0.47205  0.97820  1.0000
  H   H532      1.0  0.13290  0.49947  0.96180  1.0000
  H   H533      1.0  0.14257  0.50129  0.92632  1.0000
  H   H534      1.0  0.10709  0.59931  0.81085  1.0000
  C   C312      1.0  0.08357  0.50345  0.52187  1.0000
  H   H535      1.0  0.28919  0.63397  0.75985  1.0000
  C   C313      1.0  0.10555  0.58597  0.72198  1.0000
  H   H536      1.0  0.10939  0.59931  0.70635  1.0000
  C   C314      1.0  0.11098  0.61420  0.79783  1.0000
  H   H537      1.0  0.14320  0.65765  0.74947  1.0000
  H   H538      1.0  0.09429  0.58175  0.76632  1.0000
  C   C315      1.0  0.31068  0.66213  0.76349  1.0000
  H   H539      1.0  0.05812  0.43579  0.53908  1.0000
  C   C316      1.0  0.17546  0.34957  0.62689  1.0000
  H   H540      1.0  0.08788  0.64070  0.77990  1.0000
  H   H541      1.0  0.02075  0.46516  0.56659  1.0000
  S   S94       1.0  0.08939  0.62217  0.98870  1.0000
  C   C317      1.0  0.12399  0.62766  0.74970  1.0000
  H   H542      1.0  0.40194  0.33346  0.86779  1.0000
  H   H543      1.0  0.12447  0.62187  0.81081  1.0000
  C   C318      1.0  0.14903  0.49598  0.55490  1.0000
  H   H544      1.0  0.00411  0.48055  0.50601  1.0000
  H   H545      1.0  0.07353  0.46126  0.96871  1.0000
  H   H546      1.0  0.18010  0.47652  0.54729  1.0000
  C   C319      1.0  0.17969  0.52225  0.55151  1.0000
  S   S95       1.0  0.02571  0.60301  0.51455  1.0000
  Fe  Fe47      1.0  0.11934  0.56515  0.99898  1.0000
  H   H547      1.0  0.15046  0.49123  0.57845  1.0000
  H   H548      1.0  0.04307  0.41140  0.53308  1.0000
  C   C320      1.0  0.12504  0.35948  0.77773  1.0000
  H   H549      1.0  0.13367  0.62258  0.73007  1.0000
  H   H550      1.0  0.14693  0.58981  0.74888  1.0000
  N   N24       1.0  0.11855  0.60760  0.76766  1.0000
  Fe  Fe48      1.0  0.10979  0.58912  0.51667  1.0000
  C   C321      1.0  0.38604  0.33018  0.85611  1.0000
  H   H551      1.0  0.02674  0.41542  0.58362  1.0000
  C   C322      1.0  0.29060  0.65163  0.75635  1.0000
  H   H552      1.0  0.13367  0.34344  0.88136  1.0000
  C   C323      1.0  0.13753  0.64547  0.76572  1.0000
  C   C324      1.0  0.17856  0.35051  0.65754  1.0000
  H   H553      1.0  0.18139  0.55397  0.52727  1.0000
  H   H554      1.0  0.18959  0.34620  0.61306  1.0000
  C   C325      1.0  0.14406  0.52946  0.52332  1.0000
  S   S96       1.0  0.10250  0.36584  0.00071  1.0000
  H   H555      1.0  0.39125  0.33361  0.81014  1.0000
  H   H556      1.0  0.12235  0.35151  0.83272  1.0000
  H   H557      1.0  0.15526  0.46172  0.54156  1.0000
  C   C326      1.0  0.02055  0.37236  0.50853  1.0000
  H   H558      1.0  0.99718  0.43581  0.56182  1.0000
  H   H559      1.0  0.29247  0.66068  0.65723  1.0000
  C   C327      1.0  0.13865  0.33072  0.86481  1.0000
  H   H560      1.0  0.00081  0.44467  0.00311  1.0000
  C   C328      1.0  0.99622  0.36828  0.55009  1.0000
  H   H561      1.0  0.35897  0.66224  0.70354  1.0000
  H   H562      1.0  0.32874  0.66293  0.66755  1.0000
  H   H563      1.0  0.47571  0.84139  0.15117  1.0000
  S   S97       1.0  0.40897  0.87582  0.47104  1.0000
  C   C329      1.0  0.32658  0.78121  0.39645  1.0000
  Fe  Fe49      1.0  0.37528  0.84734  0.03158  1.0000
  H   H564      1.0  0.30989  0.77690  0.40395  1.0000
  S   S98       1.0  0.35571  0.82199  0.05665  1.0000
  Fe  Fe50      1.0  0.37680  0.85817  0.47447  1.0000
  S   S99       1.0  0.35749  0.84771  0.43341  1.0000
  C   C330      1.0  0.27095  0.67778  0.25965  1.0000
  H   H565      1.0  0.06855  0.67756  0.46240  1.0000
  H   H566      1.0  0.35779  0.76729  0.38375  1.0000
  S   S100      1.0  0.39734  0.87152  0.05394  1.0000
  Fe  Fe51      1.0  0.36956  0.78478  0.22405  1.0000
  S   S101      1.0  0.36984  0.74894  0.21009  1.0000
  S   S102      1.0  0.36222  0.81525  0.19581  1.0000
  Fe  Fe52      1.0  0.38292  0.77367  0.28785  1.0000
  S   S103      1.0  0.38415  0.73693  0.27791  1.0000
  S   S104      1.0  0.39590  0.78329  0.33343  1.0000
  Fe  Fe53      1.0  0.40180  0.74656  0.23698  1.0000
  S   S105      1.0  0.43223  0.72759  0.21995  1.0000
  Fe  Fe54      1.0  0.35201  0.74242  0.25235  1.0000
  S   S106      1.0  0.31943  0.72431  0.26186  1.0000
  S   S107      1.0  0.40242  0.78262  0.24825  1.0000
  S   S108      1.0  0.34991  0.77894  0.26471  1.0000
  C   C331      1.0  0.37070  0.96486  0.49160  1.0000
  C   C332      1.0  0.49069  0.97052  0.48832  1.0000
  C   C333      1.0  0.30431  0.69982  0.25283  1.0000
  C   C334      1.0  0.31168  0.68403  0.23223  1.0000
  C   C335      1.0  0.36070  0.98634  0.48854  1.0000
  H   H567      1.0  0.49555  0.95313  0.49435  1.0000
  H   H568      1.0  0.03331  0.67962  0.43922  1.0000
  C   C336      1.0  0.28383  0.69647  0.26643  1.0000
  H   H569      1.0  0.05214  0.67276  0.41142  1.0000
  C   C337      1.0  0.42249  0.80387  0.09001  1.0000
  C   C338      1.0  0.48065  0.90785  0.03433  1.0000
  H   H570      1.0  0.27776  0.70849  0.28230  1.0000
  C   C339      1.0  0.47079  0.75249  0.22893  1.0000
  C   C340      1.0  0.46109  0.73289  0.21870  1.0000
  C   C341      1.0  0.47479  0.71621  0.20650  1.0000
  C   C342      1.0  0.37346  0.73010  0.35976  1.0000
  H   H571      1.0  0.46035  0.76558  0.23822  1.0000
  H   H572      1.0  0.46758  0.70109  0.19841  1.0000
  N   N25       1.0  0.33321  0.74662  0.36293  1.0000
  H   H573      1.0  0.32733  0.68617  0.22152  1.0000
  H   H574      1.0  0.25530  0.67560  0.27039  1.0000
  H   H575      1.0  0.30059  0.73131  0.32276  1.0000
  H   H576      1.0  0.46829  0.72981  0.29334  1.0000
  H   H577      1.0  0.46632  0.84658  0.44864  1.0000
  C   C343      1.0  0.36886  0.83052  0.40529  1.0000
  C   C344      1.0  0.38884  0.81832  0.40936  1.0000
  C   C345      1.0  0.39688  0.80412  0.38701  1.0000
  C   C346      1.0  0.38520  0.80208  0.36024  1.0000
  C   C347      1.0  0.36535  0.81445  0.35598  1.0000
  C   C348      1.0  0.35719  0.82851  0.37847  1.0000
  H   H578      1.0  0.39796  0.81964  0.42988  1.0000
  H   H579      1.0  0.41224  0.79462  0.39056  1.0000
  H   H580      1.0  0.35631  0.81325  0.33541  1.0000
  H   H581      1.0  0.34176  0.83795  0.37507  1.0000
  C   C349      1.0  0.35980  0.81639  0.15713  1.0000
  C   C350      1.0  0.35915  0.79725  0.13968  1.0000
  C   C351      1.0  0.35752  0.79915  0.10890  1.0000
  C   C352      1.0  0.35741  0.82012  0.09533  1.0000
  C   C353      1.0  0.35814  0.83919  0.11286  1.0000
  C   C354      1.0  0.35887  0.83731  0.14358  1.0000
  H   H582      1.0  0.36003  0.78108  0.14986  1.0000
  H   H583      1.0  0.35688  0.78433  0.09547  1.0000
  H   H584      1.0  0.35766  0.85542  0.10272  1.0000
  H   H585      1.0  0.35890  0.85219  0.15693  1.0000
  C   C355      1.0  0.44428  0.97422  0.01091  1.0000
  C   C356      1.0  0.04397  0.66576  0.43091  1.0000
  H   H586      1.0  0.38543  0.97338  0.06186  1.0000
  H   H587      1.0  0.44082  0.85400  0.10292  1.0000
  H   H588      1.0  0.42895  0.78843  0.10068  1.0000
  H   H589      1.0  0.35038  0.76812  0.33366  1.0000
  H   H590      1.0  0.34609  0.71526  0.38090  1.0000
  N   N26       1.0  0.29075  0.74896  0.17522  1.0000
  C   C357      1.0  0.31101  0.73383  0.17949  1.0000
  C   C358      1.0  0.27675  0.74741  0.20222  1.0000
  C   C359      1.0  0.29707  0.77276  0.17119  1.0000
  C   C360      1.0  0.27828  0.74175  0.14812  1.0000
  C   C361      1.0  0.32830  0.73401  0.15498  1.0000
  C   C362      1.0  0.26329  0.72616  0.20486  1.0000
  C   C363      1.0  0.31209  0.78232  0.19548  1.0000
  C   C364      1.0  0.25643  0.75502  0.14099  1.0000
  H   H591      1.0  0.31984  0.73766  0.20042  1.0000
  H   H592      1.0  0.30617  0.71626  0.18175  1.0000
  H   H593      1.0  0.26488  0.76188  0.20417  1.0000
  H   H594      1.0  0.28731  0.74829  0.22245  1.0000
  H   H595      1.0  0.30541  0.77509  0.14990  1.0000
  H   H596      1.0  0.28196  0.78392  0.16994  1.0000
  H   H597      1.0  0.28867  0.74348  0.12842  1.0000
  H   H598      1.0  0.27490  0.72367  0.14855  1.0000
  H   H599      1.0  0.33463  0.75078  0.15119  1.0000
  H   H600      1.0  0.34284  0.72322  0.16166  1.0000
  H   H601      1.0  0.32180  0.72700  0.13417  1.0000
  H   H602      1.0  0.25577  0.72576  0.22689  1.0000
  H   H603      1.0  0.24941  0.72585  0.18860  1.0000
  H   H604      1.0  0.27379  0.71081  0.20262  1.0000
  H   H605      1.0  0.32894  0.77442  0.19537  1.0000
  H   H606      1.0  0.30489  0.78089  0.21753  1.0000
  H   H607      1.0  0.31417  0.80030  0.19131  1.0000
  H   H608      1.0  0.25952  0.76892  0.12579  1.0000
  H   H609      1.0  0.24815  0.76203  0.16055  1.0000
  H   H610      1.0  0.24431  0.74382  0.13051  1.0000
  C   C365      1.0  0.46629  0.89030  0.03791  1.0000
  H   H611      1.0  0.34427  0.71578  0.34196  1.0000
  H   H612      1.0  0.34406  0.98818  0.47940  1.0000
  H   H613      1.0  0.33583  0.74700  0.31572  1.0000
  H   H614      1.0  0.40838  0.79916  0.07547  1.0000
  C   C366      1.0  0.31545  0.77576  0.32635  1.0000
  H   H615      1.0  0.03214  0.66525  0.08121  1.0000
  H   H616      1.0  0.42954  0.84829  0.17485  1.0000
  H   H617      1.0  0.42108  0.88102  0.15041  1.0000
  C   C367      1.0  0.41385  0.82133  0.11222  1.0000
  H   H618      1.0  0.45241  0.80016  0.13694  1.0000
  H   H619      1.0  0.41471  0.78576  0.15011  1.0000
  H   H620      1.0  0.30315  0.77922  0.34350  1.0000
  H   H621      1.0  0.40802  0.86804  0.11905  1.0000
  C   C368      1.0  0.49254  0.75349  0.30781  1.0000
  C   C369      1.0  0.41860  0.84482  0.15558  1.0000
  H   H622      1.0  0.42765  0.97940  0.01916  1.0000
  C   C370      1.0  0.99682  0.67018  0.40452  1.0000
  C   C371      1.0  0.47496  0.86884  0.04318  1.0000
  H   H623      1.0  0.48499  0.88839  0.42050  1.0000
  C   C372      1.0  0.38326  0.95831  0.01904  1.0000
  H   H624      1.0  0.43520  0.81060  0.07554  1.0000
  C   C373      1.0  0.41014  0.86752  0.14312  1.0000
  H   H625      1.0  0.39361  0.87188  0.15236  1.0000
  S   S109      1.0  0.45740  0.84640  0.04371  1.0000
  H   H626      1.0  0.44853  0.89336  0.03614  1.0000
  H   H627      1.0  0.38247  0.71400  0.35576  1.0000
  H   H628      1.0  0.30859  0.70704  0.34417  1.0000
  N   N27       1.0  0.43055  0.82954  0.13434  1.0000
  H   H629      1.0  0.43322  0.94036  0.00685  1.0000
  C   C374      1.0  0.42527  0.79465  0.16613  1.0000
  H   H630      1.0  0.00383  0.68608  0.41182  1.0000
  C   C375      1.0  0.46597  0.86079  0.43321  1.0000
  H   H631      1.0  0.47696  0.86207  0.12334  1.0000
  H   H632      1.0  0.47394  0.92429  0.02934  1.0000
  H   H633      1.0  0.32245  0.79200  0.32070  1.0000
  H   H634      1.0  0.05807  0.66666  0.11542  1.0000
  H   H635      1.0  0.46100  0.85518  0.41098  1.0000
  H   H636      1.0  0.45801  0.82969  0.10438  1.0000
  C   C376      1.0  0.46548  0.85331  0.13781  1.0000
  H   H637      1.0  0.40645  0.83522  0.09900  1.0000
  C   C377      1.0  0.34836  0.72609  0.36151  1.0000
  C   C378      1.0  0.31020  0.73871  0.36877  1.0000
  C   C379      1.0  0.34114  0.76069  0.38824  1.0000
  C   C380      1.0  0.30017  0.72370  0.34478  1.0000
  H   H638      1.0  0.45265  0.87252  0.44080  1.0000
  H   H639      1.0  0.45569  0.96451  0.49455  1.0000
  H   H640      1.0  0.29801  0.75256  0.37219  1.0000
  H   H641      1.0  0.31016  0.72934  0.38978  1.0000
  H   H642      1.0  0.34324  0.75041  0.40841  1.0000
  H   H643      1.0  0.28247  0.72100  0.34967  1.0000
  H   H644      1.0  0.37726  0.74113  0.34138  1.0000
  H   H645      1.0  0.32537  0.79350  0.37852  1.0000
  H   H646      1.0  0.33473  0.78986  0.41513  1.0000
  H   H647      1.0  0.48849  0.71786  0.31803  1.0000
  Fe  Fe55      1.0  0.38912  0.89485  0.01625  1.0000
  H   H648      1.0  0.45230  0.81669  0.16902  1.0000
  H   H649      1.0  0.38031  0.73692  0.38051  1.0000
  C   C381      1.0  0.48622  0.72966  0.29961  1.0000
  H   H650      1.0  0.43513  0.78169  0.17842  1.0000
  H   H651      1.0  0.41455  0.80342  0.18228  1.0000
  Fe  Fe56      1.0  0.42393  0.85728  0.02543  1.0000
  C   C382      1.0  0.48811  0.87300  0.43353  1.0000
  H   H652      1.0  0.00503  0.66900  0.46271  1.0000
  C   C383      1.0  0.33466  0.75896  0.33435  1.0000
  C   C384      1.0  0.29878  0.66534  0.22544  1.0000
  H   H653      1.0  0.39964  0.81414  0.12341  1.0000
  H   H654      1.0  0.45777  0.86615  0.15215  1.0000
  H   H655      1.0  0.48039  0.75982  0.32429  1.0000
  C   C385      1.0  0.38374  0.97648  0.03860  1.0000
  H   H656      1.0  0.40395  0.83663  0.16472  1.0000
  C   C386      1.0  0.44131  0.81043  0.15121  1.0000
  C   C387      1.0  0.49415  0.75499  0.22709  1.0000
  H   H657      1.0  0.30647  0.77006  0.30636  1.0000
  C   C388      1.0  0.44828  0.84148  0.11839  1.0000
  S   S110      1.0  0.38602  0.93084  0.03347  1.0000
  H   H658      1.0  0.48725  0.96972  0.46432  1.0000
  H   H659      1.0  0.49112  0.84396  0.38656  1.0000
  H   H660      1.0  0.06392  0.66711  0.06173  1.0000
  H   H661      1.0  0.45411  0.96931  0.03085  1.0000
  H   H662      1.0  0.36182  0.95039  0.48460  1.0000
  H   H663      1.0  0.49511  0.79922  0.29484  1.0000
  S   S111      1.0  0.40276  0.83154  0.00534  1.0000
  H   H664      1.0  0.48782  0.77328  0.12849  1.0000
  H   H665      1.0  0.48898  0.76330  0.28767  1.0000
  H   H666      1.0  0.49098  0.87870  0.45647  1.0000
  C   C389      1.0  0.39231  0.96227  0.50316  1.0000
  H   H667      1.0  0.46195  0.99328  0.49736  1.0000
  H   H668      1.0  0.00080  0.66586  0.04929  1.0000
  H   H669      1.0  0.48801  0.96028  0.01230  1.0000
  C   C390      1.0  0.46825  0.97625  0.50278  1.0000
  H   H670      1.0  0.49526  0.72359  0.28002  1.0000
  H   H671      1.0  0.49589  0.74989  0.15046  1.0000
  C   C391      1.0  0.28897  0.67628  0.64488  1.0000
  S   S112      1.0  0.41777  0.88189  0.98937  1.0000
  H   H672      1.0  0.32883  0.91308  0.58545  1.0000
  Fe  Fe57      1.0  0.37669  0.86130  0.54161  1.0000
  C   C392      1.0  0.36804  0.91562  0.61580  1.0000
  S   S113      1.0  0.36241  0.85805  0.58728  1.0000
  Fe  Fe58      1.0  0.39427  0.85674  0.97050  1.0000
  S   S114      1.0  0.40290  0.84536  0.92384  1.0000
  H   H673      1.0  0.41036  0.83014  0.66049  1.0000
  N   N28       1.0  0.35930  0.93102  0.59195  1.0000
  H   H674      1.0  0.37482  0.75881  0.89329  1.0000
  S   S115      1.0  0.40867  0.87913  0.54254  1.0000
  Fe  Fe59      1.0  0.36805  0.76647  0.71433  1.0000
  S   S116      1.0  0.38221  0.73216  0.72368  1.0000
  S   S117      1.0  0.36383  0.77013  0.66480  1.0000
  Fe  Fe60      1.0  0.36630  0.77739  0.77986  1.0000
  S   S118      1.0  0.38039  0.74369  0.79265  1.0000
  S   S119      1.0  0.35253  0.80142  0.81452  1.0000
  Fe  Fe61      1.0  0.40447  0.74883  0.75625  1.0000
  S   S120      1.0  0.44051  0.73613  0.75880  1.0000
  Fe  Fe62      1.0  0.35672  0.72996  0.75873  1.0000
  S   S121      1.0  0.33935  0.69702  0.76697  1.0000
  S   S122      1.0  0.39185  0.78342  0.74517  1.0000
  S   S123      1.0  0.34115  0.76334  0.74778  1.0000
  H   H675      1.0  0.35874  0.89772  0.65480  1.0000
  C   C393      1.0  0.35032  0.90606  0.63578  1.0000
  C   C394      1.0  0.31310  0.68505  0.75877  1.0000
  C   C395      1.0  0.29489  0.69743  0.74729  1.0000
  C   C396      1.0  0.27483  0.68691  0.74012  1.0000
  C   C397      1.0  0.34686  0.95132  0.60350  1.0000
  H   H676      1.0  0.38043  0.94887  0.97371  1.0000
  H   H677      1.0  0.33245  0.68316  0.62421  1.0000
  H   H678      1.0  0.29621  0.71509  0.74391  1.0000
  H   H679      1.0  0.26094  0.69667  0.73113  1.0000
  C   C398      1.0  0.37897  0.98473  0.97886  1.0000
  H   H680      1.0  0.37411  0.95861  0.63642  1.0000
  H   H681      1.0  0.43525  0.98860  0.95548  1.0000
  C   C399      1.0  0.46443  0.75127  0.75082  1.0000
  C   C400      1.0  0.46310  0.77394  0.74423  1.0000
  H   H682      1.0  0.43433  0.81636  0.62525  1.0000
  C   C401      1.0  0.38094  0.96260  0.98904  1.0000
  H   H683      1.0  0.44727  0.78287  0.74534  1.0000
  C   C402      1.0  0.46013  0.78473  0.65882  1.0000
  C   C403      1.0  0.49386  0.97528  0.00127  1.0000
  C   C404      1.0  0.48235  0.78506  0.73641  1.0000
  H   H684      1.0  0.48095  0.88517  0.97545  1.0000
  S   S124      1.0  0.36466  0.87126  0.99521  1.0000
  C   C405      1.0  0.29704  0.69680  0.66181  1.0000
  C   C406      1.0  0.38827  0.83153  0.89518  1.0000
  C   C407      1.0  0.36507  0.83244  0.89261  1.0000
  C   C408      1.0  0.35442  0.82303  0.86791  1.0000
  C   C409      1.0  0.36675  0.81215  0.84583  1.0000
  C   C410      1.0  0.38989  0.81057  0.84890  1.0000
  C   C411      1.0  0.40056  0.82046  0.87321  1.0000
  H   H685      1.0  0.35540  0.84112  0.90908  1.0000
  H   H686      1.0  0.33654  0.82459  0.86571  1.0000
  H   H687      1.0  0.39964  0.80232  0.83214  1.0000
  H   H688      1.0  0.41850  0.81972  0.87484  1.0000
  C   C412      1.0  0.36445  0.79489  0.64397  1.0000
  C   C413      1.0  0.36653  0.79325  0.61341  1.0000
  C   C414      1.0  0.36683  0.81245  0.59588  1.0000
  C   C415      1.0  0.36438  0.83351  0.60869  1.0000
  C   C416      1.0  0.36233  0.83515  0.63929  1.0000
  C   C417      1.0  0.36266  0.81595  0.65691  1.0000
  H   H689      1.0  0.36784  0.77703  0.60317  1.0000
  H   H690      1.0  0.36821  0.81094  0.57235  1.0000
  H   H691      1.0  0.36027  0.85134  0.64940  1.0000
  H   H692      1.0  0.36093  0.81745  0.68039  1.0000
  C   C418      1.0  0.42673  0.76366  0.65044  1.0000
  H   H693      1.0  0.35421  0.74060  0.90606  1.0000
  H   H694      1.0  0.46770  0.81827  0.64204  1.0000
  H   H695      1.0  0.43837  0.83167  0.67532  1.0000
  C   C419      1.0  0.49577  0.85416  0.51955  1.0000
  H   H696      1.0  0.46925  0.97419  0.52690  1.0000
  C   C420      1.0  0.47889  0.86773  0.91803  1.0000
  H   H697      1.0  0.29599  0.67503  0.62265  1.0000
  H   H698      1.0  0.42016  0.75712  0.69730  1.0000
  H   H699      1.0  0.27060  0.67777  0.64217  1.0000
  H   H700      1.0  0.47658  0.85257  0.90444  1.0000
  H   H701      1.0  0.43615  0.79982  0.57801  1.0000
  H   H702      1.0  0.38590  0.92241  0.56241  1.0000
  H   H703      1.0  0.43554  0.75391  0.63320  1.0000
  H   H704      1.0  0.33872  0.91906  0.64439  1.0000
  H   H705      1.0  0.33515  0.73359  0.62041  1.0000
  H   H706      1.0  0.34643  0.95805  0.65089  1.0000
  C   C421      1.0  0.44031  0.78868  0.59684  1.0000
  C   C422      1.0  0.47320  0.80628  0.65911  1.0000
  H   H707      1.0  0.28918  0.71149  0.65082  1.0000
  H   H708      1.0  0.43170  0.79344  0.69945  1.0000
  N   N29       1.0  0.45462  0.99327  0.99531  1.0000
  H   H709      1.0  0.29567  0.73766  0.68881  1.0000
  H   H710      1.0  0.30813  0.72181  0.61442  1.0000
  C   C423      1.0  0.46603  0.88169  0.51202  1.0000
  S   S125      1.0  0.45387  0.83842  0.51395  1.0000
  H   H711      1.0  0.35856  0.69159  0.70701  1.0000
  H   H712      1.0  0.45526  0.89171  0.93895  1.0000
  H   H713      1.0  0.30540  0.71281  0.81445  1.0000
  H   H714      1.0  0.48114  0.80255  0.73116  1.0000
  C   C424      1.0  0.42376  0.79837  0.67820  1.0000
  C   C425      1.0  0.33431  0.92963  0.54510  1.0000
  C   C426      1.0  0.37825  0.93747  0.57298  1.0000
  H   H715      1.0  0.44627  0.74522  0.68469  1.0000
  C   C427      1.0  0.48785  0.84335  0.95970  1.0000
  S   S126      1.0  0.40608  0.93584  0.50765  1.0000
  C   C428      1.0  0.35509  0.67793  0.69147  1.0000
  H   H716      1.0  0.41034  0.95244  0.57138  1.0000
  C   C429      1.0  0.39719  0.95015  0.58778  1.0000
  H   H717      1.0  0.41526  0.82995  0.69906  1.0000
  C   C430      1.0  0.32734  0.71879  0.68353  1.0000
  H   H718      1.0  0.48747  0.88086  0.63528  1.0000
  H   H719      1.0  0.49431  0.86976  0.60036  1.0000
  H   H720      1.0  0.48652  0.72258  0.75583  1.0000
  H   H721      1.0  0.46356  0.77704  0.68058  1.0000
  H   H722      1.0  0.46839  0.77272  0.64355  1.0000
  H   H723      1.0  0.45867  0.78737  0.59867  1.0000
  H   H724      1.0  0.40625  0.79308  0.67948  1.0000
  C   C431      1.0  0.42874  0.74931  0.67843  1.0000
  H   H725      1.0  0.37751  0.90125  0.60606  1.0000
  H   H726      1.0  0.43350  0.77230  0.59115  1.0000
  H   H727      1.0  0.37220  0.94847  0.55487  1.0000
  H   H728      1.0  0.49085  0.80205  0.65420  1.0000
  H   H729      1.0  0.34076  0.89310  0.62430  1.0000
  C   C432      1.0  0.42213  0.82400  0.67788  1.0000
  H   H730      1.0  0.42912  0.95574  0.97400  1.0000
  H   H731      1.0  0.41141  0.79939  0.62096  1.0000
  H   H732      1.0  0.32126  0.69036  0.82988  1.0000
  H   H733      1.0  0.35179  0.90198  0.56574  1.0000
  H   H734      1.0  0.35152  0.70114  0.63969  1.0000
  C   C433      1.0  0.34360  0.91790  0.57295  1.0000
  H   H735      1.0  0.42068  0.73325  0.67423  1.0000
  H   H736      1.0  0.34537  0.96438  0.58628  1.0000
  H   H737      1.0  0.47257  0.84784  0.97216  1.0000
  N   N30       1.0  0.32536  0.74490  0.85710  1.0000
  C   C434      1.0  0.33257  0.72253  0.84466  1.0000
  C   C435      1.0  0.34618  0.75736  0.86380  1.0000
  C   C436      1.0  0.31212  0.75710  0.83346  1.0000
  C   C437      1.0  0.31151  0.74129  0.88381  1.0000
  C   C438      1.0  0.31381  0.70705  0.83498  1.0000
  C   C439      1.0  0.36253  0.74641  0.88622  1.0000
  C   C440      1.0  0.30196  0.78005  0.84163  1.0000
  C   C441      1.0  0.30996  0.76052  0.90645  1.0000
  H   H738      1.0  0.34338  0.72459  0.82537  1.0000
  H   H739      1.0  0.34280  0.71282  0.86092  1.0000
  H   H740      1.0  0.34255  0.77450  0.87160  1.0000
  H   H741      1.0  0.35568  0.75971  0.84344  1.0000
  H   H742      1.0  0.32255  0.75934  0.81380  1.0000
  H   H743      1.0  0.29773  0.74742  0.82591  1.0000
  H   H744      1.0  0.29424  0.73724  0.87709  1.0000
  H   H745      1.0  0.31824  0.72654  0.89616  1.0000
  H   H746      1.0  0.40525  0.94096  0.60624  1.0000
  H   H747      1.0  0.39152  0.96710  0.59449  1.0000
  H   H748      1.0  0.40887  0.76430  0.64359  1.0000
  H   H749      1.0  0.28846  0.77861  0.85765  1.0000
  H   H750      1.0  0.47270  0.97413  0.96254  1.0000
  H   H751      1.0  0.32949  0.94709  0.60866  1.0000
  H   H752      1.0  0.31444  0.79173  0.84977  1.0000
  C   C442      1.0  0.35637  0.96232  0.63156  1.0000
  H   H753      1.0  0.29435  0.78775  0.82162  1.0000
  H   H754      1.0  0.29286  0.76155  0.91523  1.0000
  H   H755      1.0  0.31330  0.77722  0.89803  1.0000
  H   H756      1.0  0.32102  0.75694  0.92570  1.0000
  N   N31       1.0  0.43543  0.78685  0.65298  1.0000
  C   C443      1.0  0.42973  0.79871  0.62464  1.0000
  H   H757      1.0  0.37215  0.73238  0.87616  1.0000
  H   H758      1.0  0.44463  0.87769  0.90748  1.0000
  H   H759      1.0  0.31980  0.75394  0.69115  1.0000
  C   C444      1.0  0.48531  0.74009  0.75057  1.0000
  C   C445      1.0  0.47314  0.85950  0.51555  1.0000
  H   H760      1.0  0.38029  0.92356  0.63040  1.0000
  H   H761      1.0  0.33026  0.71303  0.59233  1.0000
  H   H762      1.0  0.44748  0.86292  0.94100  1.0000
  H   H763      1.0  0.37698  0.98781  0.95562  1.0000
  N   N32       1.0  0.32189  0.69861  0.66523  1.0000
  C   C446      1.0  0.45539  0.87550  0.92735  1.0000
  H   H764      1.0  0.31041  0.74503  0.65619  1.0000
  C   C447      1.0  0.48153  0.89848  0.51190  1.0000
  C   C448      1.0  0.33336  0.69926  0.63619  1.0000
  H   H765      1.0  0.35453  0.98067  0.62939  1.0000
  H   H766      1.0  0.44862  0.88599  0.50884  1.0000
  H   H767      1.0  0.34722  0.93086  0.52821  1.0000
  C   C449      1.0  0.32622  0.71817  0.61507  1.0000
  H   H768      1.0  0.32655  0.71497  0.70732  1.0000
  H   H769      1.0  0.47590  0.91558  0.50872  1.0000
  H   H770      1.0  0.34474  0.72371  0.67993  1.0000
  C   C450      1.0  0.47592  0.98596  0.98080  1.0000
  H   H771      1.0  0.47264  0.81437  0.68098  1.0000
  H   H772      1.0  0.45668  0.94528  0.98490  1.0000
  S   S127      1.0  0.38870  0.83473  0.51034  1.0000
  Fe  Fe63      1.0  0.41972  0.85429  0.50901  1.0000
  C   C451      1.0  0.27250  0.66391  0.74440  1.0000
  H   H773      1.0  0.48515  0.88026  0.90263  1.0000
  C   C452      1.0  0.31229  0.73985  0.67928  1.0000
  H   H774      1.0  0.42028  0.97955  0.52096  1.0000
  H   H775      1.0  0.32107  0.91943  0.53521  1.0000
  H   H776      1.0  0.32681  0.94630  0.54973  1.0000
  S   S128      1.0  0.36198  0.88366  0.50604  1.0000
  H   H777      1.0  0.30144  0.70471  0.85226  1.0000
  C   C453      1.0  0.40366  0.98133  0.51176  1.0000
  H   H778      1.0  0.36663  0.67839  0.67288  1.0000
  C   C454      1.0  0.44084  0.95290  0.99268  1.0000
  H   H779      1.0  0.28929  0.69654  0.68376  1.0000
  C   C455      1.0  0.33049  0.67809  0.68131  1.0000
  H   H780      1.0  0.48301  0.82978  0.94444  1.0000
  H   H781      1.0  0.32047  0.67524  0.70111  1.0000
  H   H782      1.0  0.49035  0.91019  0.93180  1.0000
  Fe  Fe64      1.0  0.39520  0.89971  0.50484  1.0000
  N   N33       1.0  0.49539  0.86305  0.94265  1.0000
  Fe  Fe65      1.0  0.58181  0.12184  0.03818  1.0000
  H   H783      1.0  0.49913  0.10310  0.05778  1.0000
  S   S129      1.0  0.56997  0.13533  0.08242  1.0000
  H   H784      1.0  0.52099  0.19040  0.22614  1.0000
  S   S130      1.0  0.57149  0.10543  0.47488  1.0000
  H   H785      1.0  0.64641  0.27110  0.42697  1.0000
  Fe  Fe66      1.0  0.60407  0.12257  0.47818  1.0000
  S   S131      1.0  0.62306  0.13235  0.43765  1.0000
  N   N34       1.0  0.63503  0.22566  0.38232  1.0000
  C   C456      1.0  0.66013  0.22102  0.33700  1.0000
  C   C457      1.0  0.64623  0.24654  0.39193  1.0000
  S   S132      1.0  0.57343  0.08647  0.02716  1.0000
  Fe  Fe67      1.0  0.59091  0.20377  0.29113  1.0000
  S   S133      1.0  0.58532  0.24089  0.29080  1.0000
  S   S134      1.0  0.57802  0.18816  0.33272  1.0000
  Fe  Fe68      1.0  0.60562  0.20344  0.22697  1.0000
  S   S135      1.0  0.60105  0.24065  0.22302  1.0000
  S   S136      1.0  0.62004  0.18379  0.18825  1.0000
  Fe  Fe69      1.0  0.61799  0.24273  0.26741  1.0000
  S   S137      1.0  0.64333  0.26710  0.28728  1.0000
  Fe  Fe70      1.0  0.56902  0.23570  0.24697  1.0000
  S   S138      1.0  0.53626  0.25251  0.23213  1.0000
  S   S139      1.0  0.62445  0.20555  0.27036  1.0000
  S   S140      1.0  0.57270  0.19856  0.24813  1.0000
  H   H786      1.0  0.59770  0.28271  0.26476  1.0000
  H   H787      1.0  0.55728  0.31581  0.28300  1.0000
  H   H788      1.0  0.84333  0.31609  0.33016  1.0000
  C   C458      1.0  0.63647  0.22399  0.34936  1.0000
  H   H789      1.0  0.88567  0.31686  0.33006  1.0000
  C   C459      1.0  0.51821  0.18930  0.20211  1.0000
  C   C460      1.0  0.61927  0.99693  0.49377  1.0000
  H   H790      1.0  0.80434  0.32677  0.31661  1.0000
  C   C461      1.0  0.66220  0.28790  0.27598  1.0000
  C   C462      1.0  0.66384  0.29480  0.24685  1.0000
  H   H791      1.0  0.84580  0.29807  0.29968  1.0000
  C   C463      1.0  0.64486  0.25284  0.42462  1.0000
  H   H792      1.0  0.65383  0.28710  0.23003  1.0000
  H   H793      1.0  0.80110  0.29741  0.03784  1.0000
  C   C464      1.0  0.60992  0.14656  0.40776  1.0000
  C   C465      1.0  0.58804  0.15493  0.40935  1.0000
  C   C466      1.0  0.57847  0.16716  0.38583  1.0000
  C   C467      1.0  0.59061  0.17120  0.36049  1.0000
  C   C468      1.0  0.61241  0.16262  0.35869  1.0000
  C   C469      1.0  0.62199  0.15033  0.38224  1.0000
  H   H794      1.0  0.57860  0.15221  0.42887  1.0000
  H   H795      1.0  0.56162  0.17379  0.38747  1.0000
  H   H796      1.0  0.62190  0.16549  0.33926  1.0000
  H   H797      1.0  0.63891  0.14384  0.38080  1.0000
  C   C470      1.0  0.58395  0.15037  0.11045  1.0000
  C   C471      1.0  0.60659  0.15468  0.10928  1.0000
  C   C472      1.0  0.61731  0.16506  0.13316  1.0000
  C   C473      1.0  0.60546  0.17178  0.15819  1.0000
  C   C474      1.0  0.58270  0.16795  0.15905  1.0000
  C   C475      1.0  0.57207  0.15718  0.13541  1.0000
  H   H798      1.0  0.61592  0.14987  0.09013  1.0000
  H   H799      1.0  0.63489  0.16803  0.13223  1.0000
  H   H800      1.0  0.57343  0.17291  0.17819  1.0000
  H   H801      1.0  0.55456  0.15393  0.13658  1.0000
  C   C476      1.0  0.53649  0.31359  0.24490  1.0000
  C   C477      1.0  0.63974  0.19772  0.42585  1.0000
  C   C478      1.0  0.59970  0.29897  0.19867  1.0000
  C   C479      1.0  0.50636  0.12983  0.43252  1.0000
  H   H802      1.0  0.59504  0.32679  0.29970  1.0000
  H   H803      1.0  0.59978  0.03279  0.06624  1.0000
  H   H804      1.0  0.53302  0.18035  0.19310  1.0000
  H   H805      1.0  0.60803  0.22555  0.41369  1.0000
  C   C480      1.0  0.67576  0.29813  0.29729  1.0000
  H   H806      1.0  0.62877  0.24934  0.43453  1.0000
  H   H807      1.0  0.65180  0.11423  0.07971  1.0000
  H   H808      1.0  0.65851  0.24442  0.43747  1.0000
  H   H809      1.0  0.51712  0.03967  0.46688  1.0000
  H   H810      1.0  0.49946  0.15929  0.20289  1.0000
  H   H811      1.0  0.58687  0.29931  0.31018  1.0000
  H   H812      1.0  0.56516  0.30617  0.20288  1.0000
  C   C481      1.0  0.61071  0.22606  0.38978  1.0000
  H   H813      1.0  0.59734  0.28752  0.17978  1.0000
  C   C482      1.0  0.52298  0.02460  0.47909  1.0000
  H   H814      1.0  0.66309  0.01974  0.02220  1.0000
  H   H815      1.0  0.62704  0.11069  0.12071  1.0000
  H   H816      1.0  0.52572  0.23088  0.28727  1.0000
  Fe  Fe71      1.0  0.60656  0.08352  0.00588  1.0000
  H   H817      1.0  0.57958  0.05108  0.08229  1.0000
  C   C483      1.0  0.67866  0.31160  0.23932  1.0000
  H   H818      1.0  0.51778  0.20625  0.19267  1.0000
  H   H819      1.0  0.55708  0.28877  0.26724  1.0000
  H   H820      1.0  0.62966  0.04595  0.17292  1.0000
  C   C484      1.0  0.64689  0.20531  0.39527  1.0000
  H   H821      1.0  0.58160  0.09161  0.10484  1.0000
  H   H822      1.0  0.52740  0.03027  0.50150  1.0000
  C   C485      1.0  0.57864  0.29903  0.21728  1.0000
  H   H823      1.0  0.59841  0.08941  0.16945  1.0000
  H   H824      1.0  0.80864  0.29753  0.32027  1.0000
  H   H825      1.0  0.61478  0.30461  0.25579  1.0000
  H   H826      1.0  0.61558  0.30519  0.30687  1.0000
  H   H827      1.0  0.82960  0.30335  0.03045  1.0000
  H   H828      1.0  0.50448  0.12019  0.41203  1.0000
  C   C486      1.0  0.51033  0.23632  0.27654  1.0000
  H   H829      1.0  0.66898  0.20576  0.34511  1.0000
  H   H830      1.0  0.86079  0.30533  0.23954  1.0000
  N   N35       1.0  0.57954  0.31107  0.24633  1.0000
  C   C487      1.0  0.59878  0.30875  0.29721  1.0000
  H   H831      1.0  0.59754  0.11429  0.14728  1.0000
  C   C488      1.0  0.69237  0.32171  0.26058  1.0000
  H   H832      1.0  0.61269  0.10819  0.08658  1.0000
  C   C489      1.0  0.62839  0.02553  0.01196  1.0000
  S   S141      1.0  0.63166  0.05488  0.01299  1.0000
  C   C490      1.0  0.83816  0.31427  0.30674  1.0000
  C   C491      1.0  0.81443  0.29573  0.02138  1.0000
  H   H833      1.0  0.61002  0.07209  0.06507  1.0000
  C   C492      1.0  0.81276  0.31202  0.30665  1.0000
  H   H834      1.0  0.64645  0.06322  0.12620  1.0000
  H   H835      1.0  0.51226  0.14659  0.42706  1.0000
  C   C493      1.0  0.69076  0.31475  0.28970  1.0000
  H   H836      1.0  0.61651  0.03266  0.48786  1.0000
  H   H837      1.0  0.53324  0.30218  0.22627  1.0000
  H   H838      1.0  0.67970  0.31666  0.21670  1.0000
  H   H839      1.0  0.81809  0.27766  0.01832  1.0000
  H   H840      1.0  0.70103  0.32226  0.30643  1.0000
  H   H841      1.0  0.64632  0.08720  0.06602  1.0000
  H   H842      1.0  0.57439  0.28137  0.22064  1.0000
  C   C494      1.0  0.55809  0.30676  0.26173  1.0000
  H   H843      1.0  0.52840  0.10504  0.02076  1.0000
  H   H844      1.0  0.49739  0.17414  0.16968  1.0000
  H   H845      1.0  0.63045  0.05409  0.08145  1.0000
  S   S142      1.0  0.61618  0.11798  0.02009  1.0000
  C   C495      1.0  0.51352  0.09613  0.01578  1.0000
  C   C496      1.0  0.49688  0.09518  0.03667  1.0000
  H   H846      1.0  0.62912  0.23911  0.33859  1.0000
  H   H847      1.0  0.66516  0.20755  0.39652  1.0000
  H   H848      1.0  0.64468  0.19058  0.38082  1.0000
  H   H849      1.0  0.52220  0.31218  0.25979  1.0000
  H   H850      1.0  0.51958  0.12086  0.44555  1.0000
  C   C497      1.0  0.51085  0.24723  0.24958  1.0000
  H   H851      1.0  0.60229  0.31556  0.18918  1.0000
  H   H852      1.0  0.61476  0.29264  0.21058  1.0000
  H   H853      1.0  0.62277  0.19104  0.42508  1.0000
  C   C498      1.0  0.60891  0.01821  0.49682  1.0000
  H   H854      1.0  0.67026  0.23577  0.34125  1.0000
  H   H855      1.0  0.59773  0.03353  0.10511  1.0000
  H   H856      1.0  0.65097  0.18374  0.43326  1.0000
  H   H857      1.0  0.59530  0.24627  0.35414  1.0000
  H   H858      1.0  0.58252  0.06809  0.12741  1.0000
  H   H859      1.0  0.63389  0.08046  0.15241  1.0000
  H   H860      1.0  0.80577  0.30907  0.28443  1.0000
  H   H861      1.0  0.60290  0.21082  0.38127  1.0000
  H   H862      1.0  0.60407  0.04674  0.15396  1.0000
  H   H863      1.0  0.64045  0.26116  0.37861  1.0000
  H   H864      1.0  0.62749  0.03165  0.13821  1.0000
  H   H865      1.0  0.62664  0.20985  0.34093  1.0000
  C   C499      1.0  0.59663  0.24616  0.37833  1.0000
  H   H866      1.0  0.66431  0.24523  0.38737  1.0000
  H   H867      1.0  0.65889  0.21940  0.31281  1.0000
  H   H868      1.0  0.87761  0.31539  0.28059  1.0000
  H   H869      1.0  0.64062  0.21095  0.44261  1.0000
  H   H870      1.0  0.66053  0.09074  0.10106  1.0000
  H   H871      1.0  0.60295  0.26215  0.38649  1.0000
  H   H872      1.0  0.57263  0.10095  0.15552  1.0000
  H   H873      1.0  0.57941  0.24487  0.38635  1.0000
  C   C500      1.0  0.59829  0.30115  0.26486  1.0000
  C   C501      1.0  0.84283  0.30952  0.24149  1.0000
  N   N36       1.0  0.61485  0.07767  0.11162  1.0000
  C   C502      1.0  0.62448  0.09924  0.10187  1.0000
  C   C503      1.0  0.59176  0.08317  0.12242  1.0000
  C   C504      1.0  0.61393  0.06237  0.08529  1.0000
  C   C505      1.0  0.62991  0.06790  0.13526  1.0000
  C   C506      1.0  0.64707  0.09732  0.08635  1.0000
  C   C507      1.0  0.59040  0.09778  0.15024  1.0000
  C   C508      1.0  0.59672  0.04397  0.08529  1.0000
  C   C509      1.0  0.62217  0.04681  0.15052  1.0000
  H   H874      1.0  0.67477  0.29309  0.31991  1.0000
  H   H875      1.0  0.83596  0.31096  0.21879  1.0000
  C   C510      1.0  0.49723  0.17639  0.19391  1.0000
  C   C511      1.0  0.64739  0.01212  0.01762  1.0000
  H   H876      1.0  0.53814  0.01819  0.46802  1.0000
  H   H877      1.0  0.83431  0.29566  0.25190  1.0000
  H   H878      1.0  0.49968  0.00448  0.45553  1.0000
  C   C512      1.0  0.60814  0.01520  0.00604  1.0000
  C   C513      1.0  0.50423  0.00767  0.47885  1.0000
  H   H879      1.0  0.49778  0.16433  0.25199  1.0000
  Fe  Fe72      1.0  0.60536  0.12137  0.54554  1.0000
  C   C514      1.0  0.52211  0.20803  0.68885  1.0000
  S   S143      1.0  0.62239  0.12523  0.59024  1.0000
  H   H880      1.0  0.64553  0.12836  0.87607  1.0000
  S   S144      1.0  0.59439  0.09480  0.96141  1.0000
  H   H881      1.0  0.73438  0.30494  0.73268  1.0000
  Fe  Fe73      1.0  0.60089  0.12945  0.97693  1.0000
  S   S145      1.0  0.61764  0.15589  0.95038  1.0000
  H   H882      1.0  0.53864  0.20636  0.80508  1.0000
  H   H883      1.0  0.52482  0.00251  0.53182  1.0000
  H   H884      1.0  0.54260  0.17679  0.80027  1.0000
  S   S146      1.0  0.57292  0.10448  0.54659  1.0000
  Fe  Fe74      1.0  0.61426  0.20121  0.78440  1.0000
  S   S147      1.0  0.61047  0.23592  0.80184  1.0000
  S   S148      1.0  0.61036  0.16993  0.81205  1.0000
  Fe  Fe75      1.0  0.61197  0.21738  0.72037  1.0000
  S   S149      1.0  0.60716  0.25333  0.73442  1.0000
  S   S150      1.0  0.60870  0.21151  0.67093  1.0000
  Fe  Fe76      1.0  0.63478  0.24605  0.76737  1.0000
  S   S151      1.0  0.66471  0.26747  0.78109  1.0000
  Fe  Fe77      1.0  0.58341  0.24014  0.76739  1.0000
  S   S152      1.0  0.55026  0.25617  0.78133  1.0000
  S   S153      1.0  0.64052  0.21037  0.75199  1.0000
  S   S154      1.0  0.58636  0.20524  0.75107  1.0000
  C   C515      1.0  0.76287  0.29312  0.75769  1.0000
  C   C516      1.0  0.52118  0.25175  0.78290  1.0000
  C   C517      1.0  0.65123  0.06745  0.61781  1.0000
  H   H885      1.0  0.52012  0.22100  0.75866  1.0000
  H   H886      1.0  0.64226  0.09244  0.97072  1.0000
  H   H887      1.0  0.65623  0.03605  0.53176  1.0000
  C   C518      1.0  0.75212  0.30910  0.73478  1.0000
  C   C519      1.0  0.69667  0.29941  0.78769  1.0000
  C   C520      1.0  0.67797  0.29269  0.77124  1.0000
  C   C521      1.0  0.67069  0.30606  0.74769  1.0000
  C   C522      1.0  0.57125  0.22105  0.85254  1.0000
  H   H888      1.0  0.70252  0.28935  0.80601  1.0000
  H   H889      1.0  0.65639  0.30130  0.73476  1.0000
  S   S155      1.0  0.57480  0.04672  0.51672  1.0000
  C   C523      1.0  0.61393  0.16045  0.91219  1.0000
  C   C524      1.0  0.60234  0.14576  0.89424  1.0000
  C   C525      1.0  0.60137  0.14899  0.86367  1.0000
  C   C526      1.0  0.61139  0.16724  0.85077  1.0000
  C   C527      1.0  0.62232  0.18233  0.86885  1.0000
  C   C528      1.0  0.62373  0.17883  0.89935  1.0000
  H   H890      1.0  0.59470  0.13155  0.90378  1.0000
  H   H891      1.0  0.59293  0.13718  0.84986  1.0000
  H   H892      1.0  0.63024  0.19637  0.85923  1.0000
  H   H893      1.0  0.63276  0.19029  0.91304  1.0000
  C   C529      1.0  0.61791  0.14907  0.61278  1.0000
  C   C530      1.0  0.60815  0.16875  0.60163  1.0000
  C   C531      1.0  0.60583  0.18770  0.61970  1.0000
  C   C532      1.0  0.61277  0.18712  0.64929  1.0000
  C   C533      1.0  0.62201  0.16729  0.66069  1.0000
  C   C534      1.0  0.62479  0.14844  0.64241  1.0000
  H   H894      1.0  0.60287  0.16952  0.57889  1.0000
  H   H895      1.0  0.59867  0.20294  0.61063  1.0000
  H   H896      1.0  0.62737  0.16658  0.68341  1.0000
  H   H897      1.0  0.63240  0.13333  0.65125  1.0000
  C   C535      1.0  0.54970  0.22523  0.65659  1.0000
  H   H898      1.0  0.57291  0.19287  0.89608  1.0000
  C   C536      1.0  0.51057  0.08617  0.98835  1.0000
  C   C537      1.0  0.55654  0.20214  0.89458  1.0000
  H   H899      1.0  0.66750  0.07075  0.60790  1.0000
  H   H900      1.0  0.51365  0.19245  0.69410  1.0000
  N   N37       1.0  0.62862  0.03995  0.58565  1.0000
  H   H901      1.0  0.53769  0.16436  0.70222  1.0000
  H   H902      1.0  0.56480  0.22141  0.64350  1.0000
  H   H903      1.0  0.50761  0.23829  0.66664  1.0000
  N   N38       1.0  0.76310  0.30933  0.70537  1.0000
  H   H904      1.0  0.53622  0.17217  0.89754  1.0000
  C   C538      1.0  0.54905  0.19166  0.81160  1.0000
  C   C539      1.0  0.65037  0.07100  0.92165  1.0000
  C   C540      1.0  0.54068  0.18813  0.61213  1.0000
  H   H905      1.0  0.56741  0.23035  0.69883  1.0000
  H   H906      1.0  0.65711  0.12722  0.92481  1.0000
  H   H907      1.0  0.63295  0.99989  0.61838  1.0000
  H   H908      1.0  0.68805  0.11331  0.97848  1.0000
  C   C541      1.0  0.80172  0.31539  0.68298  1.0000
  H   H909      1.0  0.80073  0.30034  0.66904  1.0000
  H   H910      1.0  0.66971  0.05010  0.56214  1.0000
  H   H911      1.0  0.58612  0.20965  0.85090  1.0000
  H   H912      1.0  0.65392  0.06942  0.64180  1.0000
  H   H913      1.0  0.63163  0.07269  0.56597  1.0000
  C   C542      1.0  0.69913  0.11092  0.92025  1.0000
  H   H914      1.0  0.65467  0.04709  0.95810  1.0000
  C   C543      1.0  0.64956  0.11124  0.88398  1.0000
  H   H915      1.0  0.51415  0.20867  0.62943  1.0000
  C   C544      1.0  0.62507  0.99790  0.59645  1.0000
  H   H916      1.0  0.56615  0.19382  0.80386  1.0000
  H   H917      1.0  0.64900  0.01230  0.56903  1.0000
  H   H918      1.0  0.63627  0.10052  0.87538  1.0000
  C   C545      1.0  0.57925  0.00165  0.52312  1.0000
  H   H919      1.0  0.84602  0.31936  0.95588  1.0000
  H   H920      1.0  0.54295  0.24817  0.69364  1.0000
  C   C546      1.0  0.63145  0.01623  0.57495  1.0000
  H   H921      1.0  0.62153  0.01368  0.55456  1.0000
  H   H922      1.0  0.66836  0.07830  0.97554  1.0000
  H   H923      1.0  0.72463  0.28395  0.68946  1.0000
  C   C547      1.0  0.66972  0.11332  0.98000  1.0000
  C   C548      1.0  0.52605  0.19563  0.63806  1.0000
  C   C549      1.0  0.50898  0.12386  0.51953  1.0000
  H   H924      1.0  0.63268  0.11237  0.92520  1.0000
  C   C550      1.0  0.74021  0.27419  0.69364  1.0000
  H   H925      1.0  0.50499  0.20047  0.87176  1.0000
  C   C551      1.0  0.65021  0.11121  0.91781  1.0000
  H   H926      1.0  0.53903  0.23593  0.64191  1.0000
  C   C552      1.0  0.60475  0.04347  0.59456  1.0000
  H   H927      1.0  0.78945  0.30067  0.98749  1.0000
  C   C553      1.0  0.63308  0.05486  0.56008  1.0000
  H   H928      1.0  0.55818  0.21700  0.90890  1.0000
  H   H929      1.0  0.56909  0.18513  0.65818  1.0000
  C   C554      1.0  0.50848  0.21353  0.85574  1.0000
  H   H930      1.0  0.56305  0.15332  0.68787  1.0000
  H   H931      1.0  0.58677  0.23613  0.89160  1.0000
  H   H932      1.0  0.69239  0.12540  0.93251  1.0000
  S   S156      1.0  0.53080  0.08855  0.96171  1.0000
  H   H933      1.0  0.85306  0.30917  0.99203  1.0000
  H   H934      1.0  0.69578  0.07836  0.93931  1.0000
  H   H935      1.0  0.66022  0.03370  0.60771  1.0000
  N   N39       1.0  0.55151  0.20879  0.86327  1.0000
  Fe  Fe78      1.0  0.56182  0.10015  0.98374  1.0000
  H   H936      1.0  0.63228  0.07262  0.92639  1.0000
  C   C555      1.0  0.49959  0.08522  0.51376  1.0000
  H   H937      1.0  0.68773  0.08050  0.90182  1.0000
  N   N40       1.0  0.53841  0.20411  0.66459  1.0000
  C   C556      1.0  0.58878  0.02062  0.51153  1.0000
  H   H938      1.0  0.60068  0.03223  0.61278  1.0000
  C   C557      1.0  0.65593  0.05118  0.54577  1.0000
  H   H939      1.0  0.50703  0.20663  0.83326  1.0000
  Fe  Fe79      1.0  0.58543  0.08251  0.51013  1.0000
  C   C558      1.0  0.55723  0.23987  0.68253  1.0000
  H   H940      1.0  0.62024  0.05275  0.54252  1.0000
  H   H941      1.0  0.66561  0.10596  0.87429  1.0000
  S   S157      1.0  0.61899  0.09788  0.51100  1.0000
  H   H942      1.0  0.56499  0.19367  0.69457  1.0000
  C   C559      1.0  0.78732  0.31417  0.71056  1.0000
  H   H943      1.0  0.75193  0.32599  0.74480  1.0000
  H   H944      1.0  0.52980  0.18368  0.59322  1.0000
  H   H945      1.0  0.56777  0.25318  0.67423  1.0000
  H   H946      1.0  0.80712  0.31259  0.93184  1.0000
  C   C560      1.0  0.51535  0.10176  0.51361  1.0000
  H   H947      1.0  0.63733  0.03660  0.63169  1.0000
  H   H948      1.0  0.77554  0.27590  0.69529  1.0000
  H   H949      1.0  0.65061  0.03487  0.92313  1.0000
  H   H950      1.0  0.56803  0.22746  0.82999  1.0000
  C   C561      1.0  0.84953  0.32428  0.97877  1.0000
  C   C562      1.0  0.51046  0.23351  0.77025  1.0000
  H   H951      1.0  0.52376  0.19743  0.91356  1.0000
  H   H952      1.0  0.56362  0.17614  0.84976  1.0000
  C   C563      1.0  0.64436  0.04333  0.61129  1.0000
  C   C564      1.0  0.75299  0.32835  0.68766  1.0000
  H   H953      1.0  0.76803  0.27684  0.74814  1.0000
  H   H954      1.0  0.59003  0.25108  0.85852  1.0000
  H   H955      1.0  0.70054  0.11543  0.89680  1.0000
  H   H956      1.0  0.53072  0.21238  0.70977  1.0000
  H   H957      1.0  0.67710  0.04582  0.93205  1.0000
  C   C565      1.0  0.70781  0.31907  0.78090  1.0000
  H   H958      1.0  0.60121  0.08004  0.58944  1.0000
  C   C566      1.0  0.76142  0.28749  0.68914  1.0000
  C   C567      1.0  0.53940  0.18779  0.90956  1.0000
  H   H959      1.0  0.63900  0.08064  0.61125  1.0000
  C   C568      1.0  0.57806  0.24135  0.87101  1.0000
  H   H960      1.0  0.51636  0.28177  0.80800  1.0000
  H   H961      1.0  0.75073  0.29007  0.77516  1.0000
  C   C569      1.0  0.54818  0.16410  0.68252  1.0000
  H   H962      1.0  0.76298  0.29012  0.66513  1.0000
  H   H963      1.0  0.52968  0.23474  0.88111  1.0000
  C   C570      1.0  0.50841  0.26764  0.79815  1.0000
  C   C571      1.0  0.65897  0.04864  0.93472  1.0000
  H   H964      1.0  0.53266  0.23635  0.84286  1.0000
  H   H965      1.0  0.65903  0.06542  0.53114  1.0000
  C   C572      1.0  0.50319  0.22546  0.68258  1.0000
  H   H966      1.0  0.74026  0.25989  0.67817  1.0000
  C   C573      1.0  0.59773  0.06687  0.60535  1.0000
  H   H967      1.0  0.81940  0.31684  0.68995  1.0000
  H   H968      1.0  0.50457  0.06824  0.50866  1.0000
  H   H969      1.0  0.55108  0.17307  0.61739  1.0000
  H   H970      1.0  0.55146  0.20150  0.60471  1.0000
  C   C574      1.0  0.53117  0.22422  0.86108  1.0000
  H   H971      1.0  0.71648  0.10798  0.92835  1.0000
  H   H972      1.0  0.77748  0.30071  0.76845  1.0000
  H   H973      1.0  0.73966  0.26711  0.71598  1.0000
  N   N41       1.0  0.66223  0.09147  0.93182  1.0000
  H   H974      1.0  0.65142  0.06896  0.89747  1.0000
  C   C575      1.0  0.55606  0.18744  0.67486  1.0000
  C   C576      1.0  0.66004  0.09290  0.96465  1.0000
  C   C577      1.0  0.68634  0.08917  0.92337  1.0000
  H   H975      1.0  0.79568  0.30113  0.72442  1.0000
  H   H976      1.0  0.60541  0.07063  0.62697  1.0000
  H   H977      1.0  0.56371  0.25269  0.87587  1.0000
  C   C578      1.0  0.54948  0.18803  0.84494  1.0000
  H   H978      1.0  0.53948  0.15607  0.66393  1.0000
  H   H979      1.0  0.54618  0.18277  0.93145  1.0000
  Fe  Fe80      1.0  0.56189  0.12840  0.51172  1.0000
  H   H980      1.0  0.53443  0.17887  0.85025  1.0000
  S   S158      1.0  0.59341  0.14725  0.51295  1.0000
  C   C579      1.0  0.50516  0.14716  0.96148  1.0000
  H   H981      1.0  0.57946  0.06759  0.60839  1.0000
  H   H982      1.0  0.56405  0.00345  0.53522  1.0000
  H   H983      1.0  0.51822  0.13875  0.94809  1.0000
  H   H984      1.0  0.59336  0.03926  0.57598  1.0000
  H   H985      1.0  0.51549  0.18154  0.64383  1.0000
  H   H986      1.0  0.66200  0.12923  0.97216  1.0000
  C   C580      1.0  0.80672  0.30612  0.99188  1.0000
  H   H987      1.0  0.59329  0.02531  0.00159  1.0000
  H   H988      1.0  0.81677  0.29796  0.97451  1.0000
  C   C581      1.0  0.68187  0.32569  0.74084  1.0000
  H   H989      1.0  0.72203  0.32387  0.79395  1.0000
  S   S159      1.0  0.56708  0.13567  0.99603  1.0000
  H   H990      1.0  0.53232  0.09740  0.50828  1.0000
  H   H991      1.0  0.50140  0.13602  0.97979  1.0000
  S   S160      1.0  0.52807  0.14485  0.51573  1.0000
  H   H992      1.0  0.51207  0.16220  0.97190  1.0000
  H   H993      1.0  0.72597  0.31430  0.66132  1.0000
  H   H994      1.0  0.49907  0.23457  0.70313  1.0000
  H   H995      1.0  0.71749  0.32356  0.69755  1.0000
  C   C582      1.0  0.72831  0.32684  0.67886  1.0000
  H   H996      1.0  0.49615  0.00112  0.53513  1.0000
  H   H997      1.0  0.66608  0.11241  0.00373  1.0000
  H   H998      1.0  0.60677  0.99710  0.59835  1.0000
  H   H999      1.0  0.99206  0.64529  0.47660  1.0000
  H   H1000     1.0  0.67687  0.64569  0.10220  1.0000
  S   S161      1.0  0.85929  0.58581  0.06843  1.0000
  H   H1001     1.0  0.80050  0.40996  0.40845  1.0000
  S   S162      1.0  0.86951  0.57934  0.43737  1.0000
  C   C583      1.0  0.79325  0.47563  0.40663  1.0000
  Fe  Fe81      1.0  0.84763  0.60772  0.45224  1.0000
  S   S163      1.0  0.82292  0.62706  0.42301  1.0000
  H   H1002     1.0  0.57235  0.34126  0.22164  1.0000
  C   C584      1.0  0.98005  0.37744  0.50271  1.0000
  H   H1003     1.0  0.80392  0.35230  0.41740  1.0000
  S   S164      1.0  0.90494  0.57687  0.01192  1.0000
  Fe  Fe82      1.0  0.87044  0.42316  0.03504  1.0000
  S   S165      1.0  0.88179  0.40270  0.07338  1.0000
  C   C585      1.0  0.99120  0.36170  0.00839  1.0000
  Fe  Fe83      1.0  0.87798  0.39414  0.48829  1.0000
  H   H1004     1.0  0.93273  0.46475  0.49735  1.0000
  S   S166      1.0  0.86965  0.39734  0.43908  1.0000
  Fe  Fe84      1.0  0.85786  0.37789  0.05650  1.0000
  S   S167      1.0  0.83032  0.36252  0.08260  1.0000
  Fe  Fe85      1.0  0.90683  0.38735  0.04231  1.0000
  S   S168      1.0  0.94248  0.38892  0.06023  1.0000
  C   C586      1.0  0.83852  0.33188  0.25739  1.0000
  H   H1005     1.0  0.57311  0.34534  0.25995  1.0000
  Fe  Fe86      1.0  0.77672  0.37306  0.31312  1.0000
  S   S169      1.0  0.74093  0.38495  0.30869  1.0000
  S   S170      1.0  0.79063  0.36164  0.35782  1.0000
  Fe  Fe87      1.0  0.78521  0.38057  0.24781  1.0000
  S   S171      1.0  0.75023  0.39365  0.23905  1.0000
  S   S172      1.0  0.81608  0.38058  0.21926  1.0000
  Fe  Fe88      1.0  0.75421  0.41266  0.28146  1.0000
  S   S173      1.0  0.74458  0.44844  0.29450  1.0000
  Fe  Fe89      1.0  0.73937  0.36471  0.26699  1.0000
  H   H1006     1.0  0.82975  0.64490  0.48227  1.0000
  S   S174      1.0  0.78978  0.40159  0.28839  1.0000
  S   S175      1.0  0.77449  0.35086  0.27320  1.0000
  Fe  Fe90      1.0  0.78227  0.61041  0.25673  1.0000
  S   S176      1.0  0.75028  0.59393  0.26685  1.0000
  S   S177      1.0  0.81369  0.61182  0.28517  1.0000
  Fe  Fe91      1.0  0.77106  0.61331  0.19058  1.0000
  S   S178      1.0  0.73868  0.59670  0.19642  1.0000
  S   S179      1.0  0.78063  0.62663  0.14595  1.0000
  Fe  Fe92      1.0  0.73420  0.61955  0.23561  1.0000
  C   C587      1.0  0.97162  0.48954  0.01499  1.0000
  Fe  Fe93      1.0  0.75725  0.57287  0.22686  1.0000
  S   S180      1.0  0.76152  0.53536  0.21940  1.0000
  S   S181      1.0  0.76604  0.63719  0.22828  1.0000
  S   S182      1.0  0.78980  0.58835  0.21813  1.0000
  H   H1007     1.0  0.91669  0.45789  0.06781  1.0000
  C   C588      1.0  0.74934  0.47247  0.27338  1.0000
  C   C589      1.0  0.74131  0.49338  0.28327  1.0000
  C   C590      1.0  0.74483  0.51286  0.26712  1.0000
  C   C591      1.0  0.75658  0.51161  0.24097  1.0000
  C   C592      1.0  0.76471  0.49072  0.23122  1.0000
  C   C593      1.0  0.76115  0.47126  0.24730  1.0000
  H   H1008     1.0  0.73201  0.49447  0.30330  1.0000
  H   H1009     1.0  0.73821  0.52876  0.27464  1.0000
  H   H1010     1.0  0.77371  0.48957  0.21097  1.0000
  H   H1011     1.0  0.76738  0.45530  0.23946  1.0000
  H   H1012     1.0  0.96304  0.49272  0.49013  1.0000
  C   C594      1.0  0.82629  0.36808  0.12048  1.0000
  H   H1013     1.0  0.78836  0.41323  0.35784  1.0000
  C   C595      1.0  0.93673  0.47186  0.47577  1.0000
  C   C596      1.0  0.81922  0.37567  0.18110  1.0000
  C   C597      1.0  0.83979  0.37987  0.16848  1.0000
  C   C598      1.0  0.84326  0.37629  0.13834  1.0000
  H   H1014     1.0  0.66827  0.65601  0.14684  1.0000
  S   S183      1.0  0.83126  0.58840  0.48743  1.0000
  H   H1015     1.0  0.85318  0.38592  0.18210  1.0000
  H   H1016     1.0  0.85924  0.37947  0.12905  1.0000
  C   C599      1.0  0.84754  0.38703  0.41706  1.0000
  C   C600      1.0  0.83246  0.37192  0.42758  1.0000
  C   C601      1.0  0.81539  0.36408  0.40902  1.0000
  C   C602      1.0  0.81290  0.37152  0.37992  1.0000
  C   C603      1.0  0.82789  0.38674  0.36948  1.0000
  C   C604      1.0  0.84517  0.39429  0.38786  1.0000
  H   H1017     1.0  0.83409  0.36609  0.44993  1.0000
  H   H1018     1.0  0.94138  0.44081  0.06698  1.0000
  H   H1019     1.0  0.82611  0.39278  0.34733  1.0000
  H   H1020     1.0  0.87877  0.34396  0.27460  1.0000
  H   H1021     1.0  0.96562  0.38078  0.48879  1.0000
  H   H1022     1.0  0.83760  0.59341  0.23362  1.0000
  S   S184      1.0  0.88361  0.36024  0.02834  1.0000
  H   H1023     1.0  0.80644  0.45984  0.34866  1.0000
  C   C605      1.0  0.86593  0.47096  0.50338  1.0000
  C   C606      1.0  0.82012  0.62159  0.38497  1.0000
  C   C607      1.0  0.83800  0.61318  0.36872  1.0000
  C   C608      1.0  0.83575  0.61057  0.33816  1.0000
  C   C609      1.0  0.81544  0.61561  0.32364  1.0000
  C   C610      1.0  0.79736  0.62348  0.33995  1.0000
  C   C611      1.0  0.79982  0.62676  0.37044  1.0000
  H   H1024     1.0  0.85377  0.60938  0.37957  1.0000
  H   H1025     1.0  0.84988  0.60463  0.32572  1.0000
  H   H1026     1.0  0.78167  0.62756  0.32904  1.0000
  C   C612      1.0  0.83572  0.59630  0.08768  1.0000
  C   C613      1.0  0.82407  0.61584  0.07942  1.0000
  C   C614      1.0  0.80680  0.62460  0.09703  1.0000
  C   C615      1.0  0.80082  0.61381  0.12287  1.0000
  C   C616      1.0  0.81195  0.59387  0.13058  1.0000
  C   C617      1.0  0.82949  0.58536  0.11329  1.0000
  H   H1027     1.0  0.82873  0.62450  0.05987  1.0000
  H   H1028     1.0  0.79829  0.64001  0.09082  1.0000
  H   H1029     1.0  0.80733  0.58522  0.15015  1.0000
  H   H1030     1.0  0.83833  0.57019  0.11982  1.0000
  C   C618      1.0  0.79607  0.42755  0.41370  1.0000
  H   H1031     1.0  0.90044  0.49907  0.48298  1.0000
  H   H1032     1.0  0.80832  0.47363  0.39333  1.0000
  H   H1033     1.0  0.65353  0.65193  0.24168  1.0000
  H   H1034     1.0  0.68050  0.65940  0.18156  1.0000
  S   S185      1.0  0.84467  0.39973  0.01984  1.0000
  H   H1035     1.0  0.91791  0.50807  0.43368  1.0000
  H   H1036     1.0  0.94589  0.53901  0.46899  1.0000
  H   H1037     1.0  0.85675  0.40595  0.37948  1.0000
  H   H1038     1.0  0.87377  0.53346  0.01018  1.0000
  C   C619      1.0  0.95685  0.59009  0.47281  1.0000
  H   H1039     1.0  0.82631  0.62763  0.22431  1.0000
  H   H1040     1.0  0.75098  0.42745  0.41823  1.0000
  H   H1041     1.0  0.78540  0.37122  0.03869  1.0000
  H   H1042     1.0  0.77906  0.54871  0.29377  1.0000
  H   H1043     1.0  0.83854  0.35464  0.32596  1.0000
  H   H1044     1.0  0.89893  0.34170  0.31816  1.0000
  H   H1045     1.0  0.84011  0.39084  0.29887  1.0000
  H   H1046     1.0  0.87318  0.65315  0.20133  1.0000
  H   H1047     1.0  0.74201  0.42186  0.35242  1.0000
  C   C620      1.0  0.78671  0.43155  0.36130  1.0000
  H   H1048     1.0  0.69880  0.62088  0.17816  1.0000
  C   C621      1.0  0.60509  0.34488  0.24052  1.0000
  H   H1049     1.0  0.89083  0.62698  0.15666  1.0000
  C   C622      1.0  0.90871  0.52039  0.44732  1.0000
  C   C623      1.0  0.78904  0.42790  0.44605  1.0000
  H   H1050     1.0  0.61572  0.33614  0.22439  1.0000
  H   H1051     1.0  0.92900  0.48156  0.02874  1.0000
  H   H1052     1.0  0.89107  0.52039  0.43974  1.0000
  H   H1053     1.0  0.76730  0.46861  0.37506  1.0000
  C   C624      1.0  0.95873  0.60094  0.49984  1.0000
  C   C625      1.0  0.58141  0.33582  0.24199  1.0000
  C   C626      1.0  0.85440  0.63250  0.16015  1.0000
  H   H1054     1.0  0.91454  0.53736  0.44321  1.0000
  C   C627      1.0  0.98780  0.39119  0.05539  1.0000
  H   H1055     1.0  0.87169  0.59467  0.18436  1.0000
  C   C628      1.0  0.96832  0.38229  0.04339  1.0000
  C   C629      1.0  0.87154  0.33165  0.28954  1.0000
  H   H1056     1.0  0.86942  0.45384  0.49730  1.0000
  S   S186      1.0  0.87392  0.62109  0.48297  1.0000
  C   C630      1.0  0.83789  0.35485  0.30161  1.0000
  C   C631      1.0  0.73873  0.42940  0.37417  1.0000
  C   C632      1.0  0.69428  0.64529  0.09490  1.0000
  H   H1057     1.0  0.68384  0.61694  0.14385  1.0000
  H   H1058     1.0  0.69688  0.62897  0.08378  1.0000
  S   S187      1.0  0.86064  0.45866  0.04462  1.0000
  H   H1059     1.0  0.98668  0.40221  0.07410  1.0000
  H   H1060     1.0  0.95529  0.36075  0.01004  1.0000
  H   H1061     1.0  0.78781  0.49343  0.40553  1.0000
  S   S188      1.0  0.84317  0.52681  0.46317  1.0000
  C   C633      1.0  0.84959  0.37581  0.29138  1.0000
  H   H1062     1.0  0.78620  0.36437  0.17260  1.0000
  H   H1063     1.0  0.84268  0.59267  0.17763  1.0000
  C   C634      1.0  0.68358  0.65164  0.15981  1.0000
  H   H1064     1.0  0.85146  0.47963  0.46129  1.0000
  S   S189      1.0  0.69946  0.63668  0.24098  1.0000
  H   H1065     1.0  0.89953  0.52754  0.49134  1.0000
  H   H1066     1.0  0.94658  0.48272  0.06037  1.0000
  N   N42       1.0  0.77896  0.43660  0.39195  1.0000
  H   H1067     1.0  0.85034  0.37685  0.26722  1.0000
  H   H1068     1.0  0.79787  0.47228  0.42985  1.0000
  H   H1069     1.0  0.81340  0.43453  0.33058  1.0000
  H   H1070     1.0  0.85384  0.57084  0.21945  1.0000
  H   H1071     1.0  0.60392  0.36265  0.23403  1.0000
  Fe  Fe94      1.0  0.87048  0.59097  0.02120  1.0000
  Fe  Fe95      1.0  0.85488  0.56089  0.47425  1.0000
  C   C635      1.0  0.88274  0.33356  0.32017  1.0000
  H   H1072     1.0  0.97423  0.43820  0.04729  1.0000
  N   N43       1.0  0.96225  0.46736  0.02271  1.0000
  H   H1073     1.0  0.82266  0.43784  0.36742  1.0000
  H   H1074     1.0  0.85536  0.62692  0.25278  1.0000
  H   H1075     1.0  0.79248  0.35735  0.11956  1.0000
  H   H1076     1.0  0.95089  0.50076  0.45627  1.0000
  N   N44       1.0  0.81439  0.44793  0.13690  1.0000
  C   C636      1.0  0.80902  0.47128  0.14736  1.0000
  C   C637      1.0  0.83778  0.44164  0.14688  1.0000
  C   C638      1.0  0.79876  0.43157  0.14944  1.0000
  C   C639      1.0  0.81207  0.44729  0.10401  1.0000
  C   C640      1.0  0.78475  0.47981  0.14269  1.0000
  C   C641      1.0  0.85652  0.45273  0.13026  1.0000
  C   C642      1.0  0.79721  0.43158  0.18313  1.0000
  C   C643      1.0  0.81778  0.42471  0.08928  1.0000
  H   H1077     1.0  0.81310  0.47314  0.17111  1.0000
  H   H1078     1.0  0.81955  0.48336  0.13618  1.0000
  H   H1079     1.0  0.84103  0.42339  0.14566  1.0000
  H   H1080     1.0  0.84031  0.44573  0.17048  1.0000
  H   H1081     1.0  0.78166  0.43411  0.14016  1.0000
  H   H1082     1.0  0.80378  0.41430  0.14292  1.0000
  H   H1083     1.0  0.79464  0.45143  0.09707  1.0000
  H   H1084     1.0  0.82173  0.46043  0.09340  1.0000
  H   H1085     1.0  0.77269  0.46958  0.15416  1.0000
  H   H1086     1.0  0.78296  0.49686  0.15204  1.0000
  H   H1087     1.0  0.78010  0.48114  0.11916  1.0000
  H   H1088     1.0  0.87271  0.44835  0.14113  1.0000
  H   H1089     1.0  0.85763  0.44650  0.10742  1.0000
  H   H1090     1.0  0.85461  0.47109  0.13015  1.0000
  H   H1091     1.0  0.78562  0.41858  0.18971  1.0000
  H   H1092     1.0  0.79050  0.44759  0.19187  1.0000
  H   H1093     1.0  0.81345  0.42735  0.19383  1.0000
  H   H1094     1.0  0.80319  0.41389  0.08860  1.0000
  H   H1095     1.0  0.83181  0.41546  0.10003  1.0000
  H   H1096     1.0  0.82328  0.42768  0.06661  1.0000
  H   H1097     1.0  0.81195  0.43629  0.41259  1.0000
  C   C644      1.0  0.77392  0.46119  0.39591  1.0000
  H   H1098     1.0  0.85983  0.65616  0.24773  1.0000
  S   S190      1.0  0.71075  0.34302  0.24942  1.0000
  S   S191      1.0  0.93073  0.58579  0.45516  1.0000
  C   C645      1.0  0.97637  0.58240  0.45895  1.0000
  C   C646      1.0  0.80862  0.44170  0.35211  1.0000
  H   H1099     1.0  0.77424  0.43758  0.34468  1.0000
  H   H1100     1.0  0.80976  0.56099  0.27142  1.0000
  Fe  Fe96      1.0  0.89488  0.59062  0.47083  1.0000
  H   H1101     1.0  0.78594  0.63343  0.38279  1.0000
  S   S192      1.0  0.90864  0.41237  0.50299  1.0000
  H   H1102     1.0  0.86776  0.59297  0.23706  1.0000
  H   H1103     1.0  0.72332  0.42193  0.38203  1.0000
  H   H1104     1.0  0.72627  0.65457  0.11030  1.0000
  H   H1105     1.0  0.71764  0.63035  0.12675  1.0000
  H   H1106     1.0  0.81992  0.35757  0.29628  1.0000
  H   H1107     1.0  0.80408  0.42572  0.46037  1.0000
  H   H1108     1.0  0.72830  0.64279  0.17334  1.0000
  H   H1109     1.0  0.80367  0.65571  0.47082  1.0000
  H   H1110     1.0  0.86657  0.37667  0.30101  1.0000
  H   H1111     1.0  0.97513  0.57393  0.43807  1.0000
  H   H1112     1.0  0.98297  0.46358  0.06176  1.0000
  C   C647      1.0  0.68418  0.62634  0.16477  1.0000
  H   H1113     1.0  0.87307  0.34393  0.33579  1.0000
  C   C648      1.0  0.75793  0.42408  0.39617  1.0000
  C   C649      1.0  0.71145  0.64732  0.12024  1.0000
  N   N45       1.0  0.80097  0.54677  0.33249  1.0000
  C   C650      1.0  0.80250  0.55950  0.36107  1.0000
  C   C651      1.0  0.78072  0.55590  0.31606  1.0000
  C   C652      1.0  0.82173  0.55086  0.31542  1.0000
  C   C653      1.0  0.79936  0.52247  0.33973  1.0000
  C   C654      1.0  0.82393  0.55543  0.37971  1.0000
  C   C655      1.0  0.75822  0.55254  0.33076  1.0000
  C   C656      1.0  0.82049  0.54779  0.28185  1.0000
  C   C657      1.0  0.79552  0.50633  0.31395  1.0000
  H   H1114     1.0  0.80098  0.57772  0.35707  1.0000
  H   H1115     1.0  0.78854  0.55568  0.37564  1.0000
  H   H1116     1.0  0.82691  0.56827  0.31866  1.0000
  H   H1117     1.0  0.83591  0.54017  0.32369  1.0000
  H   H1118     1.0  0.81488  0.51621  0.35088  1.0000
  H   H1119     1.0  0.78637  0.51976  0.35627  1.0000
  H   H1120     1.0  0.82591  0.53801  0.38735  1.0000
  H   H1121     1.0  0.83904  0.56035  0.36819  1.0000
  H   H1122     1.0  0.82291  0.56600  0.39972  1.0000
  H   H1123     1.0  0.75672  0.56185  0.35165  1.0000
  H   H1124     1.0  0.74470  0.55918  0.31606  1.0000
  H   H1125     1.0  0.83734  0.54960  0.27285  1.0000
  H   H1126     1.0  0.81479  0.53130  0.27495  1.0000
  H   H1127     1.0  0.81157  0.49964  0.30542  1.0000
  H   H1128     1.0  0.78568  0.51368  0.29565  1.0000
  H   H1129     1.0  0.78563  0.49222  0.32140  1.0000
  H   H1130     1.0  0.92166  0.47207  0.46142  1.0000
  C   C658      1.0  0.80211  0.36775  0.16321  1.0000
  H   H1131     1.0  0.79283  0.62278  0.48778  1.0000
  H   H1132     1.0  0.87638  0.63320  0.12288  1.0000
  H   H1133     1.0  0.78230  0.57408  0.31233  1.0000
  N   N46       1.0  0.84652  0.33313  0.28885  1.0000
  N   N47       1.0  0.85247  0.62532  0.19169  1.0000
  C   C659      1.0  0.90971  0.51453  0.48017  1.0000
  C   C660      1.0  0.86632  0.63906  0.24291  1.0000
  C   C661      1.0  0.85515  0.60031  0.19251  1.0000
  H   H1134     1.0  0.75503  0.53470  0.33408  1.0000
  C   C662      1.0  0.80571  0.36381  0.13310  1.0000
  C   C663      1.0  0.97009  0.36783  0.01942  1.0000
  H   H1135     1.0  0.94906  0.46027  0.46547  1.0000
  C   C664      1.0  0.79466  0.34044  0.01608  1.0000
  H   H1136     1.0  0.66926  0.62189  0.17716  1.0000
  H   H1137     1.0  0.88247  0.63743  0.25496  1.0000
  H   H1138     1.0  0.81681  0.62278  0.18847  1.0000
  H   H1139     1.0  0.73526  0.44749  0.37163  1.0000
  H   H1140     1.0  0.76041  0.46415  0.41197  1.0000
  H   H1141     1.0  0.93275  0.54823  0.50081  1.0000
  N   N48       1.0  0.93253  0.51235  0.49416  1.0000
  C   C665      1.0  0.85578  0.48556  0.48298  1.0000
  H   H1142     1.0  0.76147  0.40575  0.39517  1.0000
  H   H1143     1.0  0.88660  0.62676  0.20718  1.0000
  C   C666      1.0  0.82936  0.63210  0.20129  1.0000
  C   C667      1.0  0.94670  0.49509  0.47861  1.0000
  H   H1144     1.0  0.83989  0.62718  0.14689  1.0000
  H   H1145     1.0  0.95080  0.42300  0.01727  1.0000
  H   H1146     1.0  0.84641  0.34470  0.24394  1.0000
  C   C668      1.0  0.82301  0.65702  0.19806  1.0000
  H   H1147     1.0  0.61372  0.34426  0.26218  1.0000
  H   H1148     1.0  0.77826  0.41376  0.45069  1.0000
  H   H1149     1.0  0.78030  0.44365  0.45230  1.0000
  C   C669      1.0  0.87535  0.62412  0.14394  1.0000
  C   C670      1.0  0.85339  0.58916  0.22260  1.0000
  C   C671      1.0  0.94356  0.53437  0.49225  1.0000
  C   C672      1.0  0.87046  0.63610  0.20969  1.0000
  H   H1150     1.0  0.82039  0.33591  0.25542  1.0000
  C   C673      1.0  0.85240  0.50802  0.49014  1.0000
  C   C674      1.0  0.93034  0.45187  0.05343  1.0000
  C   C675      1.0  0.87319  0.47779  0.02203  1.0000
  H   H1151     1.0  0.85406  0.65095  0.15840  1.0000
  H   H1152     1.0  0.87433  0.60627  0.13794  1.0000
  C   C676      1.0  0.81821  0.65959  0.48486  1.0000
  C   C677      1.0  0.86874  0.50051  0.02616  1.0000
  H   H1153     1.0  0.77094  0.64159  0.50042  1.0000
  H   H1154     1.0  0.80340  0.33637  0.03720  1.0000
  H   H1155     1.0  0.98005  0.53249  0.49037  1.0000
  H   H1156     1.0  0.92226  0.44240  0.03565  1.0000
  H   H1157     1.0  0.85828  0.50621  0.04390  1.0000
  H   H1158     1.0  0.99396  0.56515  0.01284  1.0000
  H   H1159     1.0  0.80566  0.37482  0.01117  1.0000
  H   H1160     1.0  0.83635  0.34217  0.01541  1.0000
  C   C678      1.0  0.94212  0.47205  0.04128  1.0000
  H   H1161     1.0  0.94276  0.51336  0.01386  1.0000
  H   H1162     1.0  0.80767  0.66085  0.21051  1.0000
  H   H1163     1.0  0.81912  0.66123  0.17483  1.0000
  C   C679      1.0  0.97977  0.45476  0.04066  1.0000
  H   H1164     1.0  0.98203  0.42759  0.49810  1.0000
  C   C680      1.0  0.79053  0.36586  0.01641  1.0000
  H   H1165     1.0  0.97798  0.49808  0.03503  1.0000
  C   C681      1.0  0.72257  0.66023  0.16891  1.0000
  C   C682      1.0  0.87747  0.51594  0.00701  1.0000
  H   H1166     1.0  0.77811  0.33277  0.01733  1.0000
  H   H1167     1.0  0.69613  0.65878  0.07868  1.0000
  N   N49       1.0  0.70400  0.66089  0.14630  1.0000
  H   H1168     1.0  0.53656  0.33099  0.23708  1.0000
  S   S193      1.0  0.89655  0.40956  0.00487  1.0000
  H   H1169     1.0  0.85499  0.53288  0.52396  1.0000
  H   H1170     1.0  0.83954  0.51020  0.89374  1.0000
  S   S194      1.0  0.85482  0.61117  0.56442  1.0000
  H   H1171     1.0  0.75488  0.34437  0.69972  1.0000
  S   S195      1.0  0.89573  0.59060  0.94243  1.0000
  H   H1172     1.0  0.94732  0.49876  0.97955  1.0000
  Fe  Fe97      1.0  0.86208  0.60343  0.95635  1.0000
  S   S196      1.0  0.83455  0.61854  0.92665  1.0000
  H   H1173     1.0  0.81445  0.43421  0.91961  1.0000
  H   H1174     1.0  0.87170  0.44728  0.94347  1.0000
  H   H1175     1.0  0.80133  0.44218  0.88657  1.0000
  S   S197      1.0  0.88158  0.56981  0.50681  1.0000
  H   H1176     1.0  0.90590  0.48037  0.96218  1.0000
  S   S198      1.0  0.89586  0.39951  0.57061  1.0000
  C   C683      1.0  0.80825  0.44892  0.90742  1.0000
  Fe  Fe98      1.0  0.87153  0.38408  0.99275  1.0000
  C   C684      1.0  0.95605  0.45545  0.99467  1.0000
  S   S199      1.0  0.86744  0.37515  0.94437  1.0000
  Fe  Fe99      1.0  0.86605  0.38279  0.55225  1.0000
  S   S200      1.0  0.83623  0.37352  0.57971  1.0000
  Fe  Fe100     1.0  0.91544  0.38385  0.53370  1.0000
  S   S201      1.0  0.95053  0.37217  0.54858  1.0000
  C   C685      1.0  0.83101  0.33933  0.99223  1.0000
  C   C686      1.0  0.98067  0.43603  0.51970  1.0000
  Fe  Fe101     1.0  0.77993  0.39011  0.80760  1.0000
  S   S202      1.0  0.74768  0.40585  0.79008  1.0000
  S   S203      1.0  0.78414  0.39213  0.85770  1.0000
  Fe  Fe102     1.0  0.79542  0.37858  0.74511  1.0000
  S   S204      1.0  0.76436  0.39313  0.72450  1.0000
  S   S205      1.0  0.82453  0.36508  0.71816  1.0000
  Fe  Fe103     1.0  0.76863  0.42178  0.75598  1.0000
  S   S206      1.0  0.77329  0.45693  0.73807  1.0000
  Fe  Fe104     1.0  0.74620  0.37558  0.76042  1.0000
  H   H1177     1.0  0.81487  0.44455  0.56551  1.0000
  S   S207      1.0  0.80069  0.40768  0.77520  1.0000
  S   S208      1.0  0.77744  0.35924  0.77938  1.0000
  Fe  Fe105     1.0  0.78611  0.61514  0.76139  1.0000
  S   S209      1.0  0.75206  0.61435  0.78042  1.0000
  S   S210      1.0  0.81865  0.61260  0.78819  1.0000
  Fe  Fe106     1.0  0.76794  0.61053  0.69793  1.0000
  S   S211      1.0  0.73258  0.60907  0.71357  1.0000
  S   S212      1.0  0.77162  0.60408  0.64865  1.0000
  Fe  Fe107     1.0  0.74075  0.63761  0.74364  1.0000
  H   H1178     1.0  0.91604  0.63539  0.86058  1.0000
  Fe  Fe108     1.0  0.74684  0.58614  0.74866  1.0000
  S   S213      1.0  0.73187  0.55372  0.76348  1.0000
  S   S214      1.0  0.77573  0.64013  0.72634  1.0000
  S   S215      1.0  0.78120  0.58590  0.73119  1.0000
  H   H1179     1.0  0.98572  0.64106  0.97203  1.0000
  C   C687      1.0  0.76280  0.48332  0.74996  1.0000
  C   C688      1.0  0.74172  0.48632  0.76206  1.0000
  C   C689      1.0  0.73271  0.50798  0.76680  1.0000
  C   C690      1.0  0.74465  0.52683  0.75959  1.0000
  C   C691      1.0  0.76616  0.52378  0.74887  1.0000
  C   C692      1.0  0.77510  0.50217  0.74397  1.0000
  H   H1180     1.0  0.73198  0.47199  0.76658  1.0000
  H   H1181     1.0  0.71611  0.51010  0.77529  1.0000
  H   H1182     1.0  0.77572  0.53804  0.74359  1.0000
  H   H1183     1.0  0.79146  0.50001  0.73475  1.0000
  H   H1184     1.0  0.85853  0.41125  0.61610  1.0000
  C   C693      1.0  0.83367  0.37212  0.61844  1.0000
  C   C694      1.0  0.81252  0.37535  0.63072  1.0000
  C   C695      1.0  0.80957  0.37401  0.66124  1.0000
  C   C696      1.0  0.82767  0.36868  0.67983  1.0000
  C   C697      1.0  0.84881  0.36534  0.66756  1.0000
  C   C698      1.0  0.85187  0.36737  0.63712  1.0000
  H   H1185     1.0  0.79831  0.37889  0.61648  1.0000
  H   H1186     1.0  0.79320  0.37650  0.67027  1.0000
  H   H1187     1.0  0.86291  0.36108  0.68170  1.0000
  H   H1188     1.0  0.86821  0.36461  0.62801  1.0000
  C   C699      1.0  0.84418  0.38032  0.92061  1.0000
  C   C700      1.0  0.82359  0.38797  0.93103  1.0000
  C   C701      1.0  0.80535  0.39100  0.91148  1.0000
  C   C702      1.0  0.80761  0.38720  0.88121  1.0000
  C   C703      1.0  0.82827  0.37981  0.87078  1.0000
  C   C704      1.0  0.84636  0.37620  0.89043  1.0000
  H   H1189     1.0  0.82165  0.39134  0.95413  1.0000
  H   H1190     1.0  0.78942  0.39668  0.91975  1.0000
  H   H1191     1.0  0.83026  0.37672  0.84759  1.0000
  H   H1192     1.0  0.86220  0.37022  0.88213  1.0000
  C   C705      1.0  0.97722  0.37284  0.53241  1.0000
  H   H1193     1.0  0.67597  0.33574  0.72256  1.0000
  H   H1194     1.0  0.98619  0.48728  0.00047  1.0000
  C   C706      1.0  0.88125  0.42498  0.64753  1.0000
  C   C707      1.0  0.95553  0.50619  0.99899  1.0000
  C   C708      1.0  0.82955  0.61464  0.88849  1.0000
  C   C709      1.0  0.84492  0.60361  0.87043  1.0000
  C   C710      1.0  0.84125  0.60299  0.83982  1.0000
  C   C711      1.0  0.82191  0.61281  0.82697  1.0000
  C   C712      1.0  0.80613  0.62303  0.84516  1.0000
  C   C713      1.0  0.81003  0.62409  0.87568  1.0000
  H   H1195     1.0  0.85990  0.59605  0.87991  1.0000
  H   H1196     1.0  0.85354  0.59501  0.82595  1.0000
  H   H1197     1.0  0.79127  0.63083  0.83560  1.0000
  C   C714      1.0  0.83211  0.60734  0.58816  1.0000
  C   C715      1.0  0.81243  0.59773  0.57854  1.0000
  C   C716      1.0  0.79420  0.59674  0.59744  1.0000
  C   C717      1.0  0.79551  0.60494  0.62633  1.0000
  C   C718      1.0  0.81537  0.61401  0.63619  1.0000
  C   C719      1.0  0.83349  0.61531  0.61714  1.0000
  H   H1198     1.0  0.81111  0.59137  0.55642  1.0000
  H   H1199     1.0  0.77892  0.58971  0.58955  1.0000
  C   C720      1.0  0.82769  0.46043  0.97398  1.0000
  C   C721      1.0  0.90582  0.65601  0.93297  1.0000
  H   H1200     1.0  0.90555  0.53153  0.53909  1.0000
  Fe  Fe109     1.0  0.85888  0.59922  0.51717  1.0000
  H   H1201     1.0  0.81767  0.48169  0.89772  1.0000
  H   H1202     1.0  0.91810  0.51581  0.56833  1.0000
  H   H1203     1.0  0.89868  0.64260  0.94620  1.0000
  H   H1204     1.0  0.79805  0.63271  0.88939  1.0000
  C   C722      1.0  0.85406  0.50759  0.90867  1.0000
  C   C723      1.0  0.86174  0.48286  0.91073  1.0000
  H   H1205     1.0  0.96506  0.52041  0.99109  1.0000
  H   H1206     1.0  0.99244  0.34990  0.99051  1.0000
  H   H1207     1.0  0.79456  0.45719  0.91979  1.0000
  H   H1208     1.0  0.85056  0.51504  0.93045  1.0000
  H   H1209     1.0  0.87735  0.48237  0.92415  1.0000
  H   H1210     1.0  0.84700  0.43286  0.93895  1.0000
  H   H1211     1.0  0.81396  0.45055  0.96521  1.0000
  H   H1212     1.0  0.83071  0.46590  0.58227  1.0000
  H   H1213     1.0  0.86675  0.47786  0.88825  1.0000
  H   H1214     1.0  0.79555  0.35750  0.96133  1.0000
  H   H1215     1.0  0.72240  0.34310  0.66968  1.0000
  H   H1216     1.0  0.86979  0.43675  0.60566  1.0000
  H   H1217     1.0  0.91805  0.49152  0.52689  1.0000
  H   H1218     1.0  0.79759  0.33037  0.66977  1.0000
  C   C724      1.0  0.88763  0.63920  0.89002  1.0000
  H   H1219     1.0  0.88696  0.44099  0.65640  1.0000
  C   C725      1.0  0.78483  0.63030  0.50736  1.0000
  H   H1220     1.0  0.94564  0.49805  0.53503  1.0000
  H   H1221     1.0  0.84109  0.44922  0.98307  1.0000
  C   C726      1.0  0.70055  0.33240  0.75730  1.0000
  H   H1222     1.0  0.79425  0.33661  0.91538  1.0000
  N   N50       1.0  0.84519  0.46710  0.92286  1.0000
  H   H1223     1.0  0.82356  0.48976  0.94735  1.0000
  H   H1224     1.0  0.93965  0.46184  0.98614  1.0000
  Fe  Fe110     1.0  0.88724  0.42637  0.53858  1.0000
  H   H1225     1.0  0.97111  0.42186  0.98861  1.0000
  C   C727      1.0  0.86634  0.43312  0.90049  1.0000
  S   S216      1.0  0.94148  0.62551  0.98086  1.0000
  H   H1226     1.0  0.99424  0.36456  0.57304  1.0000
  S   S217      1.0  0.89920  0.52743  0.95759  1.0000
  N   N51       1.0  0.84148  0.44035  0.63447  1.0000
  C   C728      1.0  0.82398  0.43737  0.61086  1.0000
  C   C729      1.0  0.83447  0.42993  0.66279  1.0000
  C   C730      1.0  0.84695  0.46438  0.63905  1.0000
  C   C731      1.0  0.80988  0.43288  0.67144  1.0000
  C   C732      1.0  0.82757  0.48071  0.64651  1.0000
  H   H1227     1.0  0.80752  0.44433  0.61724  1.0000
  H   H1228     1.0  0.82125  0.41934  0.60717  1.0000
  H   H1229     1.0  0.83766  0.41165  0.66202  1.0000
  H   H1230     1.0  0.84468  0.43594  0.68160  1.0000
  H   H1231     1.0  0.85924  0.46598  0.65732  1.0000
  H   H1232     1.0  0.85580  0.47112  0.61994  1.0000
  H   H1233     1.0  0.89577  0.41664  0.63690  1.0000
  H   H1234     1.0  0.80398  0.45041  0.67257  1.0000
  H   H1235     1.0  0.80789  0.42579  0.69367  1.0000
  H   H1236     1.0  0.79888  0.42338  0.65660  1.0000
  H   H1237     1.0  0.82519  0.48164  0.67057  1.0000
  H   H1238     1.0  0.81170  0.47680  0.63552  1.0000
  H   H1239     1.0  0.83143  0.49753  0.63850  1.0000
  N   N52       1.0  0.78147  0.55214  0.83808  1.0000
  C   C733      1.0  0.78782  0.56294  0.80977  1.0000
  C   C734      1.0  0.75899  0.56197  0.84619  1.0000
  C   C735      1.0  0.78020  0.52744  0.83234  1.0000
  C   C736      1.0  0.79921  0.55690  0.86074  1.0000
  C   C737      1.0  0.80959  0.55401  0.79586  1.0000
  C   C738      1.0  0.75850  0.58667  0.85551  1.0000
  C   C739      1.0  0.76562  0.51392  0.85265  1.0000
  C   C740      1.0  0.79489  0.54979  0.89247  1.0000
  H   H1240     1.0  0.77440  0.56134  0.79290  1.0000
  H   H1241     1.0  0.78973  0.58105  0.81269  1.0000
  H   H1242     1.0  0.75160  0.55306  0.86458  1.0000
  H   H1243     1.0  0.74690  0.56012  0.82761  1.0000
  H   H1244     1.0  0.77345  0.52429  0.80989  1.0000
  H   H1245     1.0  0.79710  0.51934  0.83288  1.0000
  H   H1246     1.0  0.81524  0.54850  0.85487  1.0000
  H   H1247     1.0  0.80325  0.57482  0.86102  1.0000
  H   H1248     1.0  0.82436  0.55753  0.80972  1.0000
  H   H1249     1.0  0.80918  0.53606  0.79047  1.0000
  H   H1250     1.0  0.81193  0.56283  0.77490  1.0000
  H   H1251     1.0  0.76400  0.59775  0.83805  1.0000
  H   H1252     1.0  0.74112  0.59198  0.86043  1.0000
  H   H1253     1.0  0.76859  0.58945  0.87567  1.0000
  H   H1254     1.0  0.74769  0.51761  0.84808  1.0000
  H   H1255     1.0  0.76941  0.51653  0.87613  1.0000
  H   H1256     1.0  0.76848  0.49593  0.84792  1.0000
  H   H1257     1.0  0.80112  0.53249  0.89642  1.0000
  H   H1258     1.0  0.77727  0.55145  0.89868  1.0000
  H   H1259     1.0  0.80374  0.56106  0.90776  1.0000
  H   H1260     1.0  0.80650  0.54101  0.66235  1.0000
  C   C741      1.0  0.86805  0.50103  0.53861  1.0000
  C   C742      1.0  0.90827  0.62636  0.87862  1.0000
  C   C743      1.0  0.88686  0.47060  0.99921  1.0000
  C   C744      1.0  0.89050  0.50864  0.98362  1.0000
  H   H1261     1.0  0.83189  0.35591  0.98172  1.0000
  H   H1262     1.0  0.86519  0.33347  0.97855  1.0000
  H   H1263     1.0  0.96829  0.45898  0.97740  1.0000
  C   C745      1.0  0.86236  0.42813  0.62442  1.0000
  H   H1264     1.0  0.97681  0.45392  0.51673  1.0000
  H   H1265     1.0  0.86781  0.51717  0.89960  1.0000
  H   H1266     1.0  0.81506  0.62847  0.53196  1.0000
  C   C746      1.0  0.99226  0.58171  0.00377  1.0000
  S   S218      1.0  0.88595  0.36434  0.51729  1.0000
  H   H1267     1.0  0.82112  0.47014  0.99289  1.0000
  H   H1268     1.0  0.81665  0.62042  0.65831  1.0000
  H   H1269     1.0  0.85270  0.42852  0.88521  1.0000
  H   H1270     1.0  0.74915  0.54772  0.59076  1.0000
  H   H1271     1.0  0.90290  0.61033  0.86914  1.0000
  C   C747      1.0  0.85740  0.44508  0.92803  1.0000
  H   H1272     1.0  0.96617  0.42879  0.53050  1.0000
  C   C748      1.0  0.82650  0.46533  0.90065  1.0000
  H   H1273     1.0  0.92059  0.62202  0.89615  1.0000
  H   H1274     1.0  0.92257  0.64934  0.92747  1.0000
  H   H1275     1.0  0.77685  0.37096  0.00100  1.0000
  H   H1276     1.0  0.93384  0.53638  0.55072  1.0000
  C   C749      1.0  0.83678  0.47670  0.95144  1.0000
  H   H1277     1.0  0.87872  0.62763  0.90428  1.0000
  Fe  Fe111     1.0  0.90928  0.60651  0.98343  1.0000
  C   C750      1.0  0.87236  0.47880  0.53102  1.0000
  C   C751      1.0  0.92137  0.52350  0.54682  1.0000
  H   H1278     1.0  0.87280  0.50705  0.56010  1.0000
  S   S219      1.0  0.87588  0.62220  0.99545  1.0000
  H   H1279     1.0  0.85027  0.48531  0.96342  1.0000
  Fe  Fe112     1.0  0.88938  0.56199  0.97192  1.0000
  H   H1280     1.0  0.87675  0.64199  0.87037  1.0000
  C   C752      1.0  0.89563  0.48600  0.98012  1.0000
  H   H1281     1.0  0.87877  0.44284  0.88897  1.0000
  C   C753      1.0  0.82892  0.44765  0.58090  1.0000
  H   H1282     1.0  0.72699  0.55873  0.61191  1.0000
  S   S220      1.0  0.88709  0.46139  0.55550  1.0000
  H   H1283     1.0  0.84389  0.43986  0.57095  1.0000
  H   H1284     1.0  0.78815  0.54759  0.63268  1.0000
  H   H1285     1.0  0.87653  0.41397  0.66566  1.0000
  H   H1286     1.0  0.94391  0.60694  0.51081  1.0000
  S   S221      1.0  0.71462  0.35692  0.74647  1.0000
  H   H1287     1.0  0.83285  0.46141  0.87838  1.0000
  H   H1288     1.0  0.87498  0.41732  0.90730  1.0000
  H   H1289     1.0  0.95632  0.58189  0.00330  1.0000
  H   H1290     1.0  0.84861  0.62280  0.62484  1.0000
  H   H1291     1.0  0.98116  0.61321  0.53315  1.0000
  H   H1292     1.0  0.75542  0.56298  0.62290  1.0000
  H   H1293     1.0  0.86219  0.65762  0.93282  1.0000
  H   H1294     1.0  0.89024  0.45322  0.99572  1.0000
  C   C754      1.0  0.85809  0.51565  0.51815  1.0000
  N   N53       1.0  0.74979  0.52837  0.66209  1.0000
  C   C755      1.0  0.73945  0.50871  0.67646  1.0000
  C   C756      1.0  0.74156  0.54899  0.67803  1.0000
  C   C757      1.0  0.77467  0.52563  0.66612  1.0000
  C   C758      1.0  0.74328  0.52839  0.62998  1.0000
  C   C759      1.0  0.74855  0.48549  0.66726  1.0000
  C   C760      1.0  0.71608  0.55221  0.67935  1.0000
  C   C761      1.0  0.78882  0.54506  0.65669  1.0000
  C   C762      1.0  0.74390  0.55085  0.61366  1.0000
  H   H1295     1.0  0.74123  0.50971  0.70068  1.0000
  H   H1296     1.0  0.72120  0.50872  0.67210  1.0000
  H   H1297     1.0  0.74792  0.56440  0.66868  1.0000
  H   H1298     1.0  0.74801  0.54897  0.70101  1.0000
  H   H1299     1.0  0.77895  0.52243  0.68954  1.0000
  H   H1300     1.0  0.78121  0.51094  0.65376  1.0000
  H   H1301     1.0  0.75376  0.51606  0.61772  1.0000
  H   H1302     1.0  0.72589  0.52287  0.62716  1.0000
  H   H1303     1.0  0.76546  0.48200  0.67659  1.0000
  H   H1304     1.0  0.73783  0.47266  0.67649  1.0000
  H   H1305     1.0  0.74853  0.48329  0.64315  1.0000
  H   H1306     1.0  0.70789  0.54997  0.65768  1.0000
  H   H1307     1.0  0.70903  0.54079  0.69554  1.0000
  H   H1308     1.0  0.71184  0.56933  0.68700  1.0000
  H   H1309     1.0  0.78455  0.56062  0.66859  1.0000
  H   H1310     1.0  0.84572  0.65131  0.52915  1.0000
  S   S222      1.0  0.85631  0.41092  0.52180  1.0000
  H   H1311     1.0  0.67910  0.65784  0.72241  1.0000
  C   C763      1.0  0.96828  0.61266  0.98699  1.0000
  C   C764      1.0  0.97990  0.60444  0.51248  1.0000
  C   C765      1.0  0.92988  0.50527  0.52557  1.0000
  C   C766      1.0  0.98747  0.62443  0.98084  1.0000
  S   S223      1.0  0.85466  0.57330  0.98297  1.0000
  H   H1312     1.0  0.99201  0.48377  0.54183  1.0000
  H   H1313     1.0  0.82167  0.33859  0.92937  1.0000
  C   C767      1.0  0.80192  0.64155  0.52762  1.0000
  H   H1314     1.0  0.79362  0.64462  0.54893  1.0000
  H   H1315     1.0  0.77754  0.61640  0.51944  1.0000
  C   C768      1.0  0.96689  0.53550  0.50681  1.0000
  H   H1316     1.0  0.82324  0.65305  0.57699  1.0000
  C   C769      1.0  0.95523  0.42981  0.99590  1.0000
  H   H1317     1.0  0.94247  0.42416  0.97994  1.0000
  C   C770      1.0  0.97085  0.59118  0.99839  1.0000
  H   H1318     1.0  0.93492  0.66072  0.88642  1.0000
  N   N54       1.0  0.89145  0.66068  0.90615  1.0000
  C   C771      1.0  0.79579  0.33907  0.96276  1.0000
  H   H1319     1.0  0.96896  0.55231  0.51645  1.0000
  H   H1320     1.0  0.84511  0.65825  0.88289  1.0000
  H   H1321     1.0  0.77803  0.33439  0.96282  1.0000
  H   H1322     1.0  0.96975  0.52366  0.52500  1.0000
  N   N55       1.0  0.81223  0.66241  0.51662  1.0000
  C   C772      1.0  0.80557  0.33092  0.93354  1.0000
  N   N56       1.0  0.80756  0.33110  0.99044  1.0000
  H   H1323     1.0  0.76168  0.33027  0.66664  1.0000
  H   H1324     1.0  0.78903  0.33010  0.72286  1.0000
  Fe  Fe113     1.0  0.58903  0.88282  0.45631  1.0000
  H   H1325     1.0  0.58349  0.77028  0.10053  1.0000
  S   S224      1.0  0.58852  0.87509  0.40705  1.0000
  H   H1326     1.0  0.69964  0.88110  0.07860  1.0000
  S   S225      1.0  0.58346  0.90967  0.04368  1.0000
  H   H1327     1.0  0.70086  0.91106  0.08046  1.0000
  Fe  Fe114     1.0  0.59058  0.87529  0.02617  1.0000
  S   S226      1.0  0.60151  0.84468  0.05296  1.0000
  N   N57       1.0  0.50819  0.85990  0.42262  1.0000
  H   H1328     1.0  0.56148  0.80416  0.10834  1.0000
  H   H1329     1.0  0.52761  0.71302  0.30352  1.0000
  S   S227      1.0  0.57610  0.91739  0.46729  1.0000
  Fe  Fe115     1.0  0.58903  0.78102  0.28046  1.0000
  S   S228      1.0  0.58956  0.74502  0.26581  1.0000
  S   S229      1.0  0.58210  0.78663  0.32929  1.0000
  Fe  Fe116     1.0  0.59423  0.79738  0.21707  1.0000
  S   S230      1.0  0.59533  0.76272  0.19874  1.0000
  S   S231      1.0  0.59126  0.82945  0.19032  1.0000
  Fe  Fe117     1.0  0.56682  0.75718  0.22904  1.0000
  S   S232      1.0  0.53694  0.73911  0.21069  1.0000
  Fe  Fe118     1.0  0.61812  0.75336  0.23707  1.0000
  S   S233      1.0  0.65214  0.73438  0.23236  1.0000
  S   S234      1.0  0.56452  0.79213  0.24535  1.0000
  S   S235      1.0  0.61883  0.78900  0.25374  1.0000
  C   C773      1.0  0.66477  0.70710  0.23704  1.0000
  C   C774      1.0  0.65245  0.68783  0.23883  1.0000
  C   C775      1.0  0.50771  0.73787  0.21504  1.0000
  C   C776      1.0  0.57076  0.77041  0.11787  1.0000
  C   C777      1.0  0.53248  0.96986  0.45265  1.0000
  C   C778      1.0  0.68816  0.70467  0.23763  1.0000
  H   H1330     1.0  0.63450  0.68923  0.23841  1.0000
  H   H1331     1.0  0.51038  0.84115  0.10461  1.0000
  H   H1332     1.0  0.69795  0.71937  0.23646  1.0000
  H   H1333     1.0  0.98703  0.67389  0.38416  1.0000
  H   H1334     1.0  0.51088  0.80035  0.09631  1.0000
  C   C779      1.0  0.62650  0.97832  0.01147  1.0000
  H   H1335     1.0  0.52829  0.89361  0.38876  1.0000
  H   H1336     1.0  0.60619  0.91451  0.11183  1.0000
  H   H1337     1.0  0.62154  0.92745  0.08406  1.0000
  C   C780      1.0  0.59771  0.84046  0.09098  1.0000
  C   C781      1.0  0.58740  0.85658  0.10875  1.0000
  C   C782      1.0  0.58568  0.85294  0.13909  1.0000
  C   C783      1.0  0.59397  0.83308  0.15198  1.0000
  C   C784      1.0  0.60401  0.81684  0.13416  1.0000
  C   C785      1.0  0.60590  0.82055  0.10383  1.0000
  H   H1338     1.0  0.58091  0.87193  0.09919  1.0000
  H   H1339     1.0  0.57787  0.86560  0.15270  1.0000
  H   H1340     1.0  0.61065  0.80159  0.14382  1.0000
  H   H1341     1.0  0.61399  0.80801  0.09030  1.0000
  C   C786      1.0  0.58771  0.85003  0.38621  1.0000
  C   C787      1.0  0.58469  0.82930  0.39904  1.0000
  C   C788      1.0  0.58303  0.81011  0.38131  1.0000
  C   C789      1.0  0.58477  0.81130  0.35062  1.0000
  C   C790      1.0  0.58784  0.83201  0.33783  1.0000
  C   C791      1.0  0.58915  0.85123  0.35552  1.0000
  H   H1342     1.0  0.58365  0.82807  0.42259  1.0000
  H   H1343     1.0  0.58074  0.79418  0.39147  1.0000
  H   H1344     1.0  0.58917  0.83325  0.31431  1.0000
  H   H1345     1.0  0.59146  0.86716  0.34533  1.0000
  H   H1346     1.0  0.66947  0.88975  0.12254  1.0000
  H   H1347     1.0  0.70636  0.89376  0.11210  1.0000
  H   H1348     1.0  0.53885  0.82200  0.41759  1.0000
  H   H1349     1.0  0.64423  0.84839  0.10597  1.0000
  C   C792      1.0  0.50987  0.83832  0.43941  1.0000
  H   H1350     1.0  0.67384  0.85278  0.10901  1.0000
  C   C793      1.0  0.69906  0.68350  0.23976  1.0000
  H   H1351     1.0  0.66303  0.83309  0.08355  1.0000
  H   H1352     1.0  0.63359  0.92301  0.12040  1.0000
  C   C794      1.0  0.53244  0.82545  0.43968  1.0000
  C   C795      1.0  0.52816  0.87364  0.42929  1.0000
  H   H1353     1.0  0.54847  0.75852  0.29975  1.0000
  C   C796      1.0  0.54238  0.74778  0.36268  1.0000
  H   H1354     1.0  0.55368  0.81361  0.15685  1.0000
  H   H1355     1.0  0.71675  0.66660  0.19035  1.0000
  H   H1356     1.0  0.51047  0.81282  0.17621  1.0000
  H   H1357     1.0  0.52064  0.95698  0.44597  1.0000
  C   C797      1.0  0.51830  0.78119  0.32506  1.0000
  H   H1358     1.0  0.68874  0.71760  0.15129  1.0000
  H   H1359     1.0  0.53047  0.80911  0.45037  1.0000
  C   C798      1.0  0.52468  0.84610  0.37297  1.0000
  H   H1360     1.0  0.54198  0.71968  0.27140  1.0000
  H   H1361     1.0  0.52411  0.75878  0.11417  1.0000
  C   C799      1.0  0.54301  0.79919  0.16017  1.0000
  N   N58       1.0  0.53370  0.79078  0.13151  1.0000
  C   C800      1.0  0.55263  0.78833  0.11031  1.0000
  H   H1362     1.0  0.54626  0.78447  0.08784  1.0000
  H   H1363     1.0  0.53364  0.81851  0.19851  1.0000
  H   H1364     1.0  0.66759  0.91541  0.01186  1.0000
  H   H1365     1.0  0.54509  0.83417  0.45293  1.0000
  Fe  Fe119     1.0  0.55807  0.90165  0.50361  1.0000
  Fe  Fe120     1.0  0.55423  0.90979  0.01279  1.0000
  H   H1366     1.0  0.50153  0.77010  0.23471  1.0000
  H   H1367     1.0  0.53765  0.83130  0.09623  1.0000
  H   H1368     1.0  0.77688  0.67809  0.48117  1.0000
  H   H1369     1.0  0.52394  0.85274  0.35029  1.0000
  C   C801      1.0  0.66906  0.90153  0.02784  1.0000
  S   S236      1.0  0.62750  0.94865  0.01179  1.0000
  S   S237      1.0  0.56836  0.86706  0.49032  1.0000
  H   H1370     1.0  0.66460  0.88629  0.01557  1.0000
  C   C802      1.0  0.52460  0.83068  0.11302  1.0000
  C   C803      1.0  0.51957  0.74465  0.34747  1.0000
  H   H1371     1.0  0.53051  0.83854  0.13360  1.0000
  N   N59       1.0  0.65398  0.89098  0.07908  1.0000
  C   C804      1.0  0.63165  0.89234  0.09368  1.0000
  C   C805      1.0  0.65785  0.86724  0.06916  1.0000
  C   C806      1.0  0.65278  0.90637  0.05297  1.0000
  C   C807      1.0  0.67123  0.89823  0.10109  1.0000
  C   C808      1.0  0.62311  0.91582  0.10282  1.0000
  C   C809      1.0  0.65980  0.84968  0.09367  1.0000
  C   C810      1.0  0.52639  0.80543  0.18436  1.0000
  C   C811      1.0  0.69575  0.89593  0.09209  1.0000
  H   H1372     1.0  0.61868  0.88532  0.07901  1.0000
  H   H1373     1.0  0.63171  0.88220  0.11398  1.0000
  H   H1374     1.0  0.67310  0.86501  0.05617  1.0000
  H   H1375     1.0  0.64428  0.86237  0.05379  1.0000
  H   H1376     1.0  0.63597  0.90618  0.04239  1.0000
  H   H1377     1.0  0.65505  0.92394  0.05988  1.0000
  H   H1378     1.0  0.66847  0.91611  0.10665  1.0000
  N   N60       1.0  0.51601  0.75668  0.31876  1.0000
  H   H1379     1.0  0.52328  0.79078  0.19819  1.0000
  H   H1380     1.0  0.68450  0.68456  0.12018  1.0000
  C   C812      1.0  0.51224  0.88269  0.04311  1.0000
  H   H1381     1.0  0.54399  0.86454  0.42467  1.0000
  H   H1382     1.0  0.52997  0.87976  0.04543  1.0000
  H   H1383     1.0  0.57956  0.77414  0.13869  1.0000
  Fe  Fe121     1.0  0.60166  0.92212  0.00471  1.0000
  C   C813      1.0  0.82900  0.67956  0.47042  1.0000
  H   H1384     1.0  0.71700  0.68216  0.24036  1.0000
  C   C814      1.0  0.53276  0.74958  0.29603  1.0000
  H   H1385     1.0  0.54466  0.73556  0.38072  1.0000
  H   H1386     1.0  0.77140  0.70289  0.50040  1.0000
  H   H1387     1.0  0.81865  0.69505  0.47237  1.0000
  C   C815      1.0  0.49789  0.86513  0.04665  1.0000
  H   H1388     1.0  0.54346  0.76453  0.37276  1.0000
  C   C816      1.0  0.52896  0.89591  0.41285  1.0000
  H   H1389     1.0  0.53434  0.75786  0.15087  1.0000
  H   H1390     1.0  0.84604  0.68211  0.47908  1.0000
  S   S238      1.0  0.61885  0.88559  0.48660  1.0000
  H   H1391     1.0  0.56418  0.75345  0.11866  1.0000
  H   H1392     1.0  0.53422  0.95950  0.49739  1.0000
  C   C817      1.0  0.50363  0.90387  0.03596  1.0000
  H   H1393     1.0  0.74006  0.69129  0.16041  1.0000
  H   H1394     1.0  0.53550  0.78471  0.33245  1.0000
  H   H1395     1.0  0.55609  0.72149  0.30549  1.0000
  H   H1396     1.0  0.50786  0.70547  0.19501  1.0000
  C   C818      1.0  0.52396  0.76816  0.13529  1.0000
  C   C819      1.0  0.51674  0.80683  0.11793  1.0000
  H   H1397     1.0  0.52679  0.75457  0.27378  1.0000
  H   H1398     1.0  0.54503  0.98583  0.49159  1.0000
  H   H1399     1.0  0.68659  0.90024  0.03524  1.0000
  H   H1400     1.0  0.53006  0.98478  0.43869  1.0000
  H   H1401     1.0  0.55644  0.74512  0.34759  1.0000
  H   H1402     1.0  0.54101  0.85097  0.38164  1.0000
  C   C820      1.0  0.53083  0.97540  0.48553  1.0000
  H   H1403     1.0  0.55464  0.78655  0.17023  1.0000
  C   C821      1.0  0.53962  0.72456  0.29467  1.0000
  C   C822      1.0  0.69853  0.68430  0.13639  1.0000
  H   H1404     1.0  0.67597  0.69626  0.17124  1.0000
  H   H1405     1.0  0.83071  0.67601  0.44663  1.0000
  H   H1406     1.0  0.83611  0.66786  0.20670  1.0000
  H   H1407     1.0  0.50740  0.78663  0.34341  1.0000
  H   H1408     1.0  0.50460  0.84857  0.05097  1.0000
  H   H1409     1.0  0.52917  0.87745  0.45318  1.0000
  H   H1410     1.0  0.75617  0.67029  0.17901  1.0000
  C   C823      1.0  0.74346  0.67311  0.16140  1.0000
  N   N61       1.0  0.50918  0.98619  0.49500  1.0000
  C   C824      1.0  0.69170  0.70081  0.16087  1.0000
  Fe  Fe122     1.0  0.60413  0.91928  0.49982  1.0000
  H   H1411     1.0  0.70479  0.70234  0.17803  1.0000
  H   H1412     1.0  0.51749  0.72654  0.34520  1.0000
  H   H1413     1.0  0.54944  0.96286  0.44837  1.0000
  H   H1414     1.0  0.54507  0.90362  0.41803  1.0000
  C   C825      1.0  0.66336  0.66662  0.24069  1.0000
  S   S239      1.0  0.52140  0.92482  0.02621  1.0000
  H   H1415     1.0  0.52182  0.79187  0.27902  1.0000
  H   H1416     1.0  0.71266  0.69128  0.12447  1.0000
  C   C826      1.0  0.68675  0.66419  0.24090  1.0000
  H   H1417     1.0  0.63492  0.99517  0.48258  1.0000
  H   H1418     1.0  0.51929  0.81388  0.30510  1.0000
  C   C827      1.0  0.64646  0.98888  0.01736  1.0000
  H   H1419     1.0  0.50661  0.75009  0.36334  1.0000
  C   C828      1.0  0.51324  0.79716  0.29925  1.0000
  H   H1420     1.0  0.51576  0.90791  0.41994  1.0000
  H   H1421     1.0  0.52437  0.82769  0.37163  1.0000
  H   H1422     1.0  0.66146  0.97896  0.02169  1.0000
  S   S240      1.0  0.62316  0.95146  0.50148  1.0000
  H   H1423     1.0  0.49853  0.87108  0.37880  1.0000
  H   H1424     1.0  0.75114  0.66729  0.14077  1.0000
  H   H1425     1.0  0.49726  0.82659  0.43116  1.0000
  C   C829      1.0  0.60720  0.99160  0.00583  1.0000
  C   C830      1.0  0.50473  0.85573  0.39027  1.0000
  C   C831      1.0  0.49978  0.76744  0.14580  1.0000
  H   H1426     1.0  0.50151  0.80855  0.13107  1.0000
  H   H1427     1.0  0.49989  0.98722  0.01791  1.0000
  H   H1428     1.0  0.50597  0.84130  0.46289  1.0000
  H   H1429     1.0  0.49691  0.77684  0.16626  1.0000
  C   C832      1.0  0.49773  0.71871  0.20459  1.0000
  C   C833      1.0  0.77569  0.68496  0.50356  1.0000
  H   H1430     1.0  0.98483  0.66416  0.42060  1.0000
  Fe  Fe123     1.0  0.57988  0.88863  0.96213  1.0000
  H   H1431     1.0  0.61010  0.75390  0.82129  1.0000
  S   S241      1.0  0.57178  0.87928  0.91449  1.0000
  C   C834      1.0  0.61876  0.70913  0.80031  1.0000
  S   S242      1.0  0.58504  0.90566  0.53735  1.0000
  C   C835      1.0  0.50461  0.75127  0.74310  1.0000
  Fe  Fe124     1.0  0.59710  0.87186  0.52180  1.0000
  S   S243      1.0  0.60339  0.84083  0.54979  1.0000
  H   H1432     1.0  0.51786  0.84461  0.98955  1.0000
  H   H1433     1.0  0.70480  0.71511  0.76573  1.0000
  C   C836      1.0  0.59374  0.71891  0.83982  1.0000
  S   S244      1.0  0.57175  0.92429  0.97491  1.0000
  Fe  Fe125     1.0  0.59786  0.79324  0.78253  1.0000
  S   S245      1.0  0.58128  0.76138  0.76972  1.0000
  S   S246      1.0  0.60577  0.79961  0.83113  1.0000
  Fe  Fe126     1.0  0.60428  0.80566  0.71776  1.0000
  S   S247      1.0  0.58855  0.77473  0.70136  1.0000
  S   S248      1.0  0.61635  0.83308  0.68831  1.0000
  Fe  Fe127     1.0  0.56269  0.78206  0.73551  1.0000
  S   S249      1.0  0.52624  0.78771  0.72170  1.0000
  Fe  Fe128     1.0  0.60894  0.75686  0.73691  1.0000
  S   S250      1.0  0.62710  0.72310  0.72704  1.0000
  S   S251      1.0  0.57777  0.81402  0.75042  1.0000
  S   S252      1.0  0.62622  0.78766  0.75122  1.0000
  C   C837      1.0  0.65340  0.70895  0.73433  1.0000
  C   C838      1.0  0.65665  0.68679  0.72477  1.0000
  H   H1434     1.0  0.63154  0.71509  0.87421  1.0000
  H   H1435     1.0  0.87071  0.68536  0.92863  1.0000
  H   H1436     1.0  0.53780  0.83583  0.90298  1.0000
  C   C839      1.0  0.67108  0.71906  0.74894  1.0000
  C   C840      1.0  0.50236  0.90496  0.94927  1.0000
  C   C841      1.0  0.86911  0.66932  0.91672  1.0000
  H   H1437     1.0  0.66924  0.73612  0.75612  1.0000
  C   C842      1.0  0.50316  0.77376  0.73553  1.0000
  N   N62       1.0  0.53410  0.84580  0.62165  1.0000
  H   H1438     1.0  0.52046  0.74231  0.74232  1.0000
  H   H1439     1.0  0.62438  0.69007  0.85769  1.0000
  H   H1440     1.0  0.51766  0.84712  0.57865  1.0000
  H   H1441     1.0  0.65911  0.73883  0.81482  1.0000
  C   C843      1.0  0.60691  0.83927  0.58833  1.0000
  C   C844      1.0  0.61333  0.85747  0.60522  1.0000
  C   C845      1.0  0.61611  0.85532  0.63583  1.0000
  C   C846      1.0  0.61201  0.83517  0.64990  1.0000
  C   C847      1.0  0.60519  0.81712  0.63306  1.0000
  C   C848      1.0  0.60299  0.81907  0.60241  1.0000
  H   H1442     1.0  0.61649  0.87308  0.59466  1.0000
  H   H1443     1.0  0.62148  0.86937  0.64867  1.0000
  H   H1444     1.0  0.60174  0.80165  0.64364  1.0000
  H   H1445     1.0  0.59800  0.80491  0.58950  1.0000
  C   C849      1.0  0.58166  0.85701  0.89179  1.0000
  C   C850      1.0  0.59655  0.84036  0.90207  1.0000
  C   C851      1.0  0.60370  0.82296  0.88322  1.0000
  C   C852      1.0  0.59613  0.82197  0.85388  1.0000
  C   C853      1.0  0.58115  0.83857  0.84367  1.0000
  C   C854      1.0  0.57396  0.85592  0.86253  1.0000
  H   H1446     1.0  0.60260  0.84091  0.92449  1.0000
  H   H1447     1.0  0.61528  0.81025  0.89140  1.0000
  H   H1448     1.0  0.57513  0.83808  0.82123  1.0000
  H   H1449     1.0  0.56244  0.86868  0.85431  1.0000
  H   H1450     1.0  0.66243  0.68645  0.85653  1.0000
  H   H1451     1.0  0.62803  0.74964  0.85209  1.0000
  H   H1452     1.0  0.50169  0.91809  0.96642  1.0000
  H   H1453     1.0  0.93426  0.68975  0.89672  1.0000
  H   H1454     1.0  0.83629  0.68197  0.90319  1.0000
  H   H1455     1.0  0.56386  0.84837  0.67090  1.0000
  C   C855      1.0  0.49669  0.88262  0.96327  1.0000
  S   S253      1.0  0.61158  0.88736  0.98923  1.0000
  H   H1456     1.0  0.89658  0.69480  0.89435  1.0000
  H   H1457     1.0  0.60756  0.71867  0.78489  1.0000
  C   C856      1.0  0.58923  0.98037  0.51934  1.0000
  C   C857      1.0  0.51796  0.85857  0.92963  1.0000
  H   H1458     1.0  0.50297  0.84401  0.64423  1.0000
  H   H1459     1.0  0.80653  0.69822  0.51981  1.0000
  H   H1460     1.0  0.79201  0.68300  0.54525  1.0000
  H   H1461     1.0  0.84202  0.68063  0.52688  1.0000
  H   H1462     1.0  0.65986  0.69942  0.82232  1.0000
  C   C858      1.0  0.83368  0.66535  0.53369  1.0000
  H   H1463     1.0  0.62378  0.67368  0.81189  1.0000
  C   C859      1.0  0.54926  0.87658  0.58793  1.0000
  H   H1464     1.0  0.59018  0.75009  0.86566  1.0000
  H   H1465     1.0  0.59755  0.72568  0.88742  1.0000
  H   H1466     1.0  0.53154  0.81427  0.64429  1.0000
  C   C860      1.0  0.83164  0.66726  0.56730  1.0000
  H   H1467     1.0  0.59165  0.98370  0.00119  1.0000
  C   C861      1.0  0.58795  0.73195  0.86808  1.0000
  H   H1468     1.0  0.52876  0.86679  0.52215  1.0000
  H   H1469     1.0  0.51646  0.82225  0.92178  1.0000
  H   H1470     1.0  0.57010  0.72989  0.87278  1.0000
  N   N63       1.0  0.61769  0.71928  0.83052  1.0000
  C   C862      1.0  0.85103  0.67382  0.89287  1.0000
  C   C863      1.0  0.61279  0.68449  0.79791  1.0000
  C   C864      1.0  0.52549  0.83494  0.59403  1.0000
  H   H1471     1.0  0.53211  0.87945  0.57956  1.0000
  S   S254      1.0  0.72078  0.67063  0.75266  1.0000
  H   H1472     1.0  0.58852  0.70160  0.84342  1.0000
  C   C865      1.0  0.51496  0.85670  0.63773  1.0000
  C   C866      1.0  0.69462  0.68486  0.74482  1.0000
  H   H1473     1.0  0.56147  0.82025  0.68201  1.0000
  N   N64       1.0  0.66716  0.76608  0.66953  1.0000
  C   C867      1.0  0.67315  0.74148  0.66824  1.0000
  C   C868      1.0  0.64215  0.76829  0.66965  1.0000
  C   C869      1.0  0.67634  0.77495  0.69807  1.0000
  C   C870      1.0  0.67715  0.77735  0.64361  1.0000
  C   C871      1.0  0.69797  0.73484  0.67242  1.0000
  C   C872      1.0  0.63008  0.75747  0.64340  1.0000
  C   C873      1.0  0.67223  0.79988  0.70421  1.0000
  C   C874      1.0  0.66597  0.79969  0.63351  1.0000
  H   H1474     1.0  0.66394  0.73229  0.68499  1.0000
  H   H1475     1.0  0.66803  0.73424  0.64680  1.0000
  H   H1476     1.0  0.63607  0.78581  0.67079  1.0000
  H   H1477     1.0  0.63571  0.76067  0.68983  1.0000
  H   H1478     1.0  0.66961  0.76564  0.71684  1.0000
  H   H1479     1.0  0.69469  0.77249  0.69942  1.0000
  H   H1480     1.0  0.69507  0.78026  0.64790  1.0000
  H   H1481     1.0  0.67653  0.76622  0.62407  1.0000
  H   H1482     1.0  0.70881  0.74466  0.65843  1.0000
  H   H1483     1.0  0.70330  0.73616  0.69576  1.0000
  H   H1484     1.0  0.70055  0.71704  0.66635  1.0000
  H   H1485     1.0  0.63051  0.73909  0.64535  1.0000
  H   H1486     1.0  0.61227  0.76283  0.64333  1.0000
  H   H1487     1.0  0.63698  0.76231  0.62212  1.0000
  H   H1488     1.0  0.68173  0.81025  0.68918  1.0000
  H   H1489     1.0  0.67830  0.80367  0.72674  1.0000
  H   H1490     1.0  0.65443  0.80494  0.70346  1.0000
  H   H1491     1.0  0.67894  0.81058  0.62509  1.0000
  H   H1492     1.0  0.65719  0.80941  0.65057  1.0000
  H   H1493     1.0  0.65446  0.79709  0.61461  1.0000
  H   H1494     1.0  0.52084  0.86450  0.65846  1.0000
  H   H1495     1.0  0.92320  0.67189  0.96920  1.0000
  H   H1496     1.0  0.61525  0.67893  0.77489  1.0000
  C   C875      1.0  0.65645  0.70212  0.84579  1.0000
  H   H1497     1.0  0.64798  0.76669  0.81418  1.0000
  C   C876      1.0  0.55219  0.83454  0.67172  1.0000
  C   C877      1.0  0.62425  0.74327  0.82967  1.0000
  H   H1498     1.0  0.53828  0.83882  0.68655  1.0000
  H   H1499     1.0  0.55826  0.83060  0.57303  1.0000
  H   H1500     1.0  0.51192  0.82353  0.59925  1.0000
  C   C878      1.0  0.63167  0.70636  0.85270  1.0000
  C   C879      1.0  0.54381  0.82747  0.64102  1.0000
  H   H1501     1.0  0.54724  0.80525  0.58692  1.0000
  H   H1502     1.0  0.63917  0.74768  0.78676  1.0000
  C   C880      1.0  0.55189  0.86227  0.61597  1.0000
  S   S255      1.0  0.52326  0.91417  0.51178  1.0000
  C   C881      1.0  0.54290  0.82141  0.57634  1.0000
  H   H1503     1.0  0.51952  0.90456  0.94076  1.0000
  H   H1504     1.0  0.55381  0.87376  0.63496  1.0000
  H   H1505     1.0  0.58246  0.72582  0.82219  1.0000
  H   H1506     1.0  0.55834  0.81903  0.63055  1.0000
  C   C882      1.0  0.90093  0.67775  0.88617  1.0000
  H   H1507     1.0  0.85659  0.68510  0.87554  1.0000
  H   H1508     1.0  0.63544  0.71020  0.79080  1.0000
  C   C883      1.0  0.64389  0.74904  0.81026  1.0000
  H   H1509     1.0  0.66661  0.71588  0.85426  1.0000
  H   H1510     1.0  0.56820  0.85331  0.61409  1.0000
  H   H1511     1.0  0.53588  0.81762  0.55429  1.0000
  H   H1512     1.0  0.89436  0.67929  0.96724  1.0000
  C   C884      1.0  0.69139  0.70708  0.75425  1.0000
  H   H1513     1.0  0.55977  0.86951  0.57019  1.0000
  H   H1514     1.0  0.55592  0.89325  0.59251  1.0000
  H   H1515     1.0  0.64327  0.67869  0.71332  1.0000
  H   H1516     1.0  0.50844  0.96986  0.98813  1.0000
  H   H1517     1.0  0.50957  0.87949  0.98056  1.0000
  C   C885      1.0  0.50163  0.87529  0.62148  1.0000
  H   H1518     1.0  0.82309  0.68304  0.57391  1.0000
  H   H1519     1.0  0.51289  0.81776  0.97310  1.0000
  C   C886      1.0  0.67704  0.67485  0.72988  1.0000
  H   H1520     1.0  0.59511  0.68192  0.80284  1.0000
  H   H1521     1.0  0.84860  0.66722  0.57730  1.0000
  S   S256      1.0  0.55963  0.87446  0.99796  1.0000
  C   C887      1.0  0.51090  0.99130  0.52727  1.0000
  H   H1522     1.0  0.91342  0.69122  0.94181  1.0000
  C   C888      1.0  0.79733  0.68258  0.52202  1.0000
  H   H1523     1.0  0.50128  0.83700  0.52242  1.0000
  H   H1524     1.0  0.52267  0.87269  0.91564  1.0000
  C   C889      1.0  0.51528  0.97114  0.54765  1.0000
  H   H1525     1.0  0.89319  0.67666  0.86388  1.0000
  H   H1526     1.0  0.53120  0.85740  0.94689  1.0000
  H   H1527     1.0  0.50989  0.83923  0.88987  1.0000
  C   C890      1.0  0.92647  0.67702  0.88256  1.0000
  C   C891      1.0  0.52027  0.83768  0.91009  1.0000
  H   H1528     1.0  0.53337  0.96707  0.54982  1.0000
  H   H1529     1.0  0.58164  0.96592  0.52831  1.0000
  C   C892      1.0  0.51133  0.87097  0.51913  1.0000
  H   H1530     1.0  0.51178  0.89010  0.61835  1.0000
  H   H1531     1.0  0.63084  0.98151  0.58760  1.0000
  C   C893      1.0  0.60935  0.97787  0.50468  1.0000
  C   C894      1.0  0.90924  0.67597  0.95369  1.0000
  H   H1532     1.0  0.76171  0.67729  0.51491  1.0000
  H   H1533     1.0  0.93028  0.68176  0.85974  1.0000
  C   C895      1.0  0.50420  0.89310  0.51487  1.0000
  C   C896      1.0  0.50494  0.83320  0.98199  1.0000
  H   H1534     1.0  0.50850  0.97500  0.56963  1.0000
  H   H1535     1.0  0.50682  0.95606  0.54022  1.0000
  H   H1536     1.0  0.49602  0.82799  0.00179  1.0000
