data_image0
_chemical_formula_structural       FeHSHCHFeHCSFeS2FeS2FeSFeS3FeS2FeS2FeSFeS3H2C2HC6H6C3H2C6H6CSHCH2CHCH2C2HCH3CH4CH5CHCHCHC2HCHCH2C2HC2HC2SCNHCH4CSH4C2HNH10CHC2H9CHC2H3NCH7C2HC4H2C3H3CHFeHCH2SN2HCH2CHCHC3NCH6CHCH2CH7SFeS2FeS2FeSFeS3FeS2FeS2FeSFeS3C3HCHNH3C2H3CH2CHC6H4C3H2C6H6C3H4C4H3CH13CH3CHNC8H10CH5CH7CHFeH2CH2NH3CH2CH2CH2C2H3CH8C3H2C2H2CNCHSHCHNHCHCH3CH2CH4CHCH3C3HCH3CHCH2FeHSHC2SHFeS2FeS2FeSFeS3FeS2FeS2FeSFeS3C2H5CHC7H5CH2CHNH2CH2C7H4NH5CHC2HNC4H8CH3CH2SH3CH2C3H3CHCH2CH4FeHC2H4CH4CHCH2SH4C2NH2C2H2C2SC3H2NC3FeH4CHC2HCH5CH4CH2CH2CH2SH2CHCH6CH2C2H2SC2SFeS2FeS2FeSFeS3FeS2FeS2FeSFeS3CH4C3H3C2H2C2HCH2C6H4C7H13CH2NH6CH2CH3C2HCH2C5H2CHC2H2C2HCH7CHCH3C2HC2H3FeH2CH2C2H4CH5NC2NHCHC2H2CHCH4CH5CH3CNC2H3C2H10CH2CH2CH2C2SCSHFeH3CSFeSC3H2C2H2CH4CH3SH4CHC2HNC2SH4CHC2H2CFeC2H2SCFeHCFeCSNHCHSC2HCNHC2H3CHSH4CHC2H4SH2CH2CH2C2H3C2H4FeH3CHCH2CSH3CHSCH2SCHCFeSH2SHCHFeHCH2C3SC2FeHFeSFe2SH2S2C2HCH2CHSCSCFeCHC2H2CH6C3H4CHCSC2H2SH3CFeH2SCHCH4SHCH7NH2NHC2H12CHNHCSNHNCHS2C4HCHCH11CH2FeH9CHCHCHCH2CH3CHCSHCFeHC2H3CHCHCH2CHSFeCSFeCH2SFeS2FeS2FeSFeS3FeS2FeS2FeSFeS3C6H4CH4CHCH2NC2H3C3H2C2HCHC6H4CH4SC4H3C2H3C2H2CNH5CH5C3H4CH3C3HCH2CHSH4CH2NHCHNC4H2CH9C3HSH2C2H3C3HCH2CHCH2CH8SHCH2CH4CHCHCH5FeH2CHCHC2H2CHNH8CH2CH3CH7SFeS2FeS2FeSFeS3FeS2FeS2FeSFeHS2C2H2CHC2HC6H6C5H3C4H3CH3C6H4NC6H8CH5NC8H17CH2CHC3HNC2H2SH3C2H2FeH3CHCHCH5SCH4C2H4CHCH13CH2CHNHC2H2CHCH8CHCH3C2HCSFeSFeS2FeS2FeSFeS3FeS2FeS2FeSFeS3CNCH2C6H4C4H2CH6CHC6H5C2H3CH4CHCH3CH2CH2C2H3C2HCH2FeHCH2CH9C2H5CH2C2H3FeCH2CH2CHC2HSHCNHCH2CH3CH2CH2CH4NHCH3SNC2NCSHCH3CH7CHC4H2C2HCH3CH5CHC2H2NC3H5C3HCSC2SC2HCH2FeS2FeS2FeSFeS3FeS2FeS2FeSFeS3C3H2C3H2C6H4C2H4C2H2C6H7C2H4NC4HCH4C2H7CNCH2CH2CH2CH4CH2CH3SHNHNC8H21CH4C3H7NCHFeHCH6C3H11C2HC2H2CH5CH2CH
_chemical_formula_sum              "Fe96 H1152 S192 C672 N48"
_cell_length_a       62.7665
_cell_length_b       63.0431
_cell_length_c       35.1716
_cell_angle_alpha    92.179
_cell_angle_beta     91.5475
_cell_angle_gamma    88.391

_space_group_name_H-M_alt    "P 1"
_space_group_IT_number       1

loop_
  _space_group_symop_operation_xyz
  'x, y, z'

loop_
  _atom_site_type_symbol
  _atom_site_label
  _atom_site_symmetry_multiplicity
  _atom_site_fract_x
  _atom_site_fract_y
  _atom_site_fract_z
  _atom_site_occupancy
  Fe  Fe1       1.0  0.08033  0.39213  0.05408  1.0000
  H   H1        1.0  0.18532  0.14681  0.18203  1.0000
  S   S1        1.0  0.08978  0.36457  0.09326  1.0000
  H   H2        1.0  0.26886  0.01227  0.35369  1.0000
  C   C1        1.0  0.13089  0.27648  0.42734  1.0000
  H   H3        1.0  0.22478  0.21047  0.26682  1.0000
  Fe  Fe2       1.0  0.08690  0.43688  0.02114  1.0000
  H   H4        1.0  0.29230  0.11551  0.09073  1.0000
  C   C2        1.0  0.98827  0.37253  0.05293  1.0000
  S   S2        1.0  0.06752  0.42520  0.06895  1.0000
  Fe  Fe3       1.0  0.06582  0.27927  0.36647  1.0000
  S   S3        1.0  0.06533  0.24766  0.33424  1.0000
  S   S4        1.0  0.05677  0.27420  0.42826  1.0000
  Fe  Fe4       1.0  0.07329  0.30327  0.29123  1.0000
  S   S5        1.0  0.07389  0.27281  0.25629  1.0000
  S   S6        1.0  0.07276  0.33599  0.26373  1.0000
  Fe  Fe5       1.0  0.04529  0.26458  0.29003  1.0000
  S   S7        1.0  0.01359  0.25734  0.25971  1.0000
  Fe  Fe6       1.0  0.09397  0.25896  0.30441  1.0000
  S   S8        1.0  0.12720  0.24267  0.30103  1.0000
  S   S9        1.0  0.04409  0.29532  0.32367  1.0000
  S   S10       1.0  0.09506  0.29031  0.33793  1.0000
  Fe  Fe7       1.0  0.24037  0.11686  0.36043  1.0000
  S   S11       1.0  0.20648  0.10658  0.35920  1.0000
  S   S12       1.0  0.25922  0.11947  0.41691  1.0000
  Fe  Fe8       1.0  0.24248  0.11748  0.27254  1.0000
  S   S13       1.0  0.20843  0.10701  0.26718  1.0000
  S   S14       1.0  0.25517  0.12351  0.21280  1.0000
  Fe  Fe9       1.0  0.20073  0.13090  0.31433  1.0000
  S   S15       1.0  0.16815  0.14857  0.31146  1.0000
  Fe  Fe10      1.0  0.21711  0.08395  0.31227  1.0000
  S   S16       1.0  0.20495  0.05049  0.30514  1.0000
  S   S17       1.0  0.23432  0.14278  0.31802  1.0000
  S   S18       1.0  0.25148  0.09268  0.31525  1.0000
  H   H5        1.0  0.03004  0.35836  0.11294  1.0000
  H   H6        1.0  0.15987  0.20555  0.43952  1.0000
  C   C3        1.0  0.14848  0.23351  0.40752  1.0000
  C   C4        1.0  0.20353  0.16188  0.23049  1.0000
  H   H7        1.0  0.22859  0.07673  0.41999  1.0000
  C   C5        1.0  0.13811  0.21631  0.30387  1.0000
  C   C6        1.0  0.16045  0.21333  0.30613  1.0000
  C   C7        1.0  0.16995  0.19286  0.30907  1.0000
  C   C8        1.0  0.15724  0.17497  0.30906  1.0000
  C   C9        1.0  0.13491  0.17797  0.30692  1.0000
  C   C10       1.0  0.12539  0.19847  0.30451  1.0000
  H   H8        1.0  0.17046  0.22701  0.30602  1.0000
  H   H9        1.0  0.18706  0.19098  0.31172  1.0000
  H   H10       1.0  0.12488  0.16429  0.30696  1.0000
  H   H11       1.0  0.10822  0.20042  0.30273  1.0000
  H   H12       1.0  0.22739  0.03185  0.24051  1.0000
  H   H13       1.0  0.23516  0.06853  0.23915  1.0000
  C   C11       1.0  0.24098  0.02937  0.33268  1.0000
  C   C12       1.0  0.22032  0.02775  0.31728  1.0000
  C   C13       1.0  0.21173  0.00756  0.31067  1.0000
  H   H14       1.0  0.24775  0.04483  0.33794  1.0000
  H   H15       1.0  0.19575  0.00619  0.29864  1.0000
  C   C14       1.0  0.08497  0.35716  0.14098  1.0000
  C   C15       1.0  0.07572  0.37112  0.16815  1.0000
  C   C16       1.0  0.07261  0.36451  0.20561  1.0000
  C   C17       1.0  0.07820  0.34372  0.21643  1.0000
  C   C18       1.0  0.08732  0.32970  0.18919  1.0000
  C   C19       1.0  0.09082  0.33645  0.15196  1.0000
  H   H16       1.0  0.07126  0.38713  0.16048  1.0000
  H   H17       1.0  0.06569  0.37561  0.22633  1.0000
  H   H18       1.0  0.09186  0.31372  0.19686  1.0000
  H   H19       1.0  0.09811  0.32549  0.13142  1.0000
  H   H20       1.0  0.02371  0.24114  0.43392  1.0000
  H   H21       1.0  0.22834  0.21858  0.19471  1.0000
  C   C20       1.0  0.02953  0.30607  0.20077  1.0000
  S   S19       1.0  0.10231  0.40418  0.00960  1.0000
  H   H22       1.0  0.24145  0.16766  0.12170  1.0000
  C   C21       1.0  0.99981  0.27839  0.44834  1.0000
  H   H23       1.0  0.29604  0.05850  0.27472  1.0000
  H   H24       1.0  0.00620  0.26644  0.46851  1.0000
  C   C22       1.0  0.20153  0.19712  0.20400  1.0000
  H   H25       1.0  0.21985  0.08440  0.17885  1.0000
  C   C23       1.0  0.27797  0.11672  0.18458  1.0000
  H   H26       1.0  0.02484  0.22892  0.38748  1.0000
  H   H27       1.0  0.11967  0.20270  0.41137  1.0000
  C   C24       1.0  0.28703  0.05999  0.24727  1.0000
  C   C25       1.0  0.99160  0.24778  0.28375  1.0000
  H   H28       1.0  0.20399  0.00106  0.43010  1.0000
  C   C26       1.0  0.26575  0.03855  0.17457  1.0000
  H   H29       1.0  0.14373  0.24061  0.47803  1.0000
  H   H30       1.0  0.22349  0.18560  0.29070  1.0000
  H   H31       1.0  0.22685  0.02587  0.19098  1.0000
  C   C27       1.0  0.06638  0.28193  0.47477  1.0000
  H   H32       1.0  0.25436  0.03194  0.15263  1.0000
  H   H33       1.0  0.02763  0.32175  0.12815  1.0000
  H   H34       1.0  0.25352  0.00316  0.25239  1.0000
  H   H35       1.0  0.21035  0.05872  0.18791  1.0000
  C   C28       1.0  0.01232  0.33610  0.25817  1.0000
  H   H36       1.0  0.00374  0.35482  0.20990  1.0000
  H   H37       1.0  0.22138  0.05386  0.39377  1.0000
  H   H38       1.0  0.02433  0.36800  0.15979  1.0000
  H   H39       1.0  0.02306  0.29996  0.22708  1.0000
  H   H40       1.0  0.15960  0.24502  0.42149  1.0000
  C   C29       1.0  0.12872  0.23331  0.46691  1.0000
  H   H41       1.0  0.11265  0.22022  0.37425  1.0000
  C   C30       1.0  0.24256  0.06505  0.21104  1.0000
  H   H42       1.0  0.27810  0.02579  0.17907  1.0000
  C   C31       1.0  0.21877  0.02836  0.45873  1.0000
  H   H43       1.0  0.28055  0.07649  0.24719  1.0000
  C   C32       1.0  0.24421  0.99074  0.33551  1.0000
  C   C33       1.0  0.25290  0.01092  0.34157  1.0000
  H   H44       1.0  0.22633  0.01008  0.40580  1.0000
  C   C34       1.0  0.18279  0.15380  0.21098  1.0000
  H   H45       1.0  0.22381  0.14982  0.17310  1.0000
  C   C35       1.0  0.27634  0.11868  0.14478  1.0000
  H   H46       1.0  0.19540  0.08424  0.44367  1.0000
  H   H47       1.0  0.00277  0.22376  0.41638  1.0000
  C   C36       1.0  0.02856  0.33309  0.15314  1.0000
  C   C37       1.0  0.29389  0.11382  0.12117  1.0000
  H   H48       1.0  0.10135  0.26035  0.42447  1.0000
  C   C38       1.0  0.23781  0.02720  0.21632  1.0000
  C   C39       1.0  0.22008  0.06162  0.42260  1.0000
  H   H49       1.0  0.13571  0.27594  0.45782  1.0000
  C   C40       1.0  0.24855  0.11803  0.46319  1.0000
  C   C41       1.0  0.22473  0.06736  0.18035  1.0000
  S   S20       1.0  0.10495  0.46846  0.02252  1.0000
  C   C42       1.0  0.03148  0.28688  0.17248  1.0000
  N   N1        1.0  0.25428  0.04383  0.21111  1.0000
  H   H50       1.0  0.26137  0.12403  0.13199  1.0000
  C   C43       1.0  0.98794  0.29567  0.47243  1.0000
  H   H51       1.0  0.00395  0.21562  0.28447  1.0000
  H   H52       1.0  0.21388  0.14771  0.23633  1.0000
  H   H53       1.0  0.29879  0.05710  0.22457  1.0000
  H   H54       1.0  0.24105  0.19232  0.14848  1.0000
  C   C44       1.0  0.08102  0.29807  0.48140  1.0000
  S   S21       1.0  0.00951  0.43003  0.02742  1.0000
  H   H55       1.0  0.04601  0.31075  0.20936  1.0000
  H   H56       1.0  0.21559  0.11948  0.44489  1.0000
  H   H57       1.0  0.08129  0.20605  0.40006  1.0000
  H   H58       1.0  0.20739  0.16896  0.15005  1.0000
  C   C45       1.0  0.24645  0.00446  0.22326  1.0000
  C   C46       1.0  0.99298  0.40930  0.03784  1.0000
  H   H59       1.0  0.22998  0.06189  0.15172  1.0000
  N   N2        1.0  0.01688  0.32501  0.18653  1.0000
  H   H60       1.0  0.04583  0.33438  0.16017  1.0000
  H   H61       1.0  0.24486  0.16742  0.23794  1.0000
  H   H62       1.0  0.03153  0.35093  0.21880  1.0000
  H   H63       1.0  0.20101  0.02455  0.40361  1.0000
  H   H64       1.0  0.20415  0.03165  0.47540  1.0000
  H   H65       1.0  0.08862  0.21332  0.44791  1.0000
  H   H66       1.0  0.17662  0.21275  0.40199  1.0000
  H   H67       1.0  0.23862  0.07687  0.48557  1.0000
  H   H68       1.0  0.08702  0.30632  0.45767  1.0000
  H   H69       1.0  0.23295  0.99339  0.22144  1.0000
  C   C47       1.0  0.26949  0.04338  0.24505  1.0000
  H   H70       1.0  0.25580  0.16932  0.16599  1.0000
  C   C48       1.0  0.26844  0.06047  0.43682  1.0000
  C   C49       1.0  0.22105  0.16729  0.17070  1.0000
  H   H71       1.0  0.13022  0.21619  0.47354  1.0000
  H   H72       1.0  0.20295  0.23100  0.19531  1.0000
  H   H73       1.0  0.14782  0.23741  0.37687  1.0000
  H   H74       1.0  0.28104  0.07049  0.17461  1.0000
  H   H75       1.0  0.19425  0.20269  0.23133  1.0000
  H   H76       1.0  0.17015  0.16645  0.21021  1.0000
  H   H77       1.0  0.99500  0.35718  0.06011  1.0000
  H   H78       1.0  0.18769  0.05714  0.44563  1.0000
  H   H79       1.0  0.98949  0.29679  0.21864  1.0000
  C   C50       1.0  0.21155  0.21617  0.18573  1.0000
  H   H80       1.0  0.99816  0.32635  0.26083  1.0000
  C   C51       1.0  0.98876  0.30016  0.37343  1.0000
  C   C52       1.0  0.24097  0.17490  0.15099  1.0000
  H   H81       1.0  0.17650  0.14101  0.22809  1.0000
  H   H82       1.0  0.99344  0.24932  0.36459  1.0000
  H   H83       1.0  0.29160  0.05099  0.14234  1.0000
  N   N3        1.0  0.21568  0.17767  0.20894  1.0000
  C   C53       1.0  0.15975  0.21150  0.41027  1.0000
  H   H84       1.0  0.24692  0.19197  0.21650  1.0000
  H   H85       1.0  0.04099  0.29050  0.14753  1.0000
  H   H86       1.0  0.26651  0.06303  0.13151  1.0000
  H   H87       1.0  0.21032  0.21465  0.15418  1.0000
  H   H88       1.0  0.02656  0.32766  0.27018  1.0000
  H   H89       1.0  0.24842  0.19736  0.28429  1.0000
  H   H90       1.0  0.18739  0.19324  0.18554  1.0000
  C   C54       1.0  0.23254  0.19464  0.27051  1.0000
  C   C55       1.0  0.22657  0.11788  0.46888  1.0000
  H   H91       1.0  0.00994  0.35071  0.27640  1.0000
  C   C56       1.0  0.00160  0.38974  0.04909  1.0000
  C   C57       1.0  0.21228  0.01553  0.42220  1.0000
  C   C58       1.0  0.19652  0.06834  0.42901  1.0000
  C   C59       1.0  0.23573  0.18243  0.23210  1.0000
  H   H92       1.0  0.19879  0.16854  0.25874  1.0000
  H   H93       1.0  0.25339  0.07830  0.20765  1.0000
  C   C60       1.0  0.27659  0.05704  0.15545  1.0000
  C   C61       1.0  0.11758  0.25728  0.41382  1.0000
  C   C62       1.0  0.29757  0.10987  0.20044  1.0000
  H   H94       1.0  0.26045  0.04540  0.27178  1.0000
  H   H95       1.0  0.27814  0.02778  0.24646  1.0000
  H   H96       1.0  0.29939  0.10868  0.23094  1.0000
  C   C63       1.0  0.99471  0.31947  0.17258  1.0000
  H   H97       1.0  0.11565  0.25793  0.38232  1.0000
  Fe  Fe11      1.0  0.04338  0.41822  0.02234  1.0000
  H   H98       1.0  0.18790  0.06902  0.40103  1.0000
  C   C64       1.0  0.01615  0.34252  0.21707  1.0000
  H   H99       1.0  0.01851  0.38783  0.05458  1.0000
  H   H100      1.0  0.99381  0.29382  0.34506  1.0000
  S   S22       1.0  0.05449  0.38451  0.01004  1.0000
  N   N4        1.0  0.98696  0.26785  0.41640  1.0000
  N   N5        1.0  0.23068  0.04839  0.45290  1.0000
  H   H101      1.0  0.08075  0.23340  0.41395  1.0000
  C   C65       1.0  0.08964  0.21824  0.41810  1.0000
  H   H102      1.0  0.25816  0.99888  0.20181  1.0000
  H   H103      1.0  0.15257  0.19966  0.38992  1.0000
  C   C66       1.0  0.22362  0.98908  0.31975  1.0000
  H   H104      1.0  0.01568  0.28088  0.16317  1.0000
  C   C67       1.0  0.01380  0.23625  0.40872  1.0000
  H   H105      1.0  0.04008  0.27368  0.18698  1.0000
  C   C68       1.0  0.99036  0.22610  0.29016  1.0000
  C   C69       1.0  0.02096  0.35494  0.13863  1.0000
  C   C70       1.0  0.11295  0.21881  0.40577  1.0000
  N   N6        1.0  0.12659  0.23581  0.42439  1.0000
  C   C71       1.0  0.25292  0.04215  0.44068  1.0000
  H   H106      1.0  0.12117  0.29129  0.42355  1.0000
  H   H107      1.0  0.14521  0.27778  0.40981  1.0000
  H   H108      1.0  0.01447  0.26569  0.38035  1.0000
  H   H109      1.0  0.28421  0.05369  0.42832  1.0000
  H   H110      1.0  0.09506  0.24523  0.47714  1.0000
  H   H111      1.0  0.01423  0.28574  0.43763  1.0000
  C   C72       1.0  0.00194  0.25531  0.39077  1.0000
  H   H112      1.0  0.26317  0.07137  0.41419  1.0000
  C   C73       1.0  0.31355  0.10709  0.13703  1.0000
  H   H113      1.0  0.22853  0.01727  0.47641  1.0000
  H   H114      1.0  0.25237  0.03357  0.41254  1.0000
  C   C74       1.0  0.31514  0.10509  0.17685  1.0000
  H   H115      1.0  0.00321  0.30462  0.39019  1.0000
  H   H116      1.0  0.00382  0.35537  0.13022  1.0000
  H   H117      1.0  0.26061  0.03065  0.46035  1.0000
  H   H118      1.0  0.27115  0.06964  0.46395  1.0000
  H   H119      1.0  0.99504  0.31003  0.14516  1.0000
  H   H120      1.0  0.98656  0.33647  0.99736  1.0000
  H   H121      1.0  0.22207  0.22281  0.81258  1.0000
  S   S23       1.0  0.07764  0.38683  0.90332  1.0000
  Fe  Fe12      1.0  0.08296  0.28484  0.65232  1.0000
  S   S24       1.0  0.08122  0.24968  0.64661  1.0000
  S   S25       1.0  0.08721  0.30277  0.59757  1.0000
  Fe  Fe13      1.0  0.08032  0.28447  0.74048  1.0000
  S   S26       1.0  0.07857  0.24838  0.73872  1.0000
  S   S27       1.0  0.07804  0.29934  0.80181  1.0000
  Fe  Fe14      1.0  0.10469  0.24815  0.69592  1.0000
  S   S28       1.0  0.13292  0.22533  0.68205  1.0000
  Fe  Fe15      1.0  0.05545  0.25291  0.68954  1.0000
  S   S29       1.0  0.02672  0.23327  0.67240  1.0000
  S   S30       1.0  0.10796  0.28376  0.70004  1.0000
  S   S31       1.0  0.05559  0.28855  0.69288  1.0000
  Fe  Fe16      1.0  0.22987  0.07868  0.71402  1.0000
  S   S32       1.0  0.25655  0.08851  0.67786  1.0000
  S   S33       1.0  0.23402  0.04662  0.74164  1.0000
  Fe  Fe17      1.0  0.21067  0.12484  0.71868  1.0000
  S   S34       1.0  0.23694  0.13719  0.68409  1.0000
  S   S35       1.0  0.18513  0.14567  0.74837  1.0000
  Fe  Fe18      1.0  0.23170  0.10799  0.64587  1.0000
  S   S36       1.0  0.22173  0.10830  0.58235  1.0000
  Fe  Fe19      1.0  0.25914  0.11645  0.71990  1.0000
  S   S37       1.0  0.29176  0.12320  0.74849  1.0000
  S   S38       1.0  0.20456  0.09624  0.68007  1.0000
  S   S39       1.0  0.23322  0.10612  0.75639  1.0000
  C   C75       1.0  0.23272  0.11334  0.53745  1.0000
  C   C76       1.0  0.00269  0.23477  0.69734  1.0000
  C   C77       1.0  0.13988  0.44848  0.87768  1.0000
  H   H122      1.0  0.00022  0.37632  0.84535  1.0000
  C   C78       1.0  0.25470  0.11396  0.53193  1.0000
  H   H123      1.0  0.28322  0.03845  0.75819  1.0000
  N   N7        1.0  0.12579  0.44313  0.90979  1.0000
  H   H124      1.0  0.26567  0.11230  0.55595  1.0000
  H   H125      1.0  0.23552  0.22443  0.76971  1.0000
  H   H126      1.0  0.01427  0.25510  0.74348  1.0000
  C   C79       1.0  0.07956  0.29382  0.55052  1.0000
  C   C80       1.0  0.08740  0.30408  0.51906  1.0000
  H   H127      1.0  0.15775  0.47412  0.93711  1.0000
  H   H128      1.0  0.10023  0.45908  0.94114  1.0000
  H   H129      1.0  0.07956  0.20597  0.58386  1.0000
  C   C81       1.0  0.06531  0.27732  0.54375  1.0000
  H   H130      1.0  0.09835  0.31692  0.52392  1.0000
  H   H131      1.0  0.24028  0.18517  0.69190  1.0000
  C   C82       1.0  0.26683  0.07659  0.82115  1.0000
  H   H132      1.0  0.05909  0.26931  0.56757  1.0000
  C   C83       1.0  0.14801  0.20403  0.70233  1.0000
  C   C84       1.0  0.16318  0.19297  0.67979  1.0000
  C   C85       1.0  0.17474  0.17520  0.69347  1.0000
  C   C86       1.0  0.17131  0.16826  0.73002  1.0000
  C   C87       1.0  0.15647  0.17956  0.75293  1.0000
  C   C88       1.0  0.14490  0.19737  0.73924  1.0000
  H   H133      1.0  0.16578  0.19800  0.65124  1.0000
  H   H134      1.0  0.18612  0.16672  0.67551  1.0000
  H   H135      1.0  0.15374  0.17439  0.78133  1.0000
  H   H136      1.0  0.13340  0.20577  0.75703  1.0000
  C   C89       1.0  0.23855  0.00331  0.73865  1.0000
  C   C90       1.0  0.22768  0.02096  0.72334  1.0000
  C   C91       1.0  0.21127  0.01763  0.69625  1.0000
  H   H137      1.0  0.25112  0.00572  0.75987  1.0000
  H   H138      1.0  0.20259  0.03111  0.68474  1.0000
  C   C92       1.0  0.07804  0.36221  0.87591  1.0000
  C   C93       1.0  0.07910  0.36269  0.83593  1.0000
  C   C94       1.0  0.07923  0.34377  0.81284  1.0000
  C   C95       1.0  0.07830  0.32395  0.82934  1.0000
  C   C96       1.0  0.07717  0.32350  0.86935  1.0000
  C   C97       1.0  0.07706  0.34242  0.89245  1.0000
  H   H139      1.0  0.07984  0.37782  0.82260  1.0000
  H   H140      1.0  0.08008  0.34452  0.78224  1.0000
  H   H141      1.0  0.07650  0.30834  0.88260  1.0000
  H   H142      1.0  0.07634  0.34163  0.92305  1.0000
  H   H143      1.0  0.20943  0.15231  0.84090  1.0000
  H   H144      1.0  0.04737  0.25903  0.50150  1.0000
  C   C98       1.0  0.29359  0.13545  0.86419  1.0000
  C   C99       1.0  0.28596  0.13251  0.82617  1.0000
  C   C100      1.0  0.29976  0.12503  0.79768  1.0000
  H   H145      1.0  0.14491  0.44118  0.81759  1.0000
  H   H146      1.0  0.28304  0.14209  0.88563  1.0000
  H   H147      1.0  0.26960  0.13665  0.81866  1.0000
  H   H148      1.0  0.29693  0.08901  0.86430  1.0000
  C   C101      1.0  0.26253  0.11629  0.49502  1.0000
  C   C102      1.0  0.08696  0.45230  0.88596  1.0000
  C   C103      1.0  0.14566  0.46885  0.95684  1.0000
  C   C104      1.0  0.01689  0.33940  0.89868  1.0000
  H   H149      1.0  0.09087  0.44991  0.85567  1.0000
  H   H150      1.0  0.24190  0.06247  0.54873  1.0000
  H   H151      1.0  0.24525  0.06787  0.86651  1.0000
  C   C105      1.0  0.02218  0.33978  0.85620  1.0000
  H   H152      1.0  0.15334  0.43601  0.94648  1.0000
  H   H153      1.0  0.07910  0.43799  0.89577  1.0000
  H   H154      1.0  0.25635  0.06941  0.79855  1.0000
  H   H155      1.0  0.12958  0.38747  0.90064  1.0000
  H   H156      1.0  0.19424  0.99868  0.58658  1.0000
  H   H157      1.0  0.23525  0.03641  0.53165  1.0000
  H   H158      1.0  0.19215  0.99433  0.66569  1.0000
  H   H159      1.0  0.03309  0.35258  0.84974  1.0000
  H   H160      1.0  0.27345  0.20801  0.77021  1.0000
  H   H161      1.0  0.10848  0.41709  0.88187  1.0000
  H   H162      1.0  0.02473  0.41129  0.92566  1.0000
  H   H163      1.0  0.25080  0.19451  0.84184  1.0000
  H   H164      1.0  0.15592  0.44057  0.88041  1.0000
  C   C106      1.0  0.24283  0.05120  0.52365  1.0000
  H   H165      1.0  0.10884  0.41717  0.93176  1.0000
  H   H166      1.0  0.07492  0.46553  0.88796  1.0000
  H   H167      1.0  0.11556  0.25915  0.50414  1.0000
  C   C107      1.0  0.22279  0.15872  0.82513  1.0000
  H   H168      1.0  0.26831  0.04093  0.86222  1.0000
  N   N8        1.0  0.07977  0.17801  0.66859  1.0000
  C   C108      1.0  0.08825  0.18906  0.63496  1.0000
  C   C109      1.0  0.09845  0.17366  0.69529  1.0000
  C   C110      1.0  0.06372  0.19294  0.68771  1.0000
  C   C111      1.0  0.06931  0.15799  0.65388  1.0000
  C   C112      1.0  0.07140  0.19697  0.60551  1.0000
  C   C113      1.0  0.11622  0.15869  0.67936  1.0000
  C   C114      1.0  0.05984  0.19015  0.73032  1.0000
  C   C115      1.0  0.06140  0.14295  0.68371  1.0000
  H   H169      1.0  0.09763  0.20308  0.64482  1.0000
  H   H170      1.0  0.09951  0.17850  0.61870  1.0000
  H   H171      1.0  0.09358  0.16677  0.72210  1.0000
  H   H172      1.0  0.10583  0.18890  0.70459  1.0000
  H   H173      1.0  0.06860  0.20973  0.68592  1.0000
  H   H174      1.0  0.04789  0.19210  0.67272  1.0000
  H   H175      1.0  0.05497  0.16195  0.63598  1.0000
  H   H176      1.0  0.07966  0.14864  0.63377  1.0000
  H   H177      1.0  0.99876  0.30121  0.49609  1.0000
  H   H178      1.0  0.30544  0.07875  0.79067  1.0000
  C   C116      1.0  0.28958  0.05461  0.75680  1.0000
  H   H179      1.0  0.11011  0.14325  0.66849  1.0000
  H   H180      1.0  0.12529  0.16625  0.65711  1.0000
  H   H181      1.0  0.12791  0.15513  0.70268  1.0000
  H   H182      1.0  0.05580  0.17378  0.73689  1.0000
  H   H183      1.0  0.04616  0.20070  0.73895  1.0000
  C   C117      1.0  0.21875  0.11548  0.50570  1.0000
  H   H184      1.0  0.04505  0.14772  0.69264  1.0000
  H   H185      1.0  0.07205  0.14170  0.70908  1.0000
  H   H186      1.0  0.06106  0.12654  0.67103  1.0000
  H   H187      1.0  0.01887  0.35323  0.97330  1.0000
  H   H188      1.0  0.14349  0.46568  0.87939  1.0000
  H   H189      1.0  0.27182  0.09187  0.80985  1.0000
  H   H190      1.0  0.31479  0.05272  0.79868  1.0000
  C   C118      1.0  0.11890  0.42039  0.90717  1.0000
  H   H191      1.0  0.99707  0.30402  0.62052  1.0000
  Fe  Fe20      1.0  0.07547  0.39788  0.96670  1.0000
  H   H192      1.0  0.05931  0.20803  0.61834  1.0000
  H   H193      1.0  0.12185  0.45814  0.82643  1.0000
  C   C119      1.0  0.20266  0.21709  0.76175  1.0000
  H   H194      1.0  0.00649  0.32555  0.90069  1.0000
  H   H195      1.0  0.19901  0.23423  0.75787  1.0000
  N   N9        1.0  0.00654  0.35922  0.91617  1.0000
  H   H196      1.0  0.13213  0.48052  0.95801  1.0000
  H   H197      1.0  0.27686  0.06585  0.74706  1.0000
  H   H198      1.0  0.10846  0.23345  0.51637  1.0000
  C   C120      1.0  0.00067  0.24684  0.73130  1.0000
  H   H199      1.0  0.21468  0.06571  0.49882  1.0000
  H   H200      1.0  0.14587  0.40238  0.93330  1.0000
  C   C121      1.0  0.13848  0.44603  0.94665  1.0000
  H   H201      1.0  0.30179  0.05400  0.73447  1.0000
  H   H202      1.0  0.02624  0.38063  0.88549  1.0000
  C   C122      1.0  0.31488  0.13018  0.87461  1.0000
  H   H203      1.0  0.20173  0.11510  0.50960  1.0000
  H   H204      1.0  0.18914  0.21094  0.77729  1.0000
  C   C123      1.0  0.24727  0.18971  0.72033  1.0000
  C   C124      1.0  0.13689  0.40323  0.90579  1.0000
  H   H205      1.0  0.23694  0.15872  0.84470  1.0000
  H   H206      1.0  0.26000  0.04818  0.51840  1.0000
  H   H207      1.0  0.30880  0.02337  0.82407  1.0000
  C   C125      1.0  0.21631  0.18123  0.81237  1.0000
  H   H208      1.0  0.21816  0.17622  0.73866  1.0000
  H   H209      1.0  0.28498  0.20493  0.81645  1.0000
  H   H210      1.0  0.22556  0.14751  0.80065  1.0000
  H   H211      1.0  0.26153  0.17600  0.80756  1.0000
  H   H212      1.0  0.21267  0.19093  0.83868  1.0000
  H   H213      1.0  0.00755  0.34053  0.83791  1.0000
  H   H214      1.0  0.28770  0.00709  0.83445  1.0000
  H   H215      1.0  0.03064  0.32463  0.84798  1.0000
  C   C126      1.0  0.25336  0.19189  0.81072  1.0000
  C   C127      1.0  0.29776  0.07134  0.86391  1.0000
  C   C128      1.0  0.26976  0.20843  0.80073  1.0000
  H   H216      1.0  0.03718  0.37289  0.92918  1.0000
  H   H217      1.0  0.12167  0.42982  0.83299  1.0000
  C   C129      1.0  0.20537  0.99678  0.68556  1.0000
  C   C130      1.0  0.23412  0.17991  0.75137  1.0000
  H   H218      1.0  0.20083  0.17961  0.79661  1.0000
  H   H219      1.0  0.24155  0.16393  0.75577  1.0000
  C   C131      1.0  0.99570  0.29671  0.64847  1.0000
  N   N10       1.0  0.23228  0.19214  0.78887  1.0000
  C   C132      1.0  0.29995  0.06238  0.79485  1.0000
  H   H220      1.0  0.07379  0.19528  0.74812  1.0000
  S   S40       1.0  0.06192  0.43124  0.97558  1.0000
  H   H221      1.0  0.01167  0.28970  0.65572  1.0000
  C   C133      1.0  0.10645  0.45799  0.91169  1.0000
  H   H222      1.0  0.06337  0.18363  0.59012  1.0000
  N   N11       1.0  0.28601  0.06228  0.82915  1.0000
  H   H223      1.0  0.29009  0.06677  0.89050  1.0000
  C   C134      1.0  0.29488  0.02261  0.84242  1.0000
  H   H224      1.0  0.26452  0.22472  0.81012  1.0000
  C   C135      1.0  0.01392  0.39856  0.93335  1.0000
  H   H225      1.0  0.99221  0.30910  0.67078  1.0000
  H   H226      1.0  0.26404  0.18357  0.72156  1.0000
  H   H227      1.0  0.26061  0.09135  0.87818  1.0000
  C   C136      1.0  0.22405  0.21464  0.78416  1.0000
  H   H228      1.0  0.24704  0.20721  0.72105  1.0000
  H   H229      1.0  0.15322  0.46911  0.98579  1.0000
  C   C137      1.0  0.13125  0.44421  0.83670  1.0000
  H   H230      1.0  0.20323  0.20942  0.73287  1.0000
  H   H231      1.0  0.12923  0.44070  0.97102  1.0000
  H   H232      1.0  0.11073  0.47446  0.90516  1.0000
  H   H233      1.0  0.22872  0.98382  0.57956  1.0000
  C   C138      1.0  0.11078  0.24349  0.49159  1.0000
  H   H234      1.0  0.30033  0.02239  0.87276  1.0000
  C   C139      1.0  0.27802  0.04048  0.83623  1.0000
  H   H235      1.0  0.99515  0.36930  0.97194  1.0000
  H   H236      1.0  0.14788  0.40540  0.88220  1.0000
  H   H237      1.0  0.01461  0.39803  0.96479  1.0000
  C   C140      1.0  0.05863  0.27158  0.50618  1.0000
  C   C141      1.0  0.00326  0.35533  0.95775  1.0000
  C   C142      1.0  0.98964  0.33614  0.96640  1.0000
  H   H238      1.0  0.26648  0.03501  0.81351  1.0000
  C   C143      1.0  0.25228  0.08215  0.85505  1.0000
  H   H239      1.0  0.99757  0.40328  0.92388  1.0000
  H   H240      1.0  0.23874  0.09238  0.84490  1.0000
  H   H241      1.0  0.03200  0.33533  0.91456  1.0000
  C   C144      1.0  0.02173  0.37728  0.91480  1.0000
  H   H242      1.0  0.99811  0.32081  0.96000  1.0000
  C   C145      1.0  0.23115  0.06147  0.48960  1.0000
  H   H243      1.0  0.27955  0.11650  0.49104  1.0000
  H   H244      1.0  0.98647  0.21459  0.65575  1.0000
  Fe  Fe21      1.0  0.09545  0.64297  0.06506  1.0000
  H   H245      1.0  0.13803  0.76834  0.26442  1.0000
  S   S41       1.0  0.10888  0.64970  0.12577  1.0000
  H   H246      1.0  0.15630  0.76284  0.15945  1.0000
  C   C146      1.0  0.16979  0.81945  0.22313  1.0000
  C   C147      1.0  0.17128  0.79610  0.20825  1.0000
  S   S42       1.0  0.06634  0.62309  0.06408  1.0000
  H   H247      1.0  0.13039  0.60838  0.09126  1.0000
  Fe  Fe22      1.0  0.27280  0.89613  0.29289  1.0000
  S   S43       1.0  0.24360  0.91666  0.28168  1.0000
  S   S44       1.0  0.29615  0.88344  0.24696  1.0000
  Fe  Fe23      1.0  0.26127  0.89246  0.37894  1.0000
  S   S45       1.0  0.23182  0.91310  0.37234  1.0000
  S   S46       1.0  0.26747  0.87460  0.43395  1.0000
  Fe  Fe24      1.0  0.22598  0.89395  0.31766  1.0000
  S   S47       1.0  0.19353  0.88041  0.29937  1.0000
  Fe  Fe25      1.0  0.25221  0.93354  0.33751  1.0000
  S   S48       1.0  0.25938  0.96835  0.34993  1.0000
  S   S49       1.0  0.25462  0.87246  0.32546  1.0000
  S   S50       1.0  0.28226  0.91381  0.34739  1.0000
  Fe  Fe26      1.0  0.10036  0.74402  0.29665  1.0000
  S   S51       1.0  0.09441  0.77946  0.30325  1.0000
  S   S52       1.0  0.09953  0.73404  0.23300  1.0000
  Fe  Fe27      1.0  0.10226  0.74055  0.38466  1.0000
  S   S53       1.0  0.09569  0.77526  0.39544  1.0000
  S   S54       1.0  0.11030  0.71780  0.43195  1.0000
  Fe  Fe28      1.0  0.07116  0.77131  0.34776  1.0000
  S   S55       1.0  0.03788  0.78651  0.34571  1.0000
  Fe  Fe29      1.0  0.11964  0.77985  0.34985  1.0000
  S   S56       1.0  0.15001  0.79854  0.36316  1.0000
  S   S57       1.0  0.07617  0.73610  0.33974  1.0000
  S   S58       1.0  0.12708  0.74491  0.34061  1.0000
  C   C148      1.0  0.01492  0.77088  0.34702  1.0000
  C   C149      1.0  0.01648  0.74938  0.35527  1.0000
  H   H248      1.0  0.05101  0.52788  0.02031  1.0000
  H   H249      1.0  0.03183  0.74219  0.36235  1.0000
  H   H250      1.0  0.99333  0.79674  0.33271  1.0000
  H   H251      1.0  0.06361  0.58111  0.09554  1.0000
  H   H252      1.0  0.13720  0.75163  0.19080  1.0000
  C   C150      1.0  0.26963  0.88488  0.48181  1.0000
  H   H253      1.0  0.15869  0.73591  0.17259  1.0000
  C   C151      1.0  0.11082  0.51172  0.01718  1.0000
  C   C152      1.0  0.18148  0.85785  0.31802  1.0000
  C   C153      1.0  0.19208  0.84502  0.34453  1.0000
  C   C154      1.0  0.18208  0.82711  0.35813  1.0000
  C   C155      1.0  0.16138  0.82173  0.34552  1.0000
  C   C156      1.0  0.15074  0.83454  0.31904  1.0000
  C   C157      1.0  0.16076  0.85246  0.30540  1.0000
  H   H254      1.0  0.20798  0.84894  0.35460  1.0000
  H   H255      1.0  0.19050  0.81737  0.37861  1.0000
  H   H256      1.0  0.13474  0.83081  0.30932  1.0000
  H   H257      1.0  0.15237  0.86232  0.28507  1.0000
  H   H258      1.0  0.11132  0.77985  0.22561  1.0000
  C   C158      1.0  0.30853  0.91790  0.20503  1.0000
  H   H259      1.0  0.17158  0.83011  0.19904  1.0000
  H   H260      1.0  0.18870  0.76073  0.45875  1.0000
  C   C159      1.0  0.99469  0.78008  0.33895  1.0000
  H   H261      1.0  0.04623  0.56904  0.12701  1.0000
  N   N12       1.0  0.03162  0.72899  0.22439  1.0000
  H   H262      1.0  0.30877  0.92874  0.00479  1.0000
  H   H263      1.0  0.29146  0.91163  0.10162  1.0000
  C   C160      1.0  0.31648  0.89998  0.03659  1.0000
  H   H264      1.0  0.30667  0.87594  0.09695  1.0000
  H   H265      1.0  0.11997  0.80639  0.22856  1.0000
  C   C161      1.0  0.09577  0.49566  0.01974  1.0000
  C   C162      1.0  0.10516  0.67308  0.15551  1.0000
  C   C163      1.0  0.11039  0.67236  0.19469  1.0000
  C   C164      1.0  0.10844  0.69066  0.21904  1.0000
  C   C165      1.0  0.10164  0.71010  0.20434  1.0000
  C   C166      1.0  0.09635  0.71081  0.16520  1.0000
  C   C167      1.0  0.09785  0.69243  0.14104  1.0000
  H   H266      1.0  0.11613  0.65754  0.20627  1.0000
  H   H267      1.0  0.11260  0.68978  0.24900  1.0000
  H   H268      1.0  0.09111  0.72572  0.15337  1.0000
  H   H269      1.0  0.09387  0.69334  0.11100  1.0000
  N   N13       1.0  0.16553  0.77979  0.23632  1.0000
  H   H270      1.0  0.20283  0.78895  0.48571  1.0000
  H   H271      1.0  0.16502  0.74548  0.23912  1.0000
  H   H272      1.0  0.13882  0.58143  0.09735  1.0000
  H   H273      1.0  0.12941  0.78794  0.19193  1.0000
  H   H274      1.0  0.26657  0.90304  0.07849  1.0000
  C   C168      1.0  0.15422  0.75220  0.18332  1.0000
  H   H275      1.0  0.04829  0.78201  0.22254  1.0000
  C   C169      1.0  0.06261  0.56820  0.11579  1.0000
  C   C170      1.0  0.07887  0.57082  0.14917  1.0000
  H   H276      1.0  0.18284  0.82325  0.24403  1.0000
  N   N14       1.0  0.10197  0.57046  0.13847  1.0000
  C   C171      1.0  0.10774  0.55075  0.11495  1.0000
  C   C172      1.0  0.11545  0.57076  0.17455  1.0000
  C   C173      1.0  0.10246  0.52933  0.13182  1.0000
  C   C174      1.0  0.11240  0.59056  0.20144  1.0000
  H   H277      1.0  0.12509  0.55001  0.10923  1.0000
  H   H278      1.0  0.07456  0.58611  0.16432  1.0000
  H   H279      1.0  0.11194  0.55696  0.19190  1.0000
  H   H280      1.0  0.13273  0.56841  0.16864  1.0000
  H   H281      1.0  0.10684  0.51635  0.11093  1.0000
  H   H282      1.0  0.11181  0.52634  0.15834  1.0000
  H   H283      1.0  0.08521  0.52788  0.13675  1.0000
  H   H284      1.0  0.16420  0.76283  0.30949  1.0000
  C   C175      1.0  0.01094  0.61600  0.01861  1.0000
  H   H285      1.0  0.09991  0.58794  0.22242  1.0000
  H   H286      1.0  0.10808  0.60524  0.18641  1.0000
  H   H287      1.0  0.12767  0.59392  0.21693  1.0000
  C   C176      1.0  0.12546  0.78975  0.22223  1.0000
  H   H288      1.0  0.16149  0.79508  0.18170  1.0000
  H   H289      1.0  0.14310  0.79540  0.27462  1.0000
  S   S59       1.0  0.11116  0.62162  0.01972  1.0000
  H   H290      1.0  0.12912  0.76235  0.45965  1.0000
  H   H291      1.0  0.09981  0.55119  0.08644  1.0000
  H   H292      1.0  0.18755  0.74947  0.28950  1.0000
  C   C177      1.0  0.14326  0.78303  0.25115  1.0000
  H   H293      1.0  0.18789  0.79306  0.19853  1.0000
  H   H294      1.0  0.15424  0.82355  0.23602  1.0000
  C   C178      1.0  0.12949  0.59486  0.11038  1.0000
  C   C179      1.0  0.31473  0.86622  0.38633  1.0000
  C   C180      1.0  0.16846  0.75780  0.21844  1.0000
  H   H295      1.0  0.31572  0.93369  0.05332  1.0000
  H   H296      1.0  0.19802  0.78169  0.25918  1.0000
  H   H297      1.0  0.17907  0.79742  0.28502  1.0000
  C   C181      1.0  0.18057  0.76494  0.29977  1.0000
  H   H298      1.0  0.13711  0.60022  0.13775  1.0000
  C   C182      1.0  0.18135  0.78188  0.26939  1.0000
  H   H299      1.0  0.09750  0.60401  0.12643  1.0000
  H   H300      1.0  0.18536  0.75496  0.21021  1.0000
  C   C183      1.0  0.10589  0.58946  0.11497  1.0000
  H   H301      1.0  0.19025  0.77020  0.32516  1.0000
  H   H302      1.0  0.11630  0.54542  0.01339  1.0000
  H   H303      1.0  0.07586  0.55837  0.16983  1.0000
  H   H304      1.0  0.09896  0.58715  0.08564  1.0000
  Fe  Fe30      1.0  0.05407  0.64466  0.01915  1.0000
  H   H305      1.0  0.03261  0.75420  0.18410  1.0000
  C   C184      1.0  0.04135  0.74878  0.21009  1.0000
  C   C185      1.0  0.08282  0.53954  0.01663  1.0000
  H   H306      1.0  0.13671  0.78626  0.43932  1.0000
  H   H307      1.0  0.05805  0.74533  0.20124  1.0000
  H   H308      1.0  0.17559  0.73353  0.41783  1.0000
  H   H309      1.0  0.00307  0.74930  0.27358  1.0000
  C   C186      1.0  0.10445  0.53341  0.01532  1.0000
  H   H310      1.0  0.03546  0.73930  0.28412  1.0000
  H   H311      1.0  0.05708  0.70711  0.20662  1.0000
  H   H312      1.0  0.00668  0.64447  0.10319  1.0000
  H   H313      1.0  0.31794  0.88490  0.43912  1.0000
  C   C187      1.0  0.00765  0.73006  0.21986  1.0000
  H   H314      1.0  0.03572  0.70582  0.31367  1.0000
  C   C188      1.0  0.29598  0.82929  0.34838  1.0000
  H   H315      1.0  0.30041  0.87544  0.37648  1.0000
  H   H316      1.0  0.28982  0.92480  0.04133  1.0000
  S   S60       1.0  0.07379  0.56690  0.01735  1.0000
  H   H317      1.0  0.04375  0.69709  0.14295  1.0000
  H   H318      1.0  0.27225  0.89869  0.01730  1.0000
  H   H319      1.0  0.06444  0.55266  0.10020  1.0000
  H   H320      1.0  0.00058  0.71430  0.22368  1.0000
  C   C189      1.0  0.03899  0.72542  0.26487  1.0000
  C   C190      1.0  0.04286  0.76820  0.23804  1.0000
  N   N15       1.0  0.15923  0.77439  0.48190  1.0000
  H   H321      1.0  0.03177  0.69540  0.20763  1.0000
  H   H322      1.0  0.27523  0.89326  0.12333  1.0000
  C   C191      1.0  0.07413  0.50175  0.02051  1.0000
  C   C192      1.0  0.16336  0.74184  0.43561  1.0000
  H   H323      1.0  0.15961  0.73128  0.45884  1.0000
  H   H324      1.0  0.17223  0.77384  0.42547  1.0000
  C   C193      1.0  0.31291  0.86163  0.02480  1.0000
  C   C194      1.0  0.17177  0.76346  0.45043  1.0000
  S   S61       1.0  0.08203  0.66608  0.02272  1.0000
  C   C195      1.0  0.98837  0.50571  0.00286  1.0000
  C   C196      1.0  0.28246  0.88468  0.00965  1.0000
  C   C197      1.0  0.28089  0.89806  0.09530  1.0000
  H   H325      1.0  0.00286  0.73378  0.19014  1.0000
  H   H326      1.0  0.05499  0.76534  0.26094  1.0000
  N   N16       1.0  0.30118  0.88195  0.03704  1.0000
  C   C198      1.0  0.03713  0.71188  0.15689  1.0000
  C   C199      1.0  0.11313  0.72134  0.48231  1.0000
  C   C200      1.0  0.98795  0.76064  0.44956  1.0000
  Fe  Fe31      1.0  0.08088  0.60293  0.01656  1.0000
  H   H327      1.0  0.30404  0.81873  0.36890  1.0000
  H   H328      1.0  0.99959  0.72037  0.36039  1.0000
  H   H329      1.0  0.02752  0.77298  0.25093  1.0000
  H   H330      1.0  0.29017  0.91045  0.47004  1.0000
  C   C201      1.0  0.30669  0.92276  0.03374  1.0000
  H   H331      1.0  0.21677  0.97360  0.31504  1.0000
  C   C202      1.0  0.99814  0.73705  0.35431  1.0000
  C   C203      1.0  0.29320  0.87914  0.07660  1.0000
  H   H332      1.0  0.29858  0.92782  0.22348  1.0000
  C   C204      1.0  0.99681  0.59920  0.01721  1.0000
  H   H333      1.0  0.04623  0.72511  0.14604  1.0000
  H   H334      1.0  0.30116  0.85344  0.30934  1.0000
  H   H335      1.0  0.28286  0.86506  0.07685  1.0000
  H   H336      1.0  0.05670  0.72348  0.26632  1.0000
  H   H337      1.0  0.27163  0.87103  0.01099  1.0000
  C   C205      1.0  0.02961  0.70619  0.28374  1.0000
  H   H338      1.0  0.30160  0.84842  0.01978  1.0000
  H   H339      1.0  0.01198  0.70746  0.28492  1.0000
  H   H340      1.0  0.02018  0.71336  0.14750  1.0000
  H   H341      1.0  0.28348  0.83908  0.36306  1.0000
  C   C206      1.0  0.03978  0.71019  0.20049  1.0000
  H   H342      1.0  0.28752  0.81903  0.32683  1.0000
  H   H343      1.0  0.30817  0.85395  0.40408  1.0000
  C   C207      1.0  0.30999  0.89599  0.21023  1.0000
  H   H344      1.0  0.02790  0.61263  0.01874  1.0000
  H   H345      1.0  0.13519  0.69467  0.48472  1.0000
  C   C208      1.0  0.99206  0.65099  0.11706  1.0000
  H   H346      1.0  0.00299  0.58298  0.01648  1.0000
  H   H347      1.0  0.03467  0.69090  0.26974  1.0000
  S   S62       1.0  0.02061  0.65802  0.02133  1.0000
  H   H348      1.0  0.99356  0.76197  0.23108  1.0000
  H   H349      1.0  0.16691  0.80588  0.46503  1.0000
  C   C209      1.0  0.00309  0.63698  0.01953  1.0000
  H   H350      1.0  0.14897  0.74398  0.41703  1.0000
  C   C210      1.0  0.06777  0.52348  0.01918  1.0000
  H   H351      1.0  0.06228  0.48974  0.02258  1.0000
  H   H352      1.0  0.12761  0.50737  0.01673  1.0000
  H   H353      1.0  0.99752  0.65865  0.14435  1.0000
  H   H354      1.0  0.99123  0.74393  0.44011  1.0000
  H   H355      1.0  0.00358  0.76732  0.45850  1.0000
  H   H356      1.0  0.31897  0.88542  0.32192  1.0000
  C   C211      1.0  0.13672  0.77779  0.46658  1.0000
  H   H357      1.0  0.99948  0.49756  0.02300  1.0000
  H   H358      1.0  0.10474  0.78900  0.48085  1.0000
  C   C212      1.0  0.99555  0.74657  0.24523  1.0000
  C   C213      1.0  0.31153  0.84327  0.32787  1.0000
  H   H359      1.0  0.22926  0.93107  0.47775  1.0000
  H   H360      1.0  0.31891  0.94407  0.17280  1.0000
  S   S63       1.0  0.06593  0.62351  0.97117  1.0000
  C   C214      1.0  0.12294  0.77008  0.82583  1.0000
  C   C215      1.0  0.20485  0.93556  0.57963  1.0000
  S   S64       1.0  0.11138  0.65364  0.92277  1.0000
  Fe  Fe32      1.0  0.26424  0.89881  0.66026  1.0000
  S   S65       1.0  0.22865  0.89763  0.65741  1.0000
  S   S66       1.0  0.28485  0.90273  0.60830  1.0000
  Fe  Fe33      1.0  0.26535  0.90382  0.74936  1.0000
  S   S67       1.0  0.22931  0.90317  0.75146  1.0000
  S   S68       1.0  0.28735  0.91441  0.80014  1.0000
  Fe  Fe34      1.0  0.23169  0.87624  0.70723  1.0000
  S   S69       1.0  0.21581  0.84381  0.70405  1.0000
  Fe  Fe35      1.0  0.22925  0.92454  0.70132  1.0000
  S   S70       1.0  0.20798  0.95317  0.68775  1.0000
  S   S71       1.0  0.26793  0.87571  0.70774  1.0000
  S   S72       1.0  0.26464  0.92688  0.70161  1.0000
  Fe  Fe36      1.0  0.10739  0.78115  0.71187  1.0000
  S   S73       1.0  0.12376  0.74929  0.71802  1.0000
  S   S74       1.0  0.12089  0.81347  0.72927  1.0000
  Fe  Fe37      1.0  0.06497  0.76099  0.68533  1.0000
  S   S75       1.0  0.07856  0.72783  0.68942  1.0000
  S   S76       1.0  0.03155  0.76615  0.66050  1.0000
  Fe  Fe38      1.0  0.09368  0.73904  0.74543  1.0000
  S   S77       1.0  0.08749  0.72669  0.80489  1.0000
  Fe  Fe39      1.0  0.10703  0.74107  0.66149  1.0000
  S   S78       1.0  0.12465  0.72443  0.61276  1.0000
  S   S79       1.0  0.07816  0.77171  0.74225  1.0000
  S   S80       1.0  0.09262  0.77350  0.65421  1.0000
  C   C216      1.0  0.00810  0.76460  0.68681  1.0000
  H   H361      1.0  0.17425  0.75042  0.82141  1.0000
  H   H362      1.0  0.30775  0.94370  0.73036  1.0000
  H   H363      1.0  0.09044  0.87171  0.67044  1.0000
  H   H364      1.0  0.02234  0.77463  0.74064  1.0000
  C   C217      1.0  0.11905  0.72390  0.56281  1.0000
  C   C218      1.0  0.10506  0.73834  0.54446  1.0000
  C   C219      1.0  0.12995  0.70846  0.54062  1.0000
  H   H365      1.0  0.09653  0.75037  0.56123  1.0000
  H   H366      1.0  0.14076  0.69725  0.55427  1.0000
  H   H367      1.0  0.09134  0.74813  0.49013  1.0000
  C   C220      1.0  0.17902  0.74879  0.52866  1.0000
  C   C221      1.0  0.12117  0.79017  0.49317  1.0000
  H   H368      1.0  0.03730  0.81202  0.73656  1.0000
  H   H369      1.0  0.13335  0.72781  0.83992  1.0000
  C   C222      1.0  0.27772  0.89627  0.55987  1.0000
  C   C223      1.0  0.26392  0.87982  0.54970  1.0000
  H   H370      1.0  0.24786  0.92677  0.57868  1.0000
  C   C224      1.0  0.28688  0.90742  0.53075  1.0000
  H   H371      1.0  0.25683  0.87100  0.57169  1.0000
  H   H372      1.0  0.11245  0.85357  0.66461  1.0000
  C   C225      1.0  0.18893  0.83628  0.70942  1.0000
  C   C226      1.0  0.18324  0.81541  0.69860  1.0000
  C   C227      1.0  0.16239  0.80834  0.70360  1.0000
  C   C228      1.0  0.14700  0.82201  0.72008  1.0000
  C   C229      1.0  0.15262  0.84290  0.73077  1.0000
  C   C230      1.0  0.17341  0.85006  0.72528  1.0000
  H   H373      1.0  0.19511  0.80459  0.68639  1.0000
  H   H374      1.0  0.15837  0.79223  0.69521  1.0000
  H   H375      1.0  0.14091  0.85362  0.74365  1.0000
  H   H376      1.0  0.17756  0.86611  0.73391  1.0000
  C   C231      1.0  0.02018  0.68845  0.78009  1.0000
  C   C232      1.0  0.10372  0.67344  0.88949  1.0000
  C   C233      1.0  0.11456  0.67412  0.85496  1.0000
  C   C234      1.0  0.10954  0.68988  0.82830  1.0000
  C   C235      1.0  0.09381  0.70550  0.83611  1.0000
  C   C236      1.0  0.08288  0.70477  0.87051  1.0000
  C   C237      1.0  0.08767  0.68881  0.89687  1.0000
  H   H377      1.0  0.12699  0.66234  0.84885  1.0000
  H   H378      1.0  0.11811  0.69011  0.80206  1.0000
  H   H379      1.0  0.07069  0.71672  0.87702  1.0000
  H   H380      1.0  0.07920  0.68862  0.92325  1.0000
  H   H381      1.0  0.01514  0.74127  0.79676  1.0000
  H   H382      1.0  0.14781  0.78082  0.76976  1.0000
  H   H383      1.0  0.08016  0.84080  0.63186  1.0000
  H   H384      1.0  0.15287  0.73625  0.87592  1.0000
  H   H385      1.0  0.15248  0.74492  0.78956  1.0000
  H   H386      1.0  0.17002  0.80959  0.87609  1.0000
  H   H387      1.0  0.04007  0.83274  0.60805  1.0000
  H   H388      1.0  0.09239  0.78681  0.82710  1.0000
  H   H389      1.0  0.14257  0.81290  0.86013  1.0000
  C   C238      1.0  0.24290  0.94284  0.58891  1.0000
  H   H390      1.0  0.14904  0.80615  0.90764  1.0000
  H   H391      1.0  0.18543  0.77463  0.77945  1.0000
  N   N17       1.0  0.14686  0.77196  0.82854  1.0000
  H   H392      1.0  0.22221  0.90442  0.57342  1.0000
  H   H393      1.0  0.19411  0.90313  0.57627  1.0000
  H   H394      1.0  0.10001  0.85523  0.70924  1.0000
  H   H395      1.0  0.03512  0.72417  0.81922  1.0000
  H   H396      1.0  0.19408  0.75484  0.51841  1.0000
  H   H397      1.0  0.01297  0.69628  0.80578  1.0000
  C   C239      1.0  0.98880  0.76863  0.74575  1.0000
  H   H398      1.0  0.03064  0.84016  0.73906  1.0000
  H   H399      1.0  0.14715  0.80271  0.80182  1.0000
  C   C240      1.0  0.26211  0.95722  0.58454  1.0000
  H   H400      1.0  0.17074  0.77339  0.87391  1.0000
  H   H401      1.0  0.11728  0.75913  0.84723  1.0000
  H   H402      1.0  0.21804  0.97175  0.61911  1.0000
  C   C241      1.0  0.15373  0.80327  0.87761  1.0000
  C   C242      1.0  0.10946  0.79062  0.83198  1.0000
  H   H403      1.0  0.29698  0.87190  0.83039  1.0000
  C   C243      1.0  0.17831  0.78851  0.79538  1.0000
  H   H404      1.0  0.99694  0.72452  0.72023  1.0000
  H   H405      1.0  0.06231  0.81362  0.60486  1.0000
  C   C244      1.0  0.15401  0.77904  0.86825  1.0000
  C   C245      1.0  0.15014  0.73223  0.84526  1.0000
  C   C246      1.0  0.20705  0.91237  0.56446  1.0000
  C   C247      1.0  0.12683  0.70703  0.50103  1.0000
  C   C248      1.0  0.21694  0.97200  0.58753  1.0000
  H   H406      1.0  0.02979  0.85282  0.67572  1.0000
  H   H407      1.0  0.04534  0.68847  0.71444  1.0000
  C   C249      1.0  0.22382  0.95215  0.52749  1.0000
  H   H408      1.0  0.24139  0.96906  0.73953  1.0000
  C   C250      1.0  0.09671  0.85580  0.67821  1.0000
  C   C251      1.0  0.00788  0.76972  0.72584  1.0000
  H   H409      1.0  0.11296  0.80294  0.81160  1.0000
  H   H410      1.0  0.05160  0.71617  0.75584  1.0000
  C   C252      1.0  0.04701  0.85655  0.67434  1.0000
  C   C253      1.0  0.15396  0.78640  0.79833  1.0000
  H   H411      1.0  0.18914  0.94126  0.56815  1.0000
  C   C254      1.0  0.28264  0.90199  0.49199  1.0000
  H   H412      1.0  0.20322  0.93522  0.61109  1.0000
  H   H413      1.0  0.18164  0.80275  0.77908  1.0000
  H   H414      1.0  0.03313  0.73341  0.73355  1.0000
  H   H415      1.0  0.15996  0.71772  0.83836  1.0000
  H   H416      1.0  0.14427  0.77151  0.88981  1.0000
  H   H417      1.0  0.18652  0.79045  0.82349  1.0000
  H   H418      1.0  0.04260  0.74739  0.79635  1.0000
  C   C255      1.0  0.30329  0.90508  0.83954  1.0000
  H   H419      1.0  0.02965  0.71888  0.67507  1.0000
  C   C256      1.0  0.15653  0.75017  0.81947  1.0000
  H   H420      1.0  0.11805  0.76299  0.79759  1.0000
  H   H421      1.0  0.11092  0.79688  0.86177  1.0000
  H   H422      1.0  0.04959  0.66942  0.76848  1.0000
  C   C257      1.0  0.23717  0.93479  0.50579  1.0000
  C   C258      1.0  0.05034  0.87571  0.70255  1.0000
  H   H423      1.0  0.27687  0.94864  0.59419  1.0000
  C   C259      1.0  0.06384  0.83223  0.72255  1.0000
  C   C260      1.0  0.10222  0.73716  0.50415  1.0000
  H   H424      1.0  0.05344  0.69160  0.80187  1.0000
  H   H425      1.0  0.05784  0.80290  0.67009  1.0000
  H   H426      1.0  0.98913  0.75464  0.63764  1.0000
  Fe  Fe40      1.0  0.09506  0.64360  0.97696  1.0000
  H   H427      1.0  0.03588  0.80484  0.60941  1.0000
  H   H428      1.0  0.07462  0.81805  0.72581  1.0000
  C   C261      1.0  0.99763  0.71213  0.74184  1.0000
  H   H429      1.0  0.15394  0.77187  0.54228  1.0000
  H   H430      1.0  0.03299  0.81673  0.67320  1.0000
  C   C262      1.0  0.04694  0.81763  0.61865  1.0000
  C   C263      1.0  0.28820  0.88664  0.96751  1.0000
  H   H431      1.0  0.99414  0.60639  0.88630  1.0000
  H   H432      1.0  0.00599  0.61764  0.92870  1.0000
  H   H433      1.0  0.26430  0.96142  0.55465  1.0000
  H   H434      1.0  0.09110  0.82275  0.66524  1.0000
  C   C264      1.0  0.21620  0.97914  0.70106  1.0000
  H   H435      1.0  0.23929  0.91954  0.51995  1.0000
  H   H436      1.0  0.07219  0.84506  0.73865  1.0000
  H   H437      1.0  0.29428  0.87132  0.95487  1.0000
  H   H438      1.0  0.20759  0.95262  0.51389  1.0000
  H   H439      1.0  0.00615  0.70324  0.66669  1.0000
  N   N18       1.0  0.06058  0.83680  0.68094  1.0000
  C   C265      1.0  0.31474  0.91988  0.86253  1.0000
  C   C266      1.0  0.08201  0.83812  0.66284  1.0000
  N   N19       1.0  0.22231  0.95029  0.57005  1.0000
  H   H440      1.0  0.25042  0.86049  0.50355  1.0000
  C   C267      1.0  0.04942  0.81797  0.66245  1.0000
  H   H441      1.0  0.24077  0.94121  0.62006  1.0000
  C   C268      1.0  0.19143  0.79671  0.50568  1.0000
  C   C269      1.0  0.03462  0.72164  0.75623  1.0000
  H   H442      1.0  0.04923  0.86214  0.64507  1.0000
  H   H443      1.0  0.30006  0.89901  0.96358  1.0000
  C   C270      1.0  0.02778  0.69149  0.71237  1.0000
  H   H444      1.0  0.18050  0.74892  0.56024  1.0000
  C   C271      1.0  0.03135  0.73407  0.79441  1.0000
  H   H445      1.0  0.23108  0.96749  0.52102  1.0000
  H   H446      1.0  0.29759  0.92016  0.53822  1.0000
  H   H447      1.0  0.06613  0.87633  0.71708  1.0000
  H   H448      1.0  0.03156  0.69344  0.65123  1.0000
  C   C272      1.0  0.02340  0.70261  0.67447  1.0000
  H   H449      1.0  0.02101  0.67538  0.70933  1.0000
  H   H450      1.0  0.14589  0.74961  0.51373  1.0000
  H   H451      1.0  0.03769  0.87656  0.72410  1.0000
  H   H452      1.0  0.04717  0.82830  0.77524  1.0000
  H   H453      1.0  0.00993  0.67467  0.77286  1.0000
  C   C273      1.0  0.04229  0.67914  0.79188  1.0000
  H   H454      1.0  0.04835  0.89062  0.68678  1.0000
  H   H455      1.0  0.30749  0.90263  0.72755  1.0000
  H   H456      1.0  0.04050  0.66855  0.81607  1.0000
  C   C274      1.0  0.30556  0.88354  0.84769  1.0000
  N   N20       1.0  0.02001  0.70338  0.74766  1.0000
  C   C275      1.0  0.98912  0.75850  0.66788  1.0000
  C   C276      1.0  0.04340  0.82803  0.74418  1.0000
  H   H457      1.0  0.17756  0.73178  0.51974  1.0000
  H   H458      1.0  0.19605  0.81359  0.50905  1.0000
  H   H459      1.0  0.31318  0.93658  0.85669  1.0000
  C   C277      1.0  0.15856  0.76155  0.51725  1.0000
  C   C278      1.0  0.26025  0.87393  0.51096  1.0000
  H   H460      1.0  0.18202  0.97395  0.59219  1.0000
  H   H461      1.0  0.19141  0.98093  0.54587  1.0000
  H   H462      1.0  0.15880  0.80476  0.51307  1.0000
  H   H463      1.0  0.99197  0.72074  0.76799  1.0000
  H   H464      1.0  0.98655  0.68134  0.71591  1.0000
  H   H465      1.0  0.20493  0.91121  0.53304  1.0000
  H   H466      1.0  0.19321  0.79003  0.53434  1.0000
  H   H467      1.0  0.12094  0.78353  0.52188  1.0000
  H   H468      1.0  0.27365  0.89115  0.95069  1.0000
  H   H469      1.0  0.31024  0.88019  0.66831  1.0000
  C   C279      1.0  0.99050  0.61316  0.91497  1.0000
  H   H470      1.0  0.26069  0.97185  0.60297  1.0000
  H   H471      1.0  0.25305  0.94077  0.49902  1.0000
  C   C280      1.0  0.23304  0.98249  0.72720  1.0000
  H   H472      1.0  0.31834  0.91545  0.68945  1.0000
  H   H473      1.0  0.12465  0.80733  0.49532  1.0000
  C   C281      1.0  0.16816  0.79604  0.49079  1.0000
  H   H474      1.0  0.98867  0.77270  0.77591  1.0000
  H   H475      1.0  0.99809  0.51043  0.97879  1.0000
  C   C282      1.0  0.19481  0.98167  0.57696  1.0000
  C   C283      1.0  0.31909  0.87701  0.87817  1.0000
  S   S81       1.0  0.33662  0.10112  0.10898  1.0000
  C   C284      1.0  0.64982  0.11899  0.14962  1.0000
  S   S82       1.0  0.36771  0.07271  0.02836  1.0000
  H   H476      1.0  0.34871  0.03522  0.07728  1.0000
  Fe  Fe41      1.0  0.34531  0.10002  0.04521  1.0000
  H   H477      1.0  0.35770  0.04938  0.11964  1.0000
  H   H478      1.0  0.34644  0.00750  0.03073  1.0000
  H   H479      1.0  0.52031  0.99522  0.05471  1.0000
  C   C285      1.0  0.38741  0.01603  0.06397  1.0000
  S   S83       1.0  0.56573  0.06966  0.01390  1.0000
  Fe  Fe42      1.0  0.59837  0.08393  0.02059  1.0000
  S   S84       1.0  0.62069  0.07735  0.07282  1.0000
  C   C286      1.0  0.63667  0.08885  0.11091  1.0000
  C   C287      1.0  0.63656  0.11070  0.11972  1.0000
  C   C288      1.0  0.51071  0.00139  0.03042  1.0000
  H   H480      1.0  0.62603  0.12118  0.10385  1.0000
  H   H481      1.0  0.40648  0.04386  0.05755  1.0000
  C   C289      1.0  0.60996  0.99694  0.01820  1.0000
  C   C290      1.0  0.36485  0.01498  0.12202  1.0000
  H   H482      1.0  0.48321  0.98496  0.04489  1.0000
  H   H483      1.0  0.35413  0.00439  0.13684  1.0000
  C   C291      1.0  0.45686  0.11687  0.00056  1.0000
  H   H484      1.0  0.50371  0.01693  0.04052  1.0000
  H   H485      1.0  0.63815  0.10837  0.02820  1.0000
  H   H486      1.0  0.61889  0.13935  0.02883  1.0000
  H   H487      1.0  0.39733  0.00596  0.04429  1.0000
  C   C292      1.0  0.40202  0.03350  0.08082  1.0000
  H   H488      1.0  0.60237  0.02815  0.99839  1.0000
  H   H489      1.0  0.33485  0.03357  0.12030  1.0000
  H   H490      1.0  0.37595  0.02145  0.14460  1.0000
  S   S85       1.0  0.32252  0.09374  0.99586  1.0000
  H   H491      1.0  0.44520  0.12884  0.00954  1.0000
  H   H492      1.0  0.62333  0.00213  0.03589  1.0000
  H   H493      1.0  0.33124  0.00099  0.07165  1.0000
  H   H494      1.0  0.37554  0.02387  0.04501  1.0000
  C   C293      1.0  0.64548  0.14729  0.99203  1.0000
  H   H495      1.0  0.33024  0.10009  0.18964  1.0000
  C   C294      1.0  0.47876  0.12191  0.00006  1.0000
  C   C295      1.0  0.36345  0.98633  0.07117  1.0000
  H   H496      1.0  0.48355  0.13775  0.00871  1.0000
  N   N21       1.0  0.37727  0.00232  0.09232  1.0000
  C   C296      1.0  0.65011  0.07548  0.13282  1.0000
  C   C297      1.0  0.39526  0.99011  0.11184  1.0000
  S   S86       1.0  0.36444  0.12340  0.01304  1.0000
  H   H497      1.0  0.39413  0.04384  0.10266  1.0000
  H   H498      1.0  0.64944  0.13590  0.15616  1.0000
  H   H499      1.0  0.65030  0.05855  0.12654  1.0000
  H   H500      1.0  0.41718  0.02675  0.09267  1.0000
  C   C298      1.0  0.35101  0.03418  0.10836  1.0000
  H   H501      1.0  0.63157  0.16403  0.04198  1.0000
  C   C299      1.0  0.34320  0.99505  0.05090  1.0000
  C   C300      1.0  0.64890  0.10924  0.00375  1.0000
  H   H502      1.0  0.52106  0.00492  0.00654  1.0000
  H   H503      1.0  0.40600  0.00111  0.12806  1.0000
  C   C301      1.0  0.62651  0.15339  0.01771  1.0000
  Fe  Fe43      1.0  0.38564  0.09543  0.99351  1.0000
  C   C302      1.0  0.59819  0.01166  0.99670  1.0000
  C   C303      1.0  0.49242  0.98651  0.01863  1.0000
  H   H504      1.0  0.61416  0.16227  0.00101  1.0000
  H   H505      1.0  0.48166  0.99525  0.99845  1.0000
  S   S87       1.0  0.58747  0.11334  0.98977  1.0000
  C   C304      1.0  0.45014  0.09648  0.98938  1.0000
  Fe  Fe44      1.0  0.34603  0.06844  0.97721  1.0000
  H   H506      1.0  0.33432  0.99184  0.94753  1.0000
  C   C305      1.0  0.41062  0.09752  0.85165  1.0000
  Fe  Fe45      1.0  0.59849  0.09618  0.93535  1.0000
  C   C306      1.0  0.35479  0.01862  0.95496  1.0000
  S   S88       1.0  0.62323  0.11143  0.89752  1.0000
  N   N22       1.0  0.41732  0.13118  0.89399  1.0000
  H   H507      1.0  0.38934  0.16557  0.83570  1.0000
  C   C307      1.0  0.39208  0.01021  0.96816  1.0000
  H   H508      1.0  0.47295  0.13513  0.90662  1.0000
  S   S89       1.0  0.56565  0.08320  0.92272  1.0000
  C   C308      1.0  0.41478  0.14637  0.86189  1.0000
  C   C309      1.0  0.63562  0.10428  0.85305  1.0000
  H   H509      1.0  0.34493  0.11824  0.85359  1.0000
  C   C310      1.0  0.63770  0.08410  0.79234  1.0000
  N   N23       1.0  0.64925  0.09933  0.59564  1.0000
  H   H510      1.0  0.33190  0.11415  0.78642  1.0000
  C   C311      1.0  0.62796  0.08831  0.82787  1.0000
  C   C312      1.0  0.48783  0.08627  0.97783  1.0000
  H   H511      1.0  0.41157  0.10695  0.82585  1.0000
  H   H512      1.0  0.46110  0.06547  0.96909  1.0000
  H   H513      1.0  0.38421  0.16333  0.91573  1.0000
  C   C313      1.0  0.38743  0.98869  0.96956  1.0000
  H   H514      1.0  0.63336  0.13118  0.65299  1.0000
  S   S90       1.0  0.42233  0.08960  0.98706  1.0000
  H   H515      1.0  0.61544  0.07342  0.64075  1.0000
  H   H516      1.0  0.61414  0.07962  0.83528  1.0000
  H   H517      1.0  0.59813  0.99518  0.89187  1.0000
  H   H518      1.0  0.37881  0.14437  0.86024  1.0000
  C   C314      1.0  0.40475  0.11128  0.88723  1.0000
  H   H519      1.0  0.45493  0.15553  0.89024  1.0000
  C   C315      1.0  0.61574  0.99623  0.89158  1.0000
  C   C316      1.0  0.58158  0.00487  0.97230  1.0000
  H   H520      1.0  0.63836  0.14277  0.96357  1.0000
  H   H521      1.0  0.65170  0.03207  0.78200  1.0000
  H   H522      1.0  0.61944  0.01184  0.90567  1.0000
  H   H523      1.0  0.39818  0.08551  0.84611  1.0000
  S   S91       1.0  0.61031  0.06767  0.96668  1.0000
  H   H524      1.0  0.65075  0.07894  0.54438  1.0000
  H   H525      1.0  0.64380  0.05588  0.60491  1.0000
  C   C317      1.0  0.37569  0.02522  0.96142  1.0000
  H   H526      1.0  0.44270  0.11167  0.91893  1.0000
  H   H527      1.0  0.44633  0.11699  0.87052  1.0000
  C   C318      1.0  0.62565  0.09606  0.59914  1.0000
  H   H528      1.0  0.45493  0.14730  0.93924  1.0000
  H   H529      1.0  0.60174  0.09831  0.64307  1.0000
  C   C319      1.0  0.39230  0.14870  0.84284  1.0000
  C   C320      1.0  0.61777  0.09075  0.63899  1.0000
  H   H530      1.0  0.64578  0.13333  0.58860  1.0000
  H   H531      1.0  0.49956  0.07432  0.96895  1.0000
  H   H532      1.0  0.64841  0.10388  0.49619  1.0000
  C   C321      1.0  0.32174  0.06569  0.86836  1.0000
  C   C322      1.0  0.46589  0.08128  0.97799  1.0000
  H   H533      1.0  0.32525  0.04842  0.86759  1.0000
  H   H534      1.0  0.61637  0.11030  0.58959  1.0000
  H   H535      1.0  0.62057  0.08268  0.57965  1.0000
  H   H536      1.0  0.42066  0.15602  0.93809  1.0000
  Fe  Fe46      1.0  0.34269  0.11476  0.96209  1.0000
  H   H537      1.0  0.39155  0.13958  0.81521  1.0000
  H   H538      1.0  0.40681  0.10090  0.91209  1.0000
  H   H539      1.0  0.41983  0.16253  0.87169  1.0000
  C   C323      1.0  0.32101  0.11977  0.80815  1.0000
  H   H540      1.0  0.62782  0.09629  0.66346  1.0000
  C   C324      1.0  0.41102  0.14179  0.93138  1.0000
  H   H541      1.0  0.42588  0.08855  0.85638  1.0000
  H   H542      1.0  0.63818  0.10856  0.97800  1.0000
  C   C325      1.0  0.32844  0.12198  0.84633  1.0000
  S   S92       1.0  0.36493  0.08882  0.94087  1.0000
  H   H543      1.0  0.62118  0.99651  0.86191  1.0000
  H   H544      1.0  0.64914  0.04412  0.82832  1.0000
  H   H545      1.0  0.40811  0.01544  0.97457  1.0000
  C   C326      1.0  0.45644  0.14184  0.90905  1.0000
  H   H546      1.0  0.41430  0.13086  0.95514  1.0000
  S   S93       1.0  0.33382  0.03739  0.95377  1.0000
  C   C327      1.0  0.35047  0.99696  0.95294  1.0000
  H   H547      1.0  0.42569  0.14139  0.83849  1.0000
  H   H548      1.0  0.38739  0.11464  0.88511  1.0000
  S   S94       1.0  0.56884  0.02247  0.94127  1.0000
  C   C328      1.0  0.44054  0.12429  0.89776  1.0000
  H   H549      1.0  0.37603  0.13718  0.92912  1.0000
  C   C329      1.0  0.38772  0.14985  0.93444  1.0000
  Fe  Fe47      1.0  0.57707  0.05602  0.95814  1.0000
  S   S95       1.0  0.32491  0.13711  0.92132  1.0000
  H   H550      1.0  0.63115  0.07216  0.77283  1.0000
  H   H551      1.0  0.62769  0.11230  0.52784  1.0000
  S   S96       1.0  0.52206  0.11447  0.98804  1.0000
  H   H552      1.0  0.37918  0.04193  0.96238  1.0000
  C   C330      1.0  0.64521  0.11044  0.52535  1.0000
  H   H553      1.0  0.32748  0.07203  0.89655  1.0000
  Fe  Fe48      1.0  0.55526  0.09765  0.97935  1.0000
  H   H554      1.0  0.38521  0.15613  0.96397  1.0000
  C   C331      1.0  0.65068  0.12963  0.64774  1.0000
  H   H555      1.0  0.33115  0.07341  0.84676  1.0000
  H   H556      1.0  0.65274  0.12618  0.52748  1.0000
  C   C332      1.0  0.57587  0.98358  0.97121  1.0000
  C   C333      1.0  0.49455  0.10672  0.98879  1.0000
  C   C334      1.0  0.63041  0.81465  0.99525  1.0000
  S   S97       1.0  0.59340  0.90530  0.06417  1.0000
  C   C335      1.0  0.47819  0.95381  0.99059  1.0000
  C   C336      1.0  0.61249  0.87876  0.33641  1.0000
  Fe  Fe49      1.0  0.61885  0.87988  0.05366  1.0000
  H   H557      1.0  0.35354  0.83645  0.33830  1.0000
  Fe  Fe50      1.0  0.41186  0.89891  0.03136  1.0000
  S   S98       1.0  0.44440  0.88481  0.05133  1.0000
  Fe  Fe51      1.0  0.36944  0.91760  0.06586  1.0000
  Fe  Fe52      1.0  0.39340  0.94019  0.00397  1.0000
  S   S99       1.0  0.34784  0.92744  0.11630  1.0000
  H   H558      1.0  0.61617  0.89343  0.32176  1.0000
  H   H559      1.0  0.52293  0.88220  0.06770  1.0000
  S   S100      1.0  0.37881  0.88576  0.03898  1.0000
  S   S101      1.0  0.40281  0.92963  0.06212  1.0000
  C   C337      1.0  0.32310  0.88348  0.18573  1.0000
  C   C338      1.0  0.58722  0.96899  0.99362  1.0000
  H   H560      1.0  0.34434  0.88537  0.34548  1.0000
  C   C339      1.0  0.51390  0.89117  0.01100  1.0000
  H   H561      1.0  0.54422  0.94193  0.01832  1.0000
  H   H562      1.0  0.65273  0.91571  0.19820  1.0000
  C   C340      1.0  0.33057  0.85351  0.05246  1.0000
  H   H563      1.0  0.64239  0.97518  0.11835  1.0000
  S   S102      1.0  0.62168  0.95682  0.03791  1.0000
  C   C341      1.0  0.38882  0.97364  0.14058  1.0000
  S   S103      1.0  0.60035  0.86489  0.00349  1.0000
  C   C342      1.0  0.48849  0.88388  0.06001  1.0000
  Fe  Fe53      1.0  0.57625  0.89211  0.01131  1.0000
  C   C343      1.0  0.33338  0.91462  0.15187  1.0000
  H   H564      1.0  0.48558  0.87907  0.08857  1.0000
  C   C344      1.0  0.64656  0.89218  0.15346  1.0000
  C   C345      1.0  0.65082  0.87143  0.13962  1.0000
  H   H565      1.0  0.64249  0.91568  0.36852  1.0000
  H   H566      1.0  0.32447  0.86653  0.18937  1.0000
  C   C346      1.0  0.34623  0.84429  0.36386  1.0000
  H   H567      1.0  0.34002  0.81117  0.37651  1.0000
  H   H568      1.0  0.61152  0.86512  0.31572  1.0000
  H   H569      1.0  0.36014  0.86142  0.29642  1.0000
  H   H570      1.0  0.44978  0.93982  0.01190  1.0000
  H   H571      1.0  0.63505  0.90213  0.13850  1.0000
  H   H572      1.0  0.50915  0.93468  0.02303  1.0000
  C   C347      1.0  0.50976  0.88556  0.04818  1.0000
  C   C348      1.0  0.60479  0.97550  0.01595  1.0000
  C   C349      1.0  0.51106  0.95187  0.03018  1.0000
  H   H573      1.0  0.63659  0.79832  0.00019  1.0000
  H   H574      1.0  0.58257  0.95270  0.99305  1.0000
  H   H575      1.0  0.33575  0.98188  0.03389  1.0000
  H   H576      1.0  0.35898  0.85489  0.37531  1.0000
  C   C350      1.0  0.33469  0.89267  0.15679  1.0000
  H   H577      1.0  0.34107  0.84176  0.03711  1.0000
  C   C351      1.0  0.47096  0.88823  0.03529  1.0000
  S   S104      1.0  0.54037  0.89373  0.99397  1.0000
  C   C352      1.0  0.33304  0.87500  0.32916  1.0000
  C   C353      1.0  0.34414  0.86885  0.29145  1.0000
  H   H578      1.0  0.62676  0.88741  0.39096  1.0000
  H   H579      1.0  0.37296  0.97709  0.04953  1.0000
  S   S105      1.0  0.35925  0.93151  0.00978  1.0000
  H   H580      1.0  0.63948  0.86058  0.28045  1.0000
  H   H581      1.0  0.40541  0.98145  0.09039  1.0000
  H   H582      1.0  0.34486  0.88280  0.13868  1.0000
  C   C354      1.0  0.62839  0.87415  0.36933  1.0000
  Fe  Fe54      1.0  0.61238  0.92332  0.02376  1.0000
  H   H583      1.0  0.59631  0.88129  0.34812  1.0000
  H   H584      1.0  0.62240  0.85997  0.38311  1.0000
  S   S106      1.0  0.63878  0.89901  0.01610  1.0000
  C   C355      1.0  0.34377  0.82637  0.39195  1.0000
  H   H585      1.0  0.64362  0.97418  0.18591  1.0000
  C   C356      1.0  0.47512  0.89421  0.99832  1.0000
  H   H586      1.0  0.34076  0.86638  0.06406  1.0000
  H   H587      1.0  0.35902  0.82410  0.40827  1.0000
  H   H588      1.0  0.54104  0.97044  0.02442  1.0000
  H   H589      1.0  0.45492  0.96512  0.03353  1.0000
  S   S107      1.0  0.63732  0.86051  0.09831  1.0000
  H   H590      1.0  0.33439  0.85839  0.27233  1.0000
  C   C357      1.0  0.53545  0.95506  0.03365  1.0000
  H   H591      1.0  0.54064  0.95383  0.06396  1.0000
  H   H592      1.0  0.33180  0.82988  0.41391  1.0000
  H   H593      1.0  0.65079  0.89136  0.31040  1.0000
  H   H594      1.0  0.62835  0.82347  0.02288  1.0000
  H   H595      1.0  0.34262  0.87306  0.42427  1.0000
  H   H596      1.0  0.50444  0.95447  0.05909  1.0000
  H   H597      1.0  0.34653  0.88353  0.27572  1.0000
  N   N24       1.0  0.49861  0.96496  0.00163  1.0000
  H   H598      1.0  0.38231  0.95922  0.12603  1.0000
  H   H599      1.0  0.47068  0.94171  0.04702  1.0000
  N   N25       1.0  0.32639  0.85678  0.35250  1.0000
  H   H600      1.0  0.35752  0.97448  0.09064  1.0000
  C   C358      1.0  0.46280  0.95012  0.02311  1.0000
  C   C359      1.0  0.32768  0.88087  0.41379  1.0000
  H   H601      1.0  0.32367  0.84523  0.07638  1.0000
  H   H602      1.0  0.64268  0.83824  0.34316  1.0000
  H   H603      1.0  0.64396  0.85139  0.43237  1.0000
  H   H604      1.0  0.37739  0.98023  0.16167  1.0000
  H   H605      1.0  0.32720  0.89769  0.01196  1.0000
  H   H606      1.0  0.40330  0.96820  0.15669  1.0000
  H   H607      1.0  0.32722  0.89981  0.06221  1.0000
  H   H608      1.0  0.33107  0.89616  0.40088  1.0000
  H   H609      1.0  0.64593  0.95072  0.23484  1.0000
  H   H610      1.0  0.65123  0.85356  0.02052  1.0000
  H   H611      1.0  0.32069  0.83256  0.30798  1.0000
  H   H612      1.0  0.65283  0.83519  0.27844  1.0000
  C   C360      1.0  0.32013  0.92709  0.17616  1.0000
  H   H613      1.0  0.32074  0.86343  0.99710  1.0000
  N   N26       1.0  0.65138  0.87071  0.35878  1.0000
  H   H614      1.0  0.60539  0.91569  0.88855  1.0000
  C   C361      1.0  0.36225  0.92345  0.68103  1.0000
  S   S108      1.0  0.63007  0.87506  0.90724  1.0000
  N   N27       1.0  0.62622  0.95621  0.89666  1.0000
  H   H615      1.0  0.33179  0.95034  0.70660  1.0000
  N   N28       1.0  0.34095  0.90896  0.73636  1.0000
  C   C362      1.0  0.59832  0.92886  0.87207  1.0000
  H   H616      1.0  0.37452  0.91705  0.66116  1.0000
  S   S109      1.0  0.34724  0.88252  0.93956  1.0000
  S   S110      1.0  0.40339  0.91008  0.97272  1.0000
  C   C363      1.0  0.36154  0.90896  0.71528  1.0000
  C   C364      1.0  0.51662  0.94701  0.94305  1.0000
  C   C365      1.0  0.35908  0.89656  0.79931  1.0000
  C   C366      1.0  0.60307  0.95098  0.88985  1.0000
  H   H617      1.0  0.35880  0.88319  0.81902  1.0000
  C   C367      1.0  0.64654  0.93387  0.84445  1.0000
  H   H618      1.0  0.34732  0.92384  0.66365  1.0000
  C   C368      1.0  0.63594  0.94144  0.92557  1.0000
  H   H619      1.0  0.60327  0.92739  0.84204  1.0000
  H   H620      1.0  0.50265  0.94028  0.92735  1.0000
  H   H621      1.0  0.37482  0.91410  0.73478  1.0000
  H   H622      1.0  0.33849  0.88140  0.66929  1.0000
  H   H623      1.0  0.37567  0.89748  0.78965  1.0000
  H   H624      1.0  0.56292  0.97833  0.95263  1.0000
  H   H625      1.0  0.63835  0.86387  0.82898  1.0000
  H   H626      1.0  0.62646  0.94231  0.95196  1.0000
  H   H627      1.0  0.35474  0.91108  0.81649  1.0000
  H   H628      1.0  0.33692  0.92499  0.91020  1.0000
  H   H629      1.0  0.36643  0.93987  0.69043  1.0000
  C   C369      1.0  0.63804  0.95575  0.85978  1.0000
  H   H630      1.0  0.49926  0.89959  0.95731  1.0000
  H   H631      1.0  0.34810  0.87654  0.75282  1.0000
  Fe  Fe55      1.0  0.61902  0.88608  0.96687  1.0000
  H   H632      1.0  0.36677  0.89263  0.70577  1.0000
  H   H633      1.0  0.58080  0.92671  0.87165  1.0000
  H   H634      1.0  0.59506  0.96227  0.87022  1.0000
  H   H635      1.0  0.36331  0.96533  0.96028  1.0000
  H   H636      1.0  0.52849  0.95053  0.92144  1.0000
  H   H637      1.0  0.63852  0.91999  0.85494  1.0000
  H   H638      1.0  0.64441  0.81674  0.94079  1.0000
  H   H639      1.0  0.46193  0.89733  0.97869  1.0000
  H   H640      1.0  0.59435  0.95265  0.91703  1.0000
  C   C370      1.0  0.36679  0.98198  0.96059  1.0000
  H   H641      1.0  0.64456  0.93296  0.81295  1.0000
  C   C371      1.0  0.32484  0.94757  0.73443  1.0000
  H   H642      1.0  0.63546  0.92457  0.91578  1.0000
  C   C372      1.0  0.34309  0.89217  0.76590  1.0000
  H   H643      1.0  0.48167  0.93779  0.97764  1.0000
  C   C373      1.0  0.64442  0.82645  0.96786  1.0000
  H   H644      1.0  0.35219  0.93707  0.76773  1.0000
  H   H645      1.0  0.63570  0.84154  0.96113  1.0000
  C   C374      1.0  0.33063  0.89180  0.90103  1.0000
  H   H646      1.0  0.62781  0.96277  0.83685  1.0000
  H   H647      1.0  0.46896  0.96263  0.96839  1.0000
  H   H648      1.0  0.50081  0.97783  0.94571  1.0000
  C   C375      1.0  0.33695  0.93021  0.75678  1.0000
  H   H649      1.0  0.65225  0.96594  0.86292  1.0000
  C   C376      1.0  0.32829  0.91334  0.89298  1.0000
  S   S111      1.0  0.59411  0.91211  0.97164  1.0000
  H   H650      1.0  0.61420  0.81313  0.98208  1.0000
  C   C377      1.0  0.62695  0.97844  0.91432  1.0000
  Fe  Fe56      1.0  0.36958  0.90028  0.98241  1.0000
  H   H651      1.0  0.32524  0.96279  0.75142  1.0000
  C   C378      1.0  0.65212  0.87217  0.84030  1.0000
  C   C379      1.0  0.65238  0.87981  0.87847  1.0000
  H   H652      1.0  0.32738  0.88953  0.77863  1.0000
  H   H653      1.0  0.32068  0.86030  0.88403  1.0000
  H   H654      1.0  0.61991  0.97902  0.94300  1.0000
  C   C380      1.0  0.32441  0.88197  0.68766  1.0000
  H   H655      1.0  0.32738  0.92835  0.78252  1.0000
  C   C381      1.0  0.51046  0.96772  0.96544  1.0000
  H   H656      1.0  0.52394  0.93482  0.96150  1.0000
  C   C382      1.0  0.32218  0.90323  0.71060  1.0000
  H   H657      1.0  0.32472  0.86815  0.70626  1.0000
  H   H658      1.0  0.52535  0.97646  0.97056  1.0000
  C   C383      1.0  0.49637  0.89542  0.98623  1.0000
  H   H659      1.0  0.64369  0.98347  0.91905  1.0000
  S   S112      1.0  0.40691  0.97093  0.98705  1.0000
  Fe  Fe57      1.0  0.87104  0.35798  0.04402  1.0000
  C   C384      1.0  0.93869  0.47025  0.99716  1.0000
  S   S113      1.0  0.84981  0.33977  0.08304  1.0000
  Fe  Fe58      1.0  0.88579  0.40219  0.01902  1.0000
  C   C385      1.0  0.95036  0.46687  0.07883  1.0000
  H   H660      1.0  0.72573  0.11901  0.19954  1.0000
  H   H661      1.0  0.96009  0.21299  0.16383  1.0000
  S   S114      1.0  0.89521  0.38077  0.06741  1.0000
  Fe  Fe59      1.0  0.86899  0.27010  0.28100  1.0000
  S   S115      1.0  0.87428  0.23550  0.26416  1.0000
  S   S116      1.0  0.87686  0.29690  0.24091  1.0000
  Fe  Fe60      1.0  0.86362  0.25910  0.36654  1.0000
  S   S117      1.0  0.86926  0.22424  0.35427  1.0000
  S   S118      1.0  0.85245  0.27153  0.42495  1.0000
  Fe  Fe61      1.0  0.89559  0.23464  0.31692  1.0000
  S   S119      1.0  0.92871  0.21873  0.31786  1.0000
  Fe  Fe62      1.0  0.84735  0.22838  0.30314  1.0000
  S   S120      1.0  0.81632  0.21014  0.29129  1.0000
  S   S121      1.0  0.89136  0.26917  0.33266  1.0000
  S   S122      1.0  0.84075  0.26331  0.31658  1.0000
  Fe  Fe63      1.0  0.70102  0.10266  0.25650  1.0000
  S   S123      1.0  0.73035  0.08234  0.24446  1.0000
  S   S124      1.0  0.67990  0.11718  0.20865  1.0000
  Fe  Fe64      1.0  0.71104  0.10259  0.34451  1.0000
  S   S125      1.0  0.74006  0.08148  0.33680  1.0000
  S   S126      1.0  0.70421  0.11860  0.40272  1.0000
  Fe  Fe65      1.0  0.74734  0.10301  0.28920  1.0000
  S   S127      1.0  0.78118  0.11553  0.28523  1.0000
  Fe  Fe66      1.0  0.72020  0.06314  0.29335  1.0000
  S   S128      1.0  0.71322  0.02785  0.28745  1.0000
  S   S129      1.0  0.71891  0.12460  0.29796  1.0000
  S   S130      1.0  0.69025  0.08299  0.30419  1.0000
  C   C386      1.0  0.80731  0.18360  0.29319  1.0000
  C   C387      1.0  0.78525  0.18034  0.29525  1.0000
  C   C388      1.0  0.77706  0.15969  0.29433  1.0000
  C   C389      1.0  0.79077  0.14191  0.29019  1.0000
  C   C390      1.0  0.81285  0.14512  0.28882  1.0000
  C   C391      1.0  0.82111  0.16580  0.29062  1.0000
  H   H662      1.0  0.77442  0.19397  0.29741  1.0000
  H   H663      1.0  0.76011  0.15762  0.29641  1.0000
  H   H664      1.0  0.82368  0.13154  0.28579  1.0000
  H   H665      1.0  0.83808  0.16798  0.28885  1.0000
  C   C392      1.0  0.86117  0.39925  0.14865  1.0000
  H   H666      1.0  0.79413  0.14368  0.16087  1.0000
  H   H667      1.0  0.79906  0.10353  0.38832  1.0000
  H   H668      1.0  0.80129  0.12368  0.19370  1.0000
  H   H669      1.0  0.71399  0.13725  0.16760  1.0000
  C   C393      1.0  0.97094  0.41203  0.03297  1.0000
  H   H670      1.0  0.89634  0.25546  0.13135  1.0000
  C   C394      1.0  0.97109  0.25372  0.43367  1.0000
  H   H671      1.0  0.92385  0.29303  0.20785  1.0000
  H   H672      1.0  0.89267  0.25151  0.45105  1.0000
  N   N29       1.0  0.77254  0.13817  0.42048  1.0000
  C   C395      1.0  0.75145  0.00527  0.30124  1.0000
  C   C396      1.0  0.72914  0.00515  0.29862  1.0000
  H   H673      1.0  0.85039  0.45578  0.08951  1.0000
  H   H674      1.0  0.75962  0.01997  0.29823  1.0000
  H   H675      1.0  0.93806  0.20449  0.21364  1.0000
  C   C397      1.0  0.97117  0.21765  0.30175  1.0000
  C   C398      1.0  0.95292  0.23071  0.30683  1.0000
  C   C399      1.0  0.95438  0.25259  0.30216  1.0000
  H   H676      1.0  0.97027  0.20074  0.30552  1.0000
  H   H677      1.0  0.94055  0.26289  0.30684  1.0000
  C   C400      1.0  0.96630  0.37508  0.04625  1.0000
  C   C401      1.0  0.96653  0.22914  0.16771  1.0000
  H   H678      1.0  0.81791  0.40941  0.15592  1.0000
  C   C402      1.0  0.81117  0.38746  0.05819  1.0000
  H   H679      1.0  0.67972  0.02956  0.21428  1.0000
  C   C403      1.0  0.85806  0.32714  0.12596  1.0000
  C   C404      1.0  0.87722  0.33193  0.14531  1.0000
  C   C405      1.0  0.88255  0.32255  0.18031  1.0000
  C   C406      1.0  0.86910  0.30791  0.19627  1.0000
  C   C407      1.0  0.85018  0.30273  0.17649  1.0000
  C   C408      1.0  0.84461  0.31247  0.14185  1.0000
  H   H680      1.0  0.88773  0.34320  0.13370  1.0000
  H   H681      1.0  0.89719  0.32678  0.19527  1.0000
  H   H682      1.0  0.83960  0.29158  0.18829  1.0000
  H   H683      1.0  0.82972  0.30864  0.12732  1.0000
  C   C409      1.0  0.88085  0.46493  0.02363  1.0000
  H   H684      1.0  0.89373  0.47840  0.07634  1.0000
  H   H685      1.0  0.65811  0.99647  0.23248  1.0000
  H   H686      1.0  0.93823  0.47874  0.08893  1.0000
  H   H687      1.0  0.67333  0.07316  0.17947  1.0000
  S   S131      1.0  0.88616  0.43808  0.03770  1.0000
  C   C410      1.0  0.96491  0.47571  0.04875  1.0000
  C   C411      1.0  0.74948  0.15408  0.14288  1.0000
  C   C412      1.0  0.76320  0.98613  0.30695  1.0000
  C   C413      1.0  0.83407  0.45264  0.07826  1.0000
  H   H688      1.0  0.69809  0.11796  0.05176  1.0000
  H   H689      1.0  0.72678  0.17911  0.24152  1.0000
  H   H690      1.0  0.73297  0.11658  0.11271  1.0000
  C   C414      1.0  0.72860  0.12723  0.17279  1.0000
  C   C415      1.0  0.72878  0.11009  0.14029  1.0000
  H   H691      1.0  0.96580  0.27598  0.36941  1.0000
  H   H692      1.0  0.73316  0.15917  0.13304  1.0000
  H   H693      1.0  0.68523  0.99810  0.24363  1.0000
  C   C416      1.0  0.67430  0.01608  0.19544  1.0000
  C   C417      1.0  0.66721  0.13581  0.04650  1.0000
  H   H694      1.0  0.97564  0.46237  0.03883  1.0000
  H   H695      1.0  0.97106  0.31938  0.21755  1.0000
  C   C418      1.0  0.67394  0.99592  0.21896  1.0000
  N   N30       1.0  0.74809  0.14072  0.17742  1.0000
  H   H696      1.0  0.73900  0.14353  0.43160  1.0000
  H   H697      1.0  0.81534  0.42786  0.05302  1.0000
  H   H698      1.0  0.75640  0.14448  0.11875  1.0000
  H   H699      1.0  0.71715  0.99575  0.21363  1.0000
  H   H700      1.0  0.97430  0.27778  0.28485  1.0000
  C   C419      1.0  0.66319  0.10561  0.17165  1.0000
  H   H701      1.0  0.76998  0.17777  0.12063  1.0000
  H   H702      1.0  0.84373  0.38486  0.07566  1.0000
  H   H703      1.0  0.78596  0.14819  0.36792  1.0000
  H   H704      1.0  0.80471  0.13751  0.39964  1.0000
  H   H705      1.0  0.80253  0.17888  0.38826  1.0000
  C   C420      1.0  0.86336  0.26593  0.47077  1.0000
  C   C421      1.0  0.98064  0.30785  0.19995  1.0000
  C   C422      1.0  0.81710  0.42107  0.13292  1.0000
  H   H706      1.0  0.78559  0.43562  0.14070  1.0000
  H   H707      1.0  0.73960  0.09649  0.14733  1.0000
  H   H708      1.0  0.67439  0.15180  0.04799  1.0000
  H   H709      1.0  0.95570  0.23526  0.22479  1.0000
  C   C423      1.0  0.88651  0.48189  0.04893  1.0000
  H   H710      1.0  0.93959  0.27498  0.15599  1.0000
  H   H711      1.0  0.74287  0.14789  0.36040  1.0000
  H   H712      1.0  0.92140  0.28777  0.25691  1.0000
  C   C424      1.0  0.75267  0.15221  0.42087  1.0000
  C   C425      1.0  0.70858  0.10737  0.44809  1.0000
  C   C426      1.0  0.71360  0.08580  0.45192  1.0000
  H   H713      1.0  0.83216  0.46155  0.05165  1.0000
  C   C427      1.0  0.90677  0.26875  0.14024  1.0000
  H   H714      1.0  0.76335  0.11925  0.37034  1.0000
  H   H715      1.0  0.75223  0.11084  0.41258  1.0000
  C   C428      1.0  0.78037  0.13537  0.46088  1.0000
  H   H716      1.0  0.79537  0.39378  0.06669  1.0000
  S   S132      1.0  0.94987  0.35318  0.04603  1.0000
  H   H717      1.0  0.75921  0.16439  0.21982  1.0000
  H   H718      1.0  0.71109  0.15809  0.22175  1.0000
  H   H719      1.0  0.75655  0.17238  0.37164  1.0000
  H   H720      1.0  0.65813  0.02024  0.18388  1.0000
  C   C429      1.0  0.72519  0.16779  0.21666  1.0000
  H   H721      1.0  0.85748  0.43160  0.13255  1.0000
  H   H722      1.0  0.92314  0.25003  0.24669  1.0000
  N   N31       1.0  0.83230  0.41441  0.10196  1.0000
  H   H723      1.0  0.78416  0.18005  0.42543  1.0000
  C   C430      1.0  0.68285  0.12040  0.06664  1.0000
  H   H724      1.0  0.76057  0.10831  0.47555  1.0000
  N   N32       1.0  0.93084  0.24758  0.18705  1.0000
  C   C431      1.0  0.92071  0.25916  0.22050  1.0000
  C   C432      1.0  0.91912  0.22730  0.17866  1.0000
  C   C433      1.0  0.92940  0.26086  0.15226  1.0000
  C   C434      1.0  0.95402  0.24304  0.19698  1.0000
  H   H725      1.0  0.72217  0.17718  0.19099  1.0000
  H   H726      1.0  0.94245  0.45219  0.06814  1.0000
  C   C435      1.0  0.95788  0.23970  0.40544  1.0000
  H   H727      1.0  0.78508  0.40813  0.12479  1.0000
  H   H728      1.0  0.90309  0.26039  0.21648  1.0000
  H   H729      1.0  0.97911  0.24304  0.45446  1.0000
  H   H730      1.0  0.92406  0.21969  0.15108  1.0000
  H   H731      1.0  0.78043  0.98629  0.30870  1.0000
  H   H732      1.0  0.68682  0.12725  0.09546  1.0000
  H   H733      1.0  0.92644  0.46590  0.01748  1.0000
  H   H734      1.0  0.96792  0.22890  0.38743  1.0000
  H   H735      1.0  0.91187  0.19643  0.20002  1.0000
  C   C436      1.0  0.79325  0.42336  0.12164  1.0000
  C   C437      1.0  0.74568  0.15378  0.21394  1.0000
  C   C438      1.0  0.92873  0.28173  0.23006  1.0000
  H   H736      1.0  0.75432  0.16599  0.44130  1.0000
  S   S133      1.0  0.89371  0.33975  0.00570  1.0000
  H   H737      1.0  0.77492  0.17479  0.17002  1.0000
  H   H738      1.0  0.93568  0.25179  0.12706  1.0000
  C   C439      1.0  0.79711  0.17007  0.41290  1.0000
  C   C440      1.0  0.66323  0.08374  0.16295  1.0000
  H   H739      1.0  0.82207  0.45927  0.09832  1.0000
  H   H740      1.0  0.67536  0.10501  0.07132  1.0000
  H   H741      1.0  0.68575  0.01518  0.17215  1.0000
  C   C441      1.0  0.88352  0.25626  0.47572  1.0000
  C   C442      1.0  0.82892  0.39167  0.08851  1.0000
  C   C443      1.0  0.78443  0.09940  0.40303  1.0000
  H   H742      1.0  0.90787  0.27896  0.11534  1.0000
  C   C444      1.0  0.71882  0.98593  0.30237  1.0000
  H   H743      1.0  0.76905  0.11538  0.15549  1.0000
  H   H744      1.0  0.72963  0.16929  0.38539  1.0000
  C   C445      1.0  0.71604  0.07736  0.48843  1.0000
  H   H745      1.0  0.89896  0.27863  0.16279  1.0000
  C   C446      1.0  0.76215  0.17479  0.14781  1.0000
  H   H746      1.0  0.82195  0.43614  0.14786  1.0000
  H   H747      1.0  0.77837  0.08491  0.38794  1.0000
  C   C447      1.0  0.76704  0.11718  0.40112  1.0000
  H   H748      1.0  0.74591  0.14314  0.23853  1.0000
  H   H749      1.0  0.96709  0.23658  0.13974  1.0000
  H   H750      1.0  0.81525  0.39364  0.03024  1.0000
  H   H751      1.0  0.95928  0.26335  0.45042  1.0000
  H   H752      1.0  0.80976  0.36999  0.05366  1.0000
  H   H753      1.0  0.84279  0.42366  0.04707  1.0000
  H   H754      1.0  0.79016  0.42902  0.09264  1.0000
  H   H755      1.0  0.86660  0.41399  0.09578  1.0000
  S   S134      1.0  0.85951  0.38031  0.99771  1.0000
  H   H756      1.0  0.82578  0.38153  0.11292  1.0000
  C   C448      1.0  0.85471  0.41574  0.11866  1.0000
  H   H757      1.0  0.76527  0.11520  0.20540  1.0000
  H   H758      1.0  0.94761  0.22944  0.42176  1.0000
  C   C449      1.0  0.83084  0.42884  0.06866  1.0000
  H   H759      1.0  0.86129  0.38272  0.13653  1.0000
  H   H760      1.0  0.78836  0.09489  0.43259  1.0000
  H   H761      1.0  0.98544  0.33407  0.16497  1.0000
  H   H762      1.0  0.81045  0.16885  0.43418  1.0000
  C   C450      1.0  0.74527  0.16082  0.38211  1.0000
  H   H763      1.0  0.96235  0.29268  0.40943  1.0000
  C   C451      1.0  0.78913  0.13627  0.18717  1.0000
  H   H764      1.0  0.94614  0.28210  0.23512  1.0000
  C   C452      1.0  0.92141  0.21037  0.20925  1.0000
  H   H765      1.0  0.96294  0.25798  0.20080  1.0000
  H   H766      1.0  0.85094  0.40047  0.17385  1.0000
  H   H767      1.0  0.71507  0.07549  0.42677  1.0000
  H   H768      1.0  0.78971  0.14787  0.21154  1.0000
  H   H769      1.0  0.90168  0.23069  0.17514  1.0000
  Fe  Fe67      1.0  0.91706  0.36391  0.02661  1.0000
  H   H770      1.0  0.71254  0.10353  0.13690  1.0000
  H   H771      1.0  0.87775  0.40226  0.15894  1.0000
  C   C453      1.0  0.76729  0.12593  0.18130  1.0000
  H   H772      1.0  0.79592  0.12645  0.46175  1.0000
  C   C454      1.0  0.95760  0.39502  0.03771  1.0000
  H   H773      1.0  0.91509  0.21622  0.23690  1.0000
  C   C455      1.0  0.79002  0.14777  0.39880  1.0000
  C   C456      1.0  0.97498  0.28400  0.39296  1.0000
  H   H774      1.0  0.75119  0.18869  0.15292  1.0000
  H   H775      1.0  0.65522  0.07644  0.01910  1.0000
  C   C457      1.0  0.97358  0.26104  0.29018  1.0000
  H   H776      1.0  0.96034  0.46229  0.10394  1.0000
  N   N33       1.0  0.66054  0.12992  0.00600  1.0000
  H   H777      1.0  0.94692  0.24926  0.38722  1.0000
  H   H778      1.0  0.78373  0.15106  0.47504  1.0000
  H   H779      1.0  0.97353  0.28964  0.48542  1.0000
  H   H780      1.0  0.70161  0.98574  0.30126  1.0000
  H   H781      1.0  0.94060  0.39734  0.03427  1.0000
  H   H782      1.0  0.96948  0.29770  0.18293  1.0000
  H   H783      1.0  0.67926  0.08963  0.01224  1.0000
  H   H784      1.0  0.65979  0.99598  0.13286  1.0000
  C   C458      1.0  0.66263  0.08843  0.00167  1.0000
  H   H785      1.0  0.96417  0.42709  0.02460  1.0000
  H   H786      1.0  0.70273  0.13718  0.47863  1.0000
  C   C459      1.0  0.70665  0.12047  0.48125  1.0000
  H   H787      1.0  0.98327  0.22716  0.17844  1.0000
  H   H788      1.0  0.97938  0.31519  0.36984  1.0000
  H   H789      1.0  0.69209  0.11769  0.99007  1.0000
  C   C460      1.0  0.76490  0.12435  0.48671  1.0000
  H   H790      1.0  0.98367  0.30977  0.45559  1.0000
  H   H791      1.0  0.65318  0.13706  0.06512  1.0000
  H   H792      1.0  0.69716  0.98464  0.15189  1.0000
  H   H793      1.0  0.94749  0.45520  0.98921  1.0000
  H   H794      1.0  0.92850  0.28573  0.55874  1.0000
  H   H795      1.0  0.75152  0.98781  0.57369  1.0000
  H   H796      1.0  0.67726  0.99967  0.77914  1.0000
  S   S135      1.0  0.88736  0.35420  0.89743  1.0000
  Fe  Fe68      1.0  0.86470  0.26566  0.73152  1.0000
  S   S136      1.0  0.87641  0.23459  0.75489  1.0000
  S   S137      1.0  0.84738  0.28754  0.77495  1.0000
  Fe  Fe69      1.0  0.88204  0.25374  0.65172  1.0000
  S   S138      1.0  0.89554  0.22270  0.67222  1.0000
  S   S139      1.0  0.89297  0.25701  0.59068  1.0000
  Fe  Fe70      1.0  0.86385  0.21947  0.69997  1.0000
  S   S140      1.0  0.84925  0.18670  0.68983  1.0000
  Fe  Fe71      1.0  0.90657  0.24082  0.72449  1.0000
  S   S141      1.0  0.93849  0.24046  0.75675  1.0000
  S   S142      1.0  0.84995  0.25004  0.67789  1.0000
  S   S143      1.0  0.89530  0.27235  0.70300  1.0000
  Fe  Fe72      1.0  0.74001  0.11988  0.68988  1.0000
  S   S144      1.0  0.70702  0.11855  0.66183  1.0000
  S   S145      1.0  0.75397  0.15309  0.69835  1.0000
  Fe  Fe73      1.0  0.74174  0.07186  0.70012  1.0000
  S   S146      1.0  0.70982  0.06792  0.67206  1.0000
  S   S147      1.0  0.75795  0.04301  0.72652  1.0000
  Fe  Fe74      1.0  0.72060  0.09031  0.62850  1.0000
  S   S148      1.0  0.71522  0.07830  0.56663  1.0000
  Fe  Fe75      1.0  0.69895  0.09623  0.70821  1.0000
  H   H797      1.0  0.72705  0.99058  0.63508  1.0000
  S   S149      1.0  0.75371  0.09244  0.65454  1.0000
  S   S150      1.0  0.73083  0.09946  0.73819  1.0000
  C   C461      1.0  0.71403  0.09039  0.52160  1.0000
  C   C462      1.0  0.70960  0.11212  0.51780  1.0000
  H   H798      1.0  0.70842  0.99361  0.73359  1.0000
  H   H799      1.0  0.70786  0.12234  0.54298  1.0000
  C   C463      1.0  0.88049  0.25959  0.54511  1.0000
  H   H800      1.0  0.90793  0.24634  0.51616  1.0000
  C   C464      1.0  0.86007  0.26868  0.54022  1.0000
  C   C465      1.0  0.95175  0.29815  0.70815  1.0000
  H   H801      1.0  0.85106  0.27383  0.56485  1.0000
  C   C466      1.0  0.82264  0.17778  0.69300  1.0000
  C   C467      1.0  0.80549  0.19155  0.70203  1.0000
  C   C468      1.0  0.78466  0.18370  0.70349  1.0000
  C   C469      1.0  0.78065  0.16202  0.69605  1.0000
  C   C470      1.0  0.79779  0.14830  0.68676  1.0000
  C   C471      1.0  0.81861  0.15615  0.68522  1.0000
  H   H802      1.0  0.80826  0.20820  0.70811  1.0000
  H   H803      1.0  0.77155  0.19448  0.71074  1.0000
  H   H804      1.0  0.79504  0.13161  0.68098  1.0000
  H   H805      1.0  0.83172  0.14532  0.67820  1.0000
  H   H806      1.0  0.97923  0.39297  0.86540  1.0000
  H   H807      1.0  0.94285  0.28410  0.71602  1.0000
  C   C472      1.0  0.74068  0.01371  0.67461  1.0000
  C   C473      1.0  0.75282  0.01703  0.70811  1.0000
  C   C474      1.0  0.76059  0.99934  0.72796  1.0000
  C   C475      1.0  0.65348  0.11553  0.84219  1.0000
  C   C476      1.0  0.65563  0.09529  0.78169  1.0000
  H   H808      1.0  0.73479  0.02714  0.65883  1.0000
  H   H809      1.0  0.77008  0.00176  0.75381  1.0000
  H   H810      1.0  0.66678  0.13914  0.92562  1.0000
  C   C477      1.0  0.94290  0.26630  0.64157  1.0000
  C   C478      1.0  0.96519  0.22571  0.69978  1.0000
  C   C479      1.0  0.96306  0.23796  0.73349  1.0000
  C   C480      1.0  0.66360  0.11088  0.80723  1.0000
  H   H811      1.0  0.74312  0.05411  0.82107  1.0000
  H   H812      1.0  0.65874  0.11962  0.66927  1.0000
  H   H813      1.0  0.95160  0.21743  0.68760  1.0000
  C   C481      1.0  0.93239  0.29768  0.58175  1.0000
  H   H814      1.0  0.67209  0.12442  0.60110  1.0000
  H   H815      1.0  0.93168  0.30638  0.66057  1.0000
  H   H816      1.0  0.71931  0.06052  0.49095  1.0000
  C   C482      1.0  0.87553  0.33579  0.86399  1.0000
  C   C483      1.0  0.85673  0.32530  0.87094  1.0000
  C   C484      1.0  0.84818  0.31083  0.84323  1.0000
  C   C485      1.0  0.85855  0.30623  0.80873  1.0000
  C   C486      1.0  0.87734  0.31672  0.80186  1.0000
  C   C487      1.0  0.88563  0.33151  0.82914  1.0000
  H   H817      1.0  0.84864  0.32853  0.89739  1.0000
  H   H818      1.0  0.83349  0.30303  0.84869  1.0000
  H   H819      1.0  0.88529  0.31368  0.77523  1.0000
  H   H820      1.0  0.90004  0.33967  0.82324  1.0000
  N   N34       1.0  0.82686  0.20510  0.57174  1.0000
  C   C488      1.0  0.84982  0.20649  0.56025  1.0000
  C   C489      1.0  0.82363  0.18268  0.58367  1.0000
  C   C490      1.0  0.82292  0.22087  0.60439  1.0000
  C   C491      1.0  0.86685  0.20013  0.59043  1.0000
  C   C492      1.0  0.80087  0.17699  0.59408  1.0000
  C   C493      1.0  0.79962  0.22868  0.61063  1.0000
  H   H821      1.0  0.85290  0.19649  0.53404  1.0000
  H   H822      1.0  0.85351  0.22299  0.55299  1.0000
  H   H823      1.0  0.83365  0.17908  0.60933  1.0000
  H   H824      1.0  0.82900  0.21429  0.63167  1.0000
  H   H825      1.0  0.83213  0.23548  0.60054  1.0000
  H   H826      1.0  0.86380  0.20801  0.61844  1.0000
  H   H827      1.0  0.86795  0.18267  0.59346  1.0000
  H   H828      1.0  0.88272  0.20520  0.58150  1.0000
  C   C494      1.0  0.81312  0.20946  0.53690  1.0000
  H   H829      1.0  0.79581  0.18566  0.62045  1.0000
  H   H830      1.0  0.78902  0.17929  0.57063  1.0000
  H   H831      1.0  0.79716  0.23089  0.64174  1.0000
  H   H832      1.0  0.78716  0.21787  0.59974  1.0000
  H   H833      1.0  0.79680  0.24465  0.59885  1.0000
  N   N35       1.0  0.90552  0.26410  0.86858  1.0000
  C   C495      1.0  0.90542  0.26835  0.82660  1.0000
  C   C496      1.0  0.88878  0.24782  0.87403  1.0000
  C   C497      1.0  0.92723  0.25477  0.87876  1.0000
  C   C498      1.0  0.90128  0.28479  0.89041  1.0000
  C   C499      1.0  0.92213  0.28390  0.81358  1.0000
  C   C500      1.0  0.86569  0.25468  0.86298  1.0000
  C   C501      1.0  0.93104  0.24832  0.92021  1.0000
  C   C502      1.0  0.89264  0.28363  0.93110  1.0000
  H   H834      1.0  0.90764  0.25324  0.80962  1.0000
  H   H835      1.0  0.88976  0.27500  0.81692  1.0000
  H   H836      1.0  0.88842  0.24276  0.90373  1.0000
  H   H837      1.0  0.89260  0.23295  0.85708  1.0000
  H   H838      1.0  0.93083  0.24051  0.85997  1.0000
  H   H839      1.0  0.93990  0.26623  0.87374  1.0000
  H   H840      1.0  0.91589  0.29445  0.89238  1.0000
  H   H841      1.0  0.88932  0.29448  0.87445  1.0000
  H   H842      1.0  0.92146  0.29934  0.82968  1.0000
  H   H843      1.0  0.93852  0.27688  0.81486  1.0000
  H   H844      1.0  0.91874  0.28726  0.78319  1.0000
  H   H845      1.0  0.86104  0.27047  0.87539  1.0000
  H   H846      1.0  0.86312  0.25468  0.83166  1.0000
  H   H847      1.0  0.85450  0.24304  0.87358  1.0000
  H   H848      1.0  0.97313  0.36917  0.83961  1.0000
  H   H849      1.0  0.72212  0.02272  0.83148  1.0000
  H   H850      1.0  0.83615  0.27970  0.49967  1.0000
  C   C503      1.0  0.87133  0.46991  0.98849  1.0000
  H   H851      1.0  0.89486  0.26818  0.94457  1.0000
  H   H852      1.0  0.87547  0.28845  0.93137  1.0000
  C   C504      1.0  0.69375  0.00357  0.78827  1.0000
  H   H853      1.0  0.94242  0.25253  0.58273  1.0000
  C   C505      1.0  0.65880  0.03247  0.81108  1.0000
  C   C506      1.0  0.94652  0.24786  0.61213  1.0000
  C   C507      1.0  0.66063  0.06052  0.60861  1.0000
  H   H854      1.0  0.73213  0.02298  0.78476  1.0000
  N   N36       1.0  0.95661  0.28534  0.63802  1.0000
  C   C508      1.0  0.98496  0.22406  0.68188  1.0000
  C   C509      1.0  0.67538  0.12545  0.93847  1.0000
  H   H855      1.0  0.72595  0.06237  0.78326  1.0000
  H   H856      1.0  0.69529  0.99820  0.81808  1.0000
  S   S151      1.0  0.90975  0.38639  0.97984  1.0000
  H   H857      1.0  0.82887  0.17107  0.56090  1.0000
  H   H858      1.0  0.65718  0.01688  0.82418  1.0000
  H   H859      1.0  0.91980  0.23632  0.92901  1.0000
  C   C510      1.0  0.67684  0.03018  0.72240  1.0000
  C   C511      1.0  0.71989  0.03048  0.80363  1.0000
  H   H860      1.0  0.65994  0.08638  0.64997  1.0000
  H   H861      1.0  0.66974  0.01476  0.72740  1.0000
  Fe  Fe76      1.0  0.88440  0.36317  0.96108  1.0000
  H   H862      1.0  0.80081  0.15988  0.60062  1.0000
  H   H863      1.0  0.93572  0.23484  0.61845  1.0000
  H   H864      1.0  0.97945  0.25760  0.77576  1.0000
  C   C512      1.0  0.85169  0.27205  0.50323  1.0000
  H   H865      1.0  0.80328  0.23435  0.49810  1.0000
  C   C513      1.0  0.94896  0.30274  0.66541  1.0000
  H   H866      1.0  0.71642  0.06256  0.83145  1.0000
  C   C514      1.0  0.65522  0.09519  0.55459  1.0000
  H   H867      1.0  0.96384  0.30856  0.59683  1.0000
  H   H868      1.0  0.92574  0.27089  0.64032  1.0000
  H   H869      1.0  0.65717  0.14578  0.65238  1.0000
  H   H870      1.0  0.79591  0.20878  0.54255  1.0000
  H   H871      1.0  0.97485  0.37361  0.91745  1.0000
  S   S152      1.0  0.66670  0.08981  0.73563  1.0000
  C   C515      1.0  0.69677  0.03513  0.74747  1.0000
  H   H872      1.0  0.66450  0.04305  0.72556  1.0000
  H   H873      1.0  0.96296  0.24109  0.61362  1.0000
  H   H874      1.0  0.66947  0.05606  0.58242  1.0000
  H   H875      1.0  0.66799  0.05104  0.63174  1.0000
  C   C516      1.0  0.89210  0.25335  0.51269  1.0000
  C   C517      1.0  0.72635  0.05381  0.81014  1.0000
  H   H876      1.0  0.67279  0.09569  0.55169  1.0000
  H   H877      1.0  0.94725  0.24090  0.92287  1.0000
  H   H878      1.0  0.81687  0.24437  0.54016  1.0000
  H   H879      1.0  0.90078  0.29556  0.95005  1.0000
  C   C518      1.0  0.70855  0.98905  0.76374  1.0000
  H   H880      1.0  0.93157  0.31334  0.56826  1.0000
  C   C519      1.0  0.95521  0.29344  0.59824  1.0000
  H   H881      1.0  0.68739  0.03881  0.84287  1.0000
  H   H882      1.0  0.67994  0.08799  0.61659  1.0000
  H   H883      1.0  0.71105  0.02980  0.73126  1.0000
  H   H884      1.0  0.69072  0.12329  0.92359  1.0000
  H   H885      1.0  0.91959  0.29793  0.60277  1.0000
  H   H886      1.0  0.68186  0.05666  0.80574  1.0000
  H   H887      1.0  0.68150  0.02905  0.69212  1.0000
  H   H888      1.0  0.69785  0.05272  0.74828  1.0000
  H   H889      1.0  0.93086  0.26239  0.94012  1.0000
  H   H890      1.0  0.95694  0.31791  0.66051  1.0000
  H   H891      1.0  0.94527  0.25947  0.66997  1.0000
  H   H892      1.0  0.66621  0.11088  0.93260  1.0000
  H   H893      1.0  0.67715  0.11989  0.79951  1.0000
  C   C520      1.0  0.73637  0.99294  0.66113  1.0000
  H   H894      1.0  0.96350  0.28208  0.57819  1.0000
  H   H895      1.0  0.81593  0.19686  0.51435  1.0000
  C   C521      1.0  0.68216  0.03948  0.81237  1.0000
  H   H896      1.0  0.77266  0.12229  0.51514  1.0000
  N   N37       1.0  0.69766  0.02706  0.78731  1.0000
  H   H897      1.0  0.65937  0.12825  0.86061  1.0000
  C   C522      1.0  0.98093  0.24828  0.74946  1.0000
  C   C523      1.0  0.67986  0.12961  0.98135  1.0000
  H   H898      1.0  0.86674  0.45723  0.96861  1.0000
  H   H899      1.0  0.97639  0.34902  0.89140  1.0000
  C   C524      1.0  0.65491  0.12190  0.60649  1.0000
  H   H900      1.0  0.96872  0.29608  0.71715  1.0000
  C   C525      1.0  0.81652  0.23100  0.51879  1.0000
  H   H901      1.0  0.94517  0.31190  0.72517  1.0000
  H   H902      1.0  0.93605  0.48137  0.93803  1.0000
  H   H903      1.0  0.72513  0.98867  0.77542  1.0000
  H   H904      1.0  0.66235  0.08143  0.97219  1.0000
  H   H905      1.0  0.91622  0.46352  0.95079  1.0000
  H   H906      1.0  0.65418  0.16218  0.98784  1.0000
  H   H907      1.0  0.98543  0.26674  0.62575  1.0000
  H   H908      1.0  0.68806  0.14506  0.98454  1.0000
  C   C526      1.0  0.66282  0.08436  0.61915  1.0000
  H   H909      1.0  0.97383  0.33669  0.95156  1.0000
  C   C527      1.0  0.92585  0.47711  0.96161  1.0000
  H   H910      1.0  0.75017  0.13413  0.49132  1.0000
  H   H911      1.0  0.83145  0.23064  0.50247  1.0000
  H   H912      1.0  0.97890  0.47568  0.97741  1.0000
  C   C528      1.0  0.98509  0.36399  0.89744  1.0000
  C   C529      1.0  0.98493  0.37630  0.86012  1.0000
  H   H913      1.0  0.98068  0.27084  0.67463  1.0000
  C   C530      1.0  0.97942  0.27880  0.64704  1.0000
  S   S153      1.0  0.90310  0.57447  0.05747  1.0000
  Fe  Fe77      1.0  0.88678  0.60667  0.06713  1.0000
  S   S154      1.0  0.88476  0.61744  0.13061  1.0000
  Fe  Fe78      1.0  0.87939  0.76561  0.32822  1.0000
  S   S155      1.0  0.85866  0.73723  0.32584  1.0000
  S   S156      1.0  0.86587  0.79984  0.33192  1.0000
  Fe  Fe79      1.0  0.92039  0.73753  0.33630  1.0000
  S   S157      1.0  0.90167  0.70748  0.33561  1.0000
  S   S158      1.0  0.95583  0.72938  0.34318  1.0000
  Fe  Fe80      1.0  0.88302  0.72141  0.28665  1.0000
  S   S159      1.0  0.87536  0.70583  0.22745  1.0000
  Fe  Fe81      1.0  0.87956  0.72592  0.37491  1.0000
  S   S160      1.0  0.86402  0.71487  0.42852  1.0000
  S   S161      1.0  0.90262  0.75092  0.28584  1.0000
  S   S162      1.0  0.89937  0.75487  0.37875  1.0000
  Fe  Fe82      1.0  0.72433  0.88688  0.37772  1.0000
  S   S163      1.0  0.75938  0.88764  0.36574  1.0000
  S   S164      1.0  0.70899  0.89347  0.43553  1.0000
  Fe  Fe83      1.0  0.71120  0.88807  0.29076  1.0000
  S   S165      1.0  0.74551  0.88844  0.27411  1.0000
  S   S166      1.0  0.68303  0.89773  0.25115  1.0000
  Fe  Fe84      1.0  0.75169  0.86369  0.31838  1.0000
  S   S167      1.0  0.76956  0.83246  0.30312  1.0000
  Fe  Fe85      1.0  0.74999  0.91221  0.32277  1.0000
  S   S168      1.0  0.76778  0.94278  0.31624  1.0000
  S   S169      1.0  0.71670  0.86175  0.33223  1.0000
  S   S170      1.0  0.71574  0.91290  0.33774  1.0000
  C   C531      1.0  0.75277  0.96681  0.30998  1.0000
  N   N38       1.0  0.83416  0.66992  0.32548  1.0000
  C   C532      1.0  0.73051  0.96690  0.30762  1.0000
  H   H914      1.0  0.92357  0.64614  0.11724  1.0000
  H   H915      1.0  0.72220  0.95232  0.30954  1.0000
  C   C533      1.0  0.83834  0.80741  0.32753  1.0000
  C   C534      1.0  0.82411  0.79573  0.30432  1.0000
  C   C535      1.0  0.80303  0.80343  0.29798  1.0000
  C   C536      1.0  0.79573  0.82273  0.31510  1.0000
  C   C537      1.0  0.80966  0.83401  0.33960  1.0000
  C   C538      1.0  0.83093  0.82654  0.34529  1.0000
  H   H916      1.0  0.82956  0.78109  0.29026  1.0000
  H   H917      1.0  0.79239  0.79450  0.27915  1.0000
  H   H918      1.0  0.80417  0.84865  0.35356  1.0000
  H   H919      1.0  0.84177  0.83568  0.36337  1.0000
  C   C539      1.0  0.88308  0.50336  0.03915  1.0000
  C   C540      1.0  0.66456  0.86888  0.39511  1.0000
  C   C541      1.0  0.67619  0.86658  0.19340  1.0000
  C   C542      1.0  0.75713  0.93365  0.45843  1.0000
  H   H920      1.0  0.84346  0.64424  0.36247  1.0000
  H   H921      1.0  0.97507  0.65739  0.01924  1.0000
  C   C543      1.0  0.94369  0.67075  0.09879  1.0000
  H   H922      1.0  0.70071  0.95780  0.16302  1.0000
  H   H923      1.0  0.85050  0.63953  0.31411  1.0000
  H   H924      1.0  0.68404  0.94211  0.21372  1.0000
  H   H925      1.0  0.83415  0.86503  0.17743  1.0000
  H   H926      1.0  0.95300  0.68043  0.11960  1.0000
  H   H927      1.0  0.67037  0.84265  0.34154  1.0000
  C   C544      1.0  0.85884  0.85338  0.26024  1.0000
  H   H928      1.0  0.96083  0.77488  0.33130  1.0000
  C   C545      1.0  0.88256  0.64234  0.15674  1.0000
  C   C546      1.0  0.87852  0.66162  0.13910  1.0000
  C   C547      1.0  0.87654  0.68078  0.16120  1.0000
  C   C548      1.0  0.87907  0.68113  0.20118  1.0000
  C   C549      1.0  0.88359  0.66190  0.21878  1.0000
  C   C550      1.0  0.88501  0.64266  0.19675  1.0000
  H   H929      1.0  0.87649  0.66175  0.10846  1.0000
  H   H930      1.0  0.87293  0.69547  0.14715  1.0000
  H   H931      1.0  0.88570  0.66178  0.24936  1.0000
  H   H932      1.0  0.88815  0.62788  0.21081  1.0000
  H   H933      1.0  0.92936  0.62044  0.16089  1.0000
  C   C551      1.0  0.79916  0.87110  0.24749  1.0000
  C   C552      1.0  0.84152  0.67806  0.28836  1.0000
  H   H934      1.0  0.79859  0.85518  0.18992  1.0000
  H   H935      1.0  0.86711  0.86380  0.24107  1.0000
  H   H936      1.0  0.81567  0.91745  0.28434  1.0000
  C   C553      1.0  0.82658  0.88404  0.29267  1.0000
  H   H937      1.0  0.68751  0.85655  0.20858  1.0000
  H   H938      1.0  0.82154  0.90447  0.22643  1.0000
  H   H939      1.0  0.83574  0.67993  0.38526  1.0000
  H   H940      1.0  0.79197  0.86687  0.27471  1.0000
  C   C554      1.0  0.82640  0.69346  0.26675  1.0000
  H   H941      1.0  0.81328  0.71136  0.33102  1.0000
  C   C555      1.0  0.81630  0.70348  0.35820  1.0000
  H   H942      1.0  0.79611  0.83752  0.22892  1.0000
  H   H943      1.0  0.94645  0.53693  0.00537  1.0000
  H   H944      1.0  0.95421  0.74363  0.41876  1.0000
  C   C556      1.0  0.97800  0.74610  0.34548  1.0000
  H   H945      1.0  0.69990  0.84816  0.03201  1.0000
  H   H946      1.0  0.93590  0.58618  0.13172  1.0000
  C   C557      1.0  0.82999  0.88200  0.18265  1.0000
  H   H947      1.0  0.91958  0.52928  0.00595  1.0000
  H   H948      1.0  0.93732  0.78891  0.48630  1.0000
  C   C558      1.0  0.80900  0.64335  0.29088  1.0000
  C   C559      1.0  0.81285  0.90410  0.30301  1.0000
  H   H949      1.0  0.92974  0.64560  0.20753  1.0000
  H   H950      1.0  0.66363  0.92327  0.33945  1.0000
  H   H951      1.0  0.73399  0.85637  0.46275  1.0000
  C   C560      1.0  0.81217  0.66084  0.32227  1.0000
  C   C561      1.0  0.87254  0.65844  0.34671  1.0000
  H   H952      1.0  0.66381  0.94148  0.27116  1.0000
  C   C562      1.0  0.83465  0.85297  0.25160  1.0000
  H   H953      1.0  0.67175  0.84959  0.44389  1.0000
  H   H954      1.0  0.67026  0.91179  0.38366  1.0000
  Fe  Fe86      1.0  0.92274  0.59080  0.01602  1.0000
  H   H955      1.0  0.67032  0.97082  0.11376  1.0000
  C   C563      1.0  0.94055  0.64747  0.10932  1.0000
  H   H956      1.0  0.98212  0.76950  0.42471  1.0000
  H   H957      1.0  0.68197  0.86233  0.06288  1.0000
  C   C564      1.0  0.65668  0.89987  0.18739  1.0000
  H   H958      1.0  0.81303  0.64876  0.26237  1.0000
  H   H959      1.0  0.88202  0.64400  0.35436  1.0000
  H   H960      1.0  0.82841  0.69063  0.23563  1.0000
  H   H961      1.0  0.92539  0.66662  0.17405  1.0000
  H   H962      1.0  0.84978  0.69616  0.35507  1.0000
  H   H963      1.0  0.80787  0.65419  0.34988  1.0000
  H   H964      1.0  0.86243  0.85796  0.29047  1.0000
  H   H965      1.0  0.77436  0.85444  0.21522  1.0000
  H   H966      1.0  0.67638  0.88598  0.33016  1.0000
  C   C565      1.0  0.68431  0.85667  0.03290  1.0000
  C   C566      1.0  0.93659  0.77594  0.46405  1.0000
  H   H967      1.0  0.91943  0.77182  0.46084  1.0000
  H   H968      1.0  0.66909  0.84260  0.14958  1.0000
  H   H969      1.0  0.98603  0.62133  0.14169  1.0000
  H   H970      1.0  0.90630  0.70233  0.45738  1.0000
  H   H971      1.0  0.73196  0.98037  0.17942  1.0000
  C   C567      1.0  0.98112  0.64116  0.01898  1.0000
  H   H972      1.0  0.95920  0.70763  0.42911  1.0000
  H   H973      1.0  0.96837  0.64412  0.19589  1.0000
  C   C568      1.0  0.72625  0.86428  0.48669  1.0000
  C   C569      1.0  0.71851  0.97984  0.19921  1.0000
  H   H974      1.0  0.74895  0.92567  0.43358  1.0000
  H   H975      1.0  0.66245  0.88322  0.41422  1.0000
  H   H976      1.0  0.66817  0.85853  0.28131  1.0000
  Fe  Fe87      1.0  0.88059  0.56879  0.00785  1.0000
  C   C570      1.0  0.67159  0.88720  0.20759  1.0000
  H   H977      1.0  0.79091  0.88619  0.23926  1.0000
  H   H978      1.0  0.94057  0.67109  0.21708  1.0000
  C   C571      1.0  0.71327  0.88236  0.48095  1.0000
  H   H979      1.0  0.95133  0.67132  0.07074  1.0000
  H   H980      1.0  0.94151  0.63793  0.08222  1.0000
  C   C572      1.0  0.66571  0.85870  0.15984  1.0000
  H   H981      1.0  0.93003  0.73681  0.43877  1.0000
  C   C573      1.0  0.97704  0.63252  0.12295  1.0000
  C   C574      1.0  0.95718  0.71747  0.45575  1.0000
  H   H982      1.0  0.94366  0.77497  0.40228  1.0000
  S   S171      1.0  0.95755  0.58202  0.01413  1.0000
  H   H983      1.0  0.81821  0.62858  0.29719  1.0000
  C   C575      1.0  0.83495  0.68705  0.35666  1.0000
  N   N39       1.0  0.95379  0.48612  0.01533  1.0000
  H   H984      1.0  0.92784  0.67897  0.09619  1.0000
  C   C576      1.0  0.84935  0.65213  0.33706  1.0000
  H   H985      1.0  0.83049  0.71021  0.27366  1.0000
  H   H986      1.0  0.87364  0.66970  0.37170  1.0000
  C   C577      1.0  0.79203  0.85357  0.21843  1.0000
  H   H987      1.0  0.84745  0.89421  0.23239  1.0000
  H   H988      1.0  0.84218  0.89053  0.16726  1.0000
  H   H989      1.0  0.88752  0.51607  0.05907  1.0000
  C   C578      1.0  0.67997  0.95788  0.22757  1.0000
  H   H990      1.0  0.84347  0.88869  0.29707  1.0000
  H   H991      1.0  0.84593  0.66477  0.26804  1.0000
  C   C579      1.0  0.94470  0.59951  0.12033  1.0000
  H   H992      1.0  0.79966  0.67319  0.31703  1.0000
  H   H993      1.0  0.79556  0.90090  0.30289  1.0000
  C   C580      1.0  0.94271  0.78630  0.42705  1.0000
  H   H994      1.0  0.82780  0.84217  0.27196  1.0000
  H   H995      1.0  0.80928  0.69146  0.27127  1.0000
  H   H996      1.0  0.80149  0.69634  0.36776  1.0000
  H   H997      1.0  0.81406  0.88570  0.16964  1.0000
  N   N40       1.0  0.82285  0.87418  0.25326  1.0000
  H   H998      1.0  0.88031  0.66507  0.32203  1.0000
  C   C581      1.0  0.93706  0.65909  0.19394  1.0000
  H   H999      1.0  0.83255  0.84449  0.22367  1.0000
  H   H1000     1.0  0.86568  0.83703  0.25578  1.0000
  H   H1001     1.0  0.82038  0.71619  0.37977  1.0000
  S   S172      1.0  0.86224  0.60016  0.01967  1.0000
  N   N41       1.0  0.95542  0.63805  0.13903  1.0000
  C   C582      1.0  0.94596  0.61763  0.15109  1.0000
  C   C583      1.0  0.97482  0.60333  0.01634  1.0000
  N   N42       1.0  0.94977  0.75679  0.47589  1.0000
  C   C584      1.0  0.83092  0.88924  0.22500  1.0000
  S   S173      1.0  0.90831  0.62301  0.02864  1.0000
  H   H1002     1.0  0.79192  0.63910  0.28938  1.0000
  C   C585      1.0  0.65994  0.84983  0.41971  1.0000
  H   H1003     1.0  0.85672  0.68657  0.29295  1.0000
  H   H1004     1.0  0.66311  0.83141  0.04327  1.0000
  H   H1005     1.0  0.81716  0.90971  0.33248  1.0000
  C   C586      1.0  0.95794  0.65217  0.17437  1.0000
  H   H1006     1.0  0.96629  0.66692  0.16897  1.0000
  H   H1007     1.0  0.95149  0.51402  0.05293  1.0000
  H   H1008     1.0  0.92699  0.50149  0.04344  1.0000
  H   H1009     1.0  0.66166  0.83435  0.40392  1.0000
  H   H1010     1.0  0.82373  0.87233  0.31473  1.0000
  H   H1011     1.0  0.70553  0.81177  0.02696  1.0000
  H   H1012     1.0  0.95508  0.61112  0.17587  1.0000
  C   C587      1.0  0.66033  0.95489  0.25215  1.0000
  H   H1013     1.0  0.97298  0.71869  0.47033  1.0000
  C   C588      1.0  0.87635  0.71635  0.47480  1.0000
  C   C589      1.0  0.96699  0.62432  0.01693  1.0000
  C   C590      1.0  0.97626  0.76774  0.33817  1.0000
  C   C591      1.0  0.94194  0.50585  0.02986  1.0000
  H   H1014     1.0  0.96070  0.59307  0.11253  1.0000
  H   H1015     1.0  0.93579  0.60442  0.09441  1.0000
  C   C592      1.0  0.65890  0.96929  0.17230  1.0000
  C   C593      1.0  0.89716  0.70852  0.48116  1.0000
  H   H1016     1.0  0.77383  0.92747  0.45884  1.0000
  C   C594      1.0  0.87361  0.50836  0.00396  1.0000
  H   H1017     1.0  0.97548  0.48705  0.06459  1.0000
  H   H1018     1.0  0.94647  0.70880  0.47392  1.0000
  H   H1019     1.0  0.95773  0.79506  0.43107  1.0000
  C   C595      1.0  0.93605  0.52306  0.00077  1.0000
  H   H1020     1.0  0.65694  0.96906  0.27090  1.0000
  H   H1021     1.0  0.68183  0.86780  0.38861  1.0000
  H   H1022     1.0  0.68468  0.87110  0.01579  1.0000
  H   H1023     1.0  0.69333  0.96118  0.24807  1.0000
  H   H1024     1.0  0.95015  0.62766  0.01529  1.0000
  C   C596      1.0  0.70273  0.81050  0.99563  1.0000
  H   H1025     1.0  0.72316  0.96779  0.22027  1.0000
  C   C597      1.0  0.97280  0.76235  0.48363  1.0000
  C   C598      1.0  0.94723  0.73930  0.44580  1.0000
  H   H1026     1.0  0.67172  0.80073  0.00848  1.0000
  H   H1027     1.0  0.93014  0.79831  0.41956  1.0000
  N   N43       1.0  0.67772  0.97479  0.19827  1.0000
  C   C599      1.0  0.66549  0.84263  0.02011  1.0000
  C   C600      1.0  0.65952  0.88919  0.33789  1.0000
  C   C601      1.0  0.69805  0.97399  0.17623  1.0000
  H   H1028     1.0  0.97535  0.62395  0.09487  1.0000
  H   H1029     1.0  0.97950  0.74063  0.25113  1.0000
  H   H1030     1.0  0.98177  0.52048  0.01663  1.0000
  H   H1031     1.0  0.65813  0.95174  0.16715  1.0000
  H   H1032     1.0  0.75662  0.95085  0.45292  1.0000
  C   C602      1.0  0.65873  0.91105  0.35919  1.0000
  C   C603      1.0  0.65440  0.85018  0.33537  1.0000
  C   C604      1.0  0.65811  0.97858  0.13230  1.0000
  H   H1033     1.0  0.98510  0.66290  0.09776  1.0000
  C   C605      1.0  0.65346  0.85148  0.29154  1.0000
  S   S174      1.0  0.86839  0.53528  0.99014  1.0000
  C   C606      1.0  0.86442  0.72351  0.50638  1.0000
  C   C607      1.0  0.86761  0.49139  0.97895  1.0000
  S   S175      1.0  0.88086  0.64455  0.94258  1.0000
  C   C608      1.0  0.66953  0.87510  0.81650  1.0000
  C   C609      1.0  0.68788  0.89316  0.86893  1.0000
  H   H1034     1.0  0.91422  0.49012  0.96865  1.0000
  C   C610      1.0  0.71959  0.93911  0.56934  1.0000
  H   H1035     1.0  0.71109  0.82325  0.98200  1.0000
  H   H1036     1.0  0.79072  0.78133  0.54855  1.0000
  Fe  Fe88      1.0  0.89623  0.72371  0.65693  1.0000
  S   S176      1.0  0.89588  0.75776  0.67930  1.0000
  S   S177      1.0  0.90654  0.71428  0.59620  1.0000
  Fe  Fe89      1.0  0.88998  0.70607  0.73834  1.0000
  S   S178      1.0  0.88935  0.73900  0.76487  1.0000
  S   S179      1.0  0.88675  0.67482  0.77027  1.0000
  Fe  Fe90      1.0  0.86833  0.74858  0.71485  1.0000
  S   S180      1.0  0.83531  0.76452  0.72394  1.0000
  Fe  Fe91      1.0  0.91681  0.74524  0.72705  1.0000
  S   S181      1.0  0.94660  0.76004  0.75347  1.0000
  S   S182      1.0  0.86752  0.71503  0.68960  1.0000
  S   S183      1.0  0.91869  0.71183  0.70332  1.0000
  Fe  Fe92      1.0  0.72799  0.87315  0.65584  1.0000
  S   S184      1.0  0.75802  0.89084  0.65160  1.0000
  S   S185      1.0  0.72060  0.85443  0.60019  1.0000
  Fe  Fe93      1.0  0.72431  0.88561  0.74214  1.0000
  S   S186      1.0  0.75504  0.90365  0.74117  1.0000
  S   S187      1.0  0.71044  0.88931  0.80253  1.0000
  Fe  Fe94      1.0  0.74185  0.91678  0.68660  1.0000
  S   S188      1.0  0.73831  0.94962  0.66178  1.0000
  Fe  Fe95      1.0  0.76814  0.87556  0.70625  1.0000
  S   S189      1.0  0.80221  0.86111  0.70788  1.0000
  S   S190      1.0  0.71082  0.89985  0.68816  1.0000
  S   S191      1.0  0.73850  0.85680  0.70992  1.0000
  C   C611      1.0  0.71884  0.86620  0.55500  1.0000
  C   C612      1.0  0.72871  0.85606  0.52346  1.0000
  C   C613      1.0  0.70614  0.88443  0.54921  1.0000
  H   H1037     1.0  0.73811  0.84165  0.52739  1.0000
  H   H1038     1.0  0.69800  0.89207  0.57298  1.0000
  C   C614      1.0  0.89410  0.71522  0.55008  1.0000
  C   C615      1.0  0.87333  0.72326  0.54377  1.0000
  C   C616      1.0  0.90578  0.70762  0.51856  1.0000
  H   H1039     1.0  0.86404  0.72897  0.56771  1.0000
  H   H1040     1.0  0.92164  0.70093  0.52324  1.0000
  C   C617      1.0  0.82677  0.79169  0.72124  1.0000
  C   C618      1.0  0.80535  0.79737  0.72862  1.0000
  C   C619      1.0  0.79760  0.81852  0.72529  1.0000
  C   C620      1.0  0.81126  0.83436  0.71479  1.0000
  C   C621      1.0  0.83275  0.82873  0.70806  1.0000
  C   C622      1.0  0.84044  0.80755  0.71103  1.0000
  H   H1041     1.0  0.79460  0.78528  0.73661  1.0000
  H   H1042     1.0  0.78107  0.82254  0.73072  1.0000
  H   H1043     1.0  0.84352  0.84082  0.70012  1.0000
  H   H1044     1.0  0.85696  0.80352  0.70539  1.0000
  C   C623      1.0  0.97013  0.75701  0.68793  1.0000
  C   C624      1.0  0.96991  0.76210  0.72698  1.0000
  H   H1045     1.0  0.72044  0.95585  0.58007  1.0000
  H   H1046     1.0  0.95566  0.75200  0.67320  1.0000
  H   H1047     1.0  0.75088  0.93042  0.59151  1.0000
  H   H1048     1.0  0.74366  0.81999  0.64930  1.0000
  C   C625      1.0  0.67037  0.89048  0.89259  1.0000
  C   C626      1.0  0.67871  0.83490  0.91270  1.0000
  H   H1049     1.0  0.79300  0.85814  0.56506  1.0000
  H   H1050     1.0  0.96823  0.70303  0.71189  1.0000
  C   C627      1.0  0.88304  0.65238  0.89439  1.0000
  C   C628      1.0  0.88546  0.67405  0.88728  1.0000
  C   C629      1.0  0.88725  0.68115  0.84980  1.0000
  C   C630      1.0  0.88597  0.66676  0.81857  1.0000
  C   C631      1.0  0.88348  0.64510  0.82567  1.0000
  C   C632      1.0  0.88228  0.63792  0.86320  1.0000
  H   H1051     1.0  0.88613  0.68545  0.91104  1.0000
  H   H1052     1.0  0.88928  0.69783  0.84510  1.0000
  H   H1053     1.0  0.88245  0.63375  0.80187  1.0000
  H   H1054     1.0  0.88032  0.62123  0.86793  1.0000
  H   H1055     1.0  0.80380  0.80246  0.65104  1.0000
  H   H1056     1.0  0.70180  0.90120  0.88030  1.0000
  H   H1057     1.0  0.84816  0.72921  0.50194  1.0000
  C   C633      1.0  0.77365  0.82766  0.62493  1.0000
  C   C634      1.0  0.68763  0.88553  0.83069  1.0000
  H   H1058     1.0  0.93160  0.58479  0.88433  1.0000
  H   H1059     1.0  0.94907  0.73475  0.52198  1.0000
  H   H1060     1.0  0.98026  0.75201  0.50562  1.0000
  H   H1061     1.0  0.67640  0.79937  0.95978  1.0000
  N   N44       1.0  0.79231  0.81936  0.60200  1.0000
  C   C635      1.0  0.80916  0.83604  0.60483  1.0000
  C   C636      1.0  0.80157  0.79965  0.61987  1.0000
  C   C637      1.0  0.74200  0.92898  0.56380  1.0000
  C   C638      1.0  0.78579  0.81574  0.56059  1.0000
  H   H1062     1.0  0.96622  0.61055  0.84784  1.0000
  C   C639      1.0  0.82333  0.79157  0.60486  1.0000
  H   H1063     1.0  0.92908  0.63963  0.82294  1.0000
  H   H1064     1.0  0.82300  0.83131  0.58697  1.0000
  H   H1065     1.0  0.79058  0.78619  0.61697  1.0000
  H   H1066     1.0  0.81571  0.83775  0.63451  1.0000
  C   C640      1.0  0.93603  0.62367  0.82893  1.0000
  C   C641      1.0  0.75614  0.97850  0.71458  1.0000
  H   H1067     1.0  0.77316  0.82753  0.55214  1.0000
  H   H1068     1.0  0.79930  0.81849  0.54162  1.0000
  H   H1069     1.0  0.97233  0.69084  0.75722  1.0000
  H   H1070     1.0  0.70299  0.97247  0.76386  1.0000
  H   H1071     1.0  0.79240  0.86666  0.61494  1.0000
  H   H1072     1.0  0.95335  0.66654  0.95332  1.0000
  H   H1073     1.0  0.68772  0.84582  0.89540  1.0000
  C   C642      1.0  0.77759  0.93058  0.53721  1.0000
  N   N45       1.0  0.95410  0.63054  0.89495  1.0000
  C   C643      1.0  0.94246  0.65183  0.89824  1.0000
  H   H1074     1.0  0.74583  0.81078  0.60142  1.0000
  H   H1075     1.0  0.73678  0.96725  0.52458  1.0000
  C   C644      1.0  0.94136  0.61432  0.91444  1.0000
  H   H1076     1.0  0.68768  0.81952  0.91226  1.0000
  H   H1077     1.0  0.94409  0.61571  0.94583  1.0000
  C   C645      1.0  0.94521  0.59067  0.90224  1.0000
  H   H1078     1.0  0.95102  0.66410  0.88303  1.0000
  H   H1079     1.0  0.92644  0.65102  0.88421  1.0000
  C   C646      1.0  0.75500  0.81261  0.62866  1.0000
  H   H1080     1.0  0.92741  0.67481  0.93739  1.0000
  H   H1081     1.0  0.69278  0.84986  0.96236  1.0000
  H   H1082     1.0  0.78387  0.93631  0.56560  1.0000
  H   H1083     1.0  0.92849  0.77818  0.54284  1.0000
  C   C647      1.0  0.74402  0.97525  0.68101  1.0000
  H   H1084     1.0  0.93079  0.64930  0.95693  1.0000
  H   H1085     1.0  0.95646  0.77166  0.55284  1.0000
  C   C648      1.0  0.67663  0.84473  0.95333  1.0000
  H   H1086     1.0  0.82389  0.79155  0.57339  1.0000
  H   H1087     1.0  0.71142  0.93040  0.59139  1.0000
  H   H1088     1.0  0.69298  0.90616  0.50827  1.0000
  S   S192      1.0  0.90152  0.58375  0.96535  1.0000
  H   H1089     1.0  0.93955  0.61584  0.80089  1.0000
  N   N46       1.0  0.66688  0.83090  0.98192  1.0000
  H   H1090     1.0  0.92356  0.74469  0.50662  1.0000
  N   N47       1.0  0.82398  0.70228  0.80937  1.0000
  C   C649      1.0  0.82888  0.69858  0.85098  1.0000
  C   C650      1.0  0.83985  0.71795  0.79677  1.0000
  C   C651      1.0  0.82688  0.68127  0.78773  1.0000
  C   C652      1.0  0.80124  0.71055  0.80588  1.0000
  C   C653      1.0  0.81735  0.68008  0.86845  1.0000
  C   C654      1.0  0.83824  0.74026  0.81634  1.0000
  C   C655      1.0  0.82971  0.68185  0.74442  1.0000
  C   C656      1.0  0.79362  0.71924  0.76717  1.0000
  H   H1091     1.0  0.84624  0.69540  0.85589  1.0000
  H   H1092     1.0  0.82496  0.71298  0.86899  1.0000
  H   H1093     1.0  0.83877  0.72037  0.76575  1.0000
  H   H1094     1.0  0.85643  0.71159  0.80155  1.0000
  H   H1095     1.0  0.84130  0.67251  0.79879  1.0000
  H   H1096     1.0  0.81321  0.67084  0.79214  1.0000
  H   H1097     1.0  0.78999  0.69790  0.81213  1.0000
  H   H1098     1.0  0.79778  0.72315  0.82812  1.0000
  H   H1099     1.0  0.82280  0.66442  0.85622  1.0000
  H   H1100     1.0  0.82143  0.67991  0.89940  1.0000
  H   H1101     1.0  0.79978  0.68180  0.86557  1.0000
  H   H1102     1.0  0.82229  0.74789  0.81186  1.0000
  H   H1103     1.0  0.84250  0.74002  0.84710  1.0000
  H   H1104     1.0  0.84977  0.75073  0.80344  1.0000
  H   H1105     1.0  0.81707  0.69104  0.72952  1.0000
  H   H1106     1.0  0.82950  0.66536  0.73214  1.0000
  H   H1107     1.0  0.84549  0.68800  0.73791  1.0000
  H   H1108     1.0  0.78566  0.70673  0.74931  1.0000
  H   H1109     1.0  0.80623  0.72621  0.75066  1.0000
  H   H1110     1.0  0.78190  0.73253  0.77214  1.0000
  H   H1111     1.0  0.93581  0.75666  0.57206  1.0000
  C   C657      1.0  0.93852  0.66081  0.93903  1.0000
  H   H1112     1.0  0.92394  0.61766  0.90982  1.0000
  H   H1113     1.0  0.83644  0.80128  0.61742  1.0000
  H   H1114     1.0  0.77353  0.89804  0.55674  1.0000
  H   H1115     1.0  0.96028  0.58684  0.88776  1.0000
  C   C658      1.0  0.94042  0.74924  0.51197  1.0000
  C   C659      1.0  0.80203  0.85843  0.59259  1.0000
  C   C660      1.0  0.94050  0.76512  0.54649  1.0000
  H   H1116     1.0  0.75994  0.79703  0.63995  1.0000
  H   H1117     1.0  0.66974  0.94718  0.91360  1.0000
  H   H1118     1.0  0.97385  0.77881  0.49607  1.0000
  H   H1119     1.0  0.82652  0.77506  0.61400  1.0000
  H   H1120     1.0  0.81633  0.86815  0.58945  1.0000
  H   H1121     1.0  0.76641  0.84228  0.61269  1.0000
  H   H1122     1.0  0.66903  0.86908  0.78728  1.0000
  N   N48       1.0  0.75454  0.93742  0.53189  1.0000
  C   C661      1.0  0.70322  0.89230  0.51240  1.0000
  H   H1123     1.0  0.67096  0.89636  0.92185  1.0000
  Fe  Fe96      1.0  0.88527  0.61519  0.98010  1.0000
  H   H1124     1.0  0.97433  0.63848  0.94390  1.0000
  C   C662      1.0  0.77766  0.79354  0.54835  1.0000
  H   H1125     1.0  0.96645  0.63782  0.84023  1.0000
  H   H1126     1.0  0.98466  0.64571  0.90012  1.0000
  H   H1127     1.0  0.94558  0.58098  0.92802  1.0000
  H   H1128     1.0  0.86011  0.49489  0.95176  1.0000
  H   H1129     1.0  0.76462  0.78831  0.56594  1.0000
  H   H1130     1.0  0.66714  0.85985  0.95124  1.0000
  C   C663      1.0  0.98038  0.69574  0.73133  1.0000
  C   C664      1.0  0.97579  0.63309  0.91381  1.0000
  C   C665      1.0  0.95685  0.62545  0.85307  1.0000
  H   H1131     1.0  0.66293  0.83315  0.89810  1.0000
  H   H1132     1.0  0.76225  0.96500  0.72998  1.0000
  H   H1133     1.0  0.77132  0.79399  0.51856  1.0000
  H   H1134     1.0  0.77906  0.83246  0.65432  1.0000
  H   H1135     1.0  0.73981  0.91161  0.55957  1.0000
  H   H1136     1.0  0.70955  0.93820  0.54300  1.0000
  H   H1137     1.0  0.76018  0.96386  0.59438  1.0000
  H   H1138     1.0  0.92394  0.61417  0.84246  1.0000
  H   H1139     1.0  0.71059  0.79558  0.98461  1.0000
  H   H1140     1.0  0.66398  0.93209  0.85015  1.0000
  H   H1141     1.0  0.76291  0.96725  0.50854  1.0000
  C   C666      1.0  0.67868  0.80990  0.98565  1.0000
  C   C667      1.0  0.75324  0.96132  0.53173  1.0000
  H   H1142     1.0  0.72852  0.93444  0.49033  1.0000
  C   C668      1.0  0.74527  0.92861  0.49474  1.0000
  C   C669      1.0  0.65921  0.94572  0.93808  1.0000
  H   H1143     1.0  0.66549  0.93224  0.95489  1.0000
  H   H1144     1.0  0.66020  0.96007  0.95727  1.0000
  C   C670      1.0  0.78214  0.90638  0.53485  1.0000
  H   H1145     1.0  0.77827  0.97750  0.56595  1.0000
  H   H1146     1.0  0.78775  0.93809  0.51634  1.0000
  H   H1147     1.0  0.79944  0.90330  0.54035  1.0000
  H   H1148     1.0  0.93637  0.51787  0.97050  1.0000
  H   H1149     1.0  0.96407  0.49775  0.96127  1.0000
  C   C671      1.0  0.76136  0.97310  0.56848  1.0000
  H   H1150     1.0  0.77824  0.89933  0.50622  1.0000
  H   H1151     1.0  0.74425  0.91106  0.49517  1.0000
  C   C672      1.0  0.97078  0.49077  0.98750  1.0000
  H   H1152     1.0  0.98397  0.60096  0.93298  1.0000
