data_image0
_chemical_formula_structural       FeS2FeS2FeSFeS3HCSHCHFeS2FeS2Fe2S3H2FeS2FeS2FeSFeS3FeS2FeS2FeSHS2C6H4CHC3HCSH2C6H4C6H8C6H4C6H4C6H4C6H4CHNC8H8CH11NC5H13NCHC2H3CH2FeH3N2HC3HCH8C2H3CHSH6C3HCH2FeHCHCHCH3C6H2NH9CH2CH2CH4NC2HC2HCH2CH4SCH4NH2CH2C3H7CH4C2H3CHNHCHCHCH9CSCH2C2H12CH2CH6CH4C4H5C2H4SH2CHSHSHCHCSH12CHCH3CNC2HFeS2FeS2HFeS3FeS2FeS2HFeS3FeSHFeSFeH3CH2CHSCHFeS2FeS2FeSFeS3C5H4C7H4C6H4C6H4C6H2FeHC6H4C6H5CH4CSH3CFeCH6CHNH8CH5C2HCH3NC8H20NHC2NH4CHC3HC2HCH2C2H4C3H4C2H3CH2C2H6SHCH11CNCH3CHCHCHNC2H4CH4CH4NH6C3HCH7C3H2CHS2CHCHC2HS2CH5FeCH4C3H2CHCNCH3CH8CH6CH4CH5FeH2CH2C3H3C2SFeCSCSFeS2FeS2FeSFeS2CFeSFeS2FeSFeHS3CSFeSH4CH2CH2CHCHC2HCH2C6H4C6H3C2HCFeH2CHC6H4C6H4C6H3NC7H16NC5HC2H10CH2CH3CH5CH3CHCH5CH2SH4CHCHCSHFeCH2C2H5CHC2H4CH2CHNC3S2H2C2H2CHC2H6CHCHC2H2CH3FeCH2NCHFeSH4CH2SCH3S2HC2FeHC2HCNH3SH5C3H2C2FeH3CHCH9SCH2CH2CHSCH3NCNC2HCH3CHC2H3SFeCH2FeCHSH2CH3NHCH2CH2SCH4NH2CHCH5C2HSHC3H3S2H3CH5SHCH5CHCNFeH2NH2CFeSH5FeHFe2S2FeSHSHC7H4C5HFeCH2C7H3NCHCH2CH5C2SCHCH3Fe2C2HS2HNHCH4SH2NSH3CHCH2CH2C2H2FeC2H2CHSCHCHCSHSHC2H6CHCHSFeSFeHCH2C2HCH3CHCHSCNHCH4CH2C3HSH2SH2CHS2HC3H3C2HSH2SCH4CH3C2H4CH6CH2CH4CH4FeH4CHSHSHNSCHCHC3SCH4C3HSCH2CH2C2FeH3CH5CSHCH2CH6CH4C3FeS2FeS2FeSFeS3FeS2FeS2FeSFeS3FeSNFeHSFeSCS2FeS2H2CHCH2CH2CH2C2SCFeSCFeSHFeSFeHSH5C3H12CSHCH3C6H5C2H6SC7H4C6H4C6H4NHCSH2CHC2SCH2C6H5NC8H20C2H2NH6C2HNHCH3C2HC2HC2H2CH2CHNCH3C2H4FeHCH2NHCH6SH3FeCSCH2C2HC4H2CH8CNC8H11CHCHCH2CHNHC3H5C3H2C3H2CHCHC3H4SCH3C2H7CSHSCHCHCH8C2HC3H4CHCHCHSHNH6CH2C3H3C2HCH4CH8NSFeSFeS2HFeS2FeS2FeSFeS3C2HCHSH5FeS2FeHFeS3C6H2CHCH2C6H4C6H4NH2NC7H2CHC6H4CH9CH2CH2NCH2CH3C2H14NH4SC2SCHCH2CHNHCH6C2H3CH2CH3FeCHCHNC8H22CH2S2H4C2H3CFeHCH6FeC2H3C2HCH12C2H2C4H5CH2CHCH5C4H3C3HFeS2FeSHFeSFeS3H2SH3FeS2FeS2FeSFeS5HFeS2FeSFeSFeSFeHSC6H5C4H2C6H5C3H2C6H4C6H9CHSH2C6H4NC8H15CH4NC8H21CFeNCNHNC8H12CH8SH4SCHCH5CH2C2H6CH2CHCHSC2HCH5CH3CH2SH4C3H2C2H8CNCH2CH2CHCHCHC2HCSFeCHCH5C2FeH8C2FeSHFeHFeSHFeS2FeS2FeSFeS3FeSCS2FeSFeS2FeS3HC4H2C6H4C6H4CH2C3H4C6H4C4HSH8SHC3HCSC2H2CHCHCHNH7FeC3HCH4CH2SH3SH2CH4CHCFeH2SFeHNHC6HCH6C2H7NC8H19NH2CHC2H5CH2C2H2C3HCNCSH2CH6FeCHCH3SC2H5C3H2SHCH2CSHSCNH3C2H2CHSCH2CNFeS2FeS2FeSFeS3CFeSHFeS2FeSFeS4FeS2FeS2FeSFeS3FeS2FeSHFeSFeCSH2NHC2HC4H3C7H3C6H4C6H6CHC6H4C6H4C4H4CHCHC5NH2SH3CH3CNC8H20NC3HCH5CH2C4HNSH6C2SCHC3H2CH8C2H6CHSCH2CH10NH5C2HCHC3HCHCH2CH4CHCH7C4H3C2H7C2HCH6CHCH5CH5CHC3H5C2HCH2CHCH2CHC2HNH13C2H5CH6C2HNH7NHC3H2C4HNH6CH4CH2CH5C2H2CHCH2CHNH2CH6CFeHSFeHSCFeS3Fe2S2FeS2FeSFeS3HFeS2FeS2FeSFeS3FeHSFeHSNFeS3C7H6C4H3C7H4C6H4C6H3C7H4C6H4C6H4NCSC2HCHC2H4CH3SH2CH4CHNH2SH2CHCH5SNC8H23N2C8H18NC8H23CH2NCH3C3H3C3H2CHC2H2C3HCHCHCH7C2H3C2H4CH2C2H4FeH2CH2CH6CH2CH2CH2CH3SH7CH3SHCH5SH6CH3S2CH5CH4CHC2H4CHSCHC2H3NHFeHCSHFeH3C2H2C5HNFeHCHCSH7FeS2FeS2FeSFeS3FeS2FeS2FeSFeS3C2S2HCH2SNS2HC2FeHFeSCHCHSH8C2HCH3SHCH3CHC6H3NC6H4C4HCH4CHCHC2H2CHC6HFeH2C2H8C6H4FeHCH4SCH6CSCH2C2FeHSHCH2SNC8H20CH3CFeHFeSCH3SCH2C4H4CNC2HSH5CNCHC2HCH6CH3S2C2HCHCNSH3C2HCH3NC7H3CH10C2H8C2FeCH3CH2C2HCH2SHCFeHC2H3CH2NSHC3H2C2FeH3SHC3H2CH2C2HCSH3SH3CH2CH10C2SH2SFeHFeSHCFeSHFeSHCFeSHS2FeS2C2SC6H4C3HCH3C6H6Fe2H3SH2CHCH5SHCHCHCHCH5FeHCH7CSCH3CN2H2SC3H4CH2C2H4CHFeC2SH2C2FeC2H3CHCH2CNH2SCHCH3SHCH3CHCH9S2H4C2H2C2HCHC2H3C3HCH5CH3NC4HCHC2H3CH5SCH3C3H2CSHFeH2C2NSCSHSC2FeS2FeSCFeCFeS3HNSFeS2FeS2FeHFeS3FeS2FeS2FeSFeS3C2H2C2HC3H2C2H4FeH2SHSH3C6H4C6H4C6H8CH9C6H3FeCHCH6CHC3H2CH2NH2C2H2CSH2CHCH3SH3C2HSH2FeCHCHCHCH6C5H3NHCH4CH7CHCHCH3C2NH4CH2CH2C3H2SCHCH2C4H2CH2CSH6SHC3H4CFeC2FeHS2HCH2CH2CHCHSHNCH5CFeCH4CHCHCH4CHFeHCHSCHCH5C2H5CHC2NH6CHCH2CNH3NH3FeS2FeSHFeSCS2HFeS2FeSHFe2S3FeS2FeS2FeSFeS3C2HCSC4H4C6H4CHCHCH2C2H8SH2C6H4C6H5CHSH3C3H7CH3CHFeCH7CHCH3C2HCH7CHCHNCHC3HCH2NHNHCHSHCH2C2HCH3SCHNHNC8H23C2HCH4NC8H15C2H3CH3CHCH2NH3CHCH3CH7C2HC2HCHC2H2SHC2H2NSHFeS2FeSHFeCFeSHSFeS2FeS2FeSFeS3HSH2SCFeSHCH2FeS2FeS2FeSFeS3HSC6H5C2H6CH2FeH2CH3C6H4C6H5C3H2C6H4C6H5CSH2CHC2SC6H2NHCH5C2H9SHFeH2CH2CNC8H18CH4C3H7CH3CH7CH3CHCH2CH5NCH3CH6CHCH5C3H6NC2H3CHCHC2HC2HCH3CHC2FeNHCHCH6CSCNH2C2HCH5C2H2SCHSC2HCH6CH2CNHCHFeC4HCHCH9CSHSFeSFeHSH3SFeSFeS2FeCFeS4FeS2FeS2FeSFeS3HS2HFeSC2HC6H4C6H3C6H5FeH2C6H2CHC6H4C5H3NH2FeC3H5C2HCH2CH2C2H2SH3NHCH2SHCH4CH3NC7H24NC8H20CH2CNC8H21CH3CH3N2C8H11CHCH7CH5CHFeSHC2SC3H4CHCH9CSFeSH3CH2FeCH
_chemical_formula_sum              "Fe256 S512 H3072 C1792 N128"
_cell_length_a       81.9281
_cell_length_b       81.9755
_cell_length_c       81.6861
_cell_angle_alpha    75.289
_cell_angle_beta     75.0463
_cell_angle_gamma    75.281

_space_group_name_H-M_alt    "P 1"
_space_group_IT_number       1

loop_
  _space_group_symop_operation_xyz
  'x, y, z'

loop_
  _atom_site_type_symbol
  _atom_site_label
  _atom_site_symmetry_multiplicity
  _atom_site_fract_x
  _atom_site_fract_y
  _atom_site_fract_z
  _atom_site_occupancy
  Fe  Fe1       1.0  0.18448  0.13368  0.11243  1.0000
  S   S1        1.0  0.18644  0.16005  0.09640  1.0000
  S   S2        1.0  0.20781  0.11464  0.11942  1.0000
  Fe  Fe2       1.0  0.14610  0.14008  0.11645  1.0000
  S   S3        1.0  0.14433  0.16705  0.10125  1.0000
  S   S4        1.0  0.12445  0.12618  0.12776  1.0000
  Fe  Fe3       1.0  0.16750  0.15578  0.08301  1.0000
  S   S5        1.0  0.16665  0.16528  0.05472  1.0000
  Fe  Fe4       1.0  0.16323  0.16879  0.11602  1.0000
  S   S6        1.0  0.15929  0.19161  0.12808  1.0000
  S   S7        1.0  0.16778  0.12855  0.09722  1.0000
  S   S8        1.0  0.16267  0.14282  0.13304  1.0000
  H   H1        1.0  0.09355  0.03982  0.18059  1.0000
  C   C1        1.0  0.18108  0.05814  0.12594  1.0000
  S   S9        1.0  0.14815  0.11269  0.02087  1.0000
  H   H2        1.0  0.16694  0.10762  0.04726  1.0000
  C   C2        1.0  0.11559  0.19596  0.14605  1.0000
  H   H3        1.0  0.06469  0.04914  0.17194  1.0000
  Fe  Fe5       1.0  0.12871  0.05731  0.19224  1.0000
  S   S10       1.0  0.12102  0.04634  0.22046  1.0000
  S   S11       1.0  0.11055  0.06795  0.17387  1.0000
  Fe  Fe6       1.0  0.16649  0.04909  0.19326  1.0000
  S   S12       1.0  0.16204  0.03673  0.22152  1.0000
  S   S13       1.0  0.19353  0.05009  0.17846  1.0000
  Fe  Fe7       1.0  0.14327  0.02447  0.21522  1.0000
  Fe  Fe8       1.0  0.14042  0.05969  0.22399  1.0000
  S   S14       1.0  0.13374  0.07549  0.24478  1.0000
  S   S15       1.0  0.14983  0.03481  0.18671  1.0000
  S   S16       1.0  0.14596  0.07274  0.19610  1.0000
  H   H4        1.0  0.21111  0.13088  0.16410  1.0000
  H   H5        1.0  0.17427  0.12795  0.06081  1.0000
  Fe  Fe9       1.0  0.18134  0.17796  0.21557  1.0000
  S   S17       1.0  0.19235  0.16625  0.23946  1.0000
  S   S18       1.0  0.19854  0.17557  0.18955  1.0000
  Fe  Fe10      1.0  0.14449  0.18456  0.23583  1.0000
  S   S19       1.0  0.15254  0.17321  0.26136  1.0000
  S   S20       1.0  0.11705  0.19577  0.23204  1.0000
  Fe  Fe11      1.0  0.17426  0.18808  0.25104  1.0000
  S   S21       1.0  0.17928  0.20322  0.26921  1.0000
  Fe  Fe12      1.0  0.17012  0.15258  0.24765  1.0000
  S   S22       1.0  0.17653  0.12381  0.25751  1.0000
  S   S23       1.0  0.16478  0.20093  0.22619  1.0000
  S   S24       1.0  0.16042  0.16287  0.22313  1.0000
  Fe  Fe13      1.0  0.03526  0.12468  0.20943  1.0000
  S   S25       1.0  0.02260  0.13745  0.23188  1.0000
  S   S26       1.0  0.03649  0.09621  0.21399  1.0000
  Fe  Fe14      1.0  0.04316  0.15825  0.18589  1.0000
  S   S27       1.0  0.03078  0.17364  0.20665  1.0000
  S   S28       1.0  0.05519  0.17197  0.15977  1.0000
  Fe  Fe15      1.0  0.04481  0.15130  0.22372  1.0000
  S   S29       1.0  0.06196  0.14940  0.24234  1.0000
  H   H6        1.0  0.15218  0.09487  0.11323  1.0000
  S   S30       1.0  0.05829  0.13685  0.20253  1.0000
  S   S31       1.0  0.02160  0.14440  0.19040  1.0000
  C   C3        1.0  0.07756  0.16232  0.23822  1.0000
  C   C4        1.0  0.07326  0.18025  0.23332  1.0000
  C   C5        1.0  0.08546  0.19033  0.23157  1.0000
  C   C6        1.0  0.10213  0.18258  0.23447  1.0000
  C   C7        1.0  0.10654  0.16464  0.23910  1.0000
  C   C8        1.0  0.09426  0.15459  0.24112  1.0000
  H   H7        1.0  0.06037  0.18641  0.23134  1.0000
  H   H8        1.0  0.08191  0.20421  0.22807  1.0000
  H   H9        1.0  0.11932  0.15853  0.24142  1.0000
  H   H10       1.0  0.09779  0.14079  0.24498  1.0000
  C   C9        1.0  0.22671  0.20718  0.27492  1.0000
  H   H11       1.0  0.12149  0.18485  0.13959  1.0000
  C   C10       1.0  0.19200  0.21912  0.28806  1.0000
  C   C11       1.0  0.19632  0.20872  0.27559  1.0000
  C   C12       1.0  0.21385  0.20275  0.26909  1.0000
  H   H12       1.0  0.11048  0.20179  0.19649  1.0000
  C   C13       1.0  0.15753  0.08421  0.12315  1.0000
  S   S32       1.0  0.12946  0.10045  0.98830  1.0000
  H   H13       1.0  0.21750  0.19475  0.25952  1.0000
  H   H14       1.0  0.34172  0.19708  0.29414  1.0000
  C   C14       1.0  0.08916  0.07450  0.18427  1.0000
  C   C15       1.0  0.07869  0.08895  0.17619  1.0000
  C   C16       1.0  0.06231  0.09558  0.18522  1.0000
  C   C17       1.0  0.05597  0.08703  0.20188  1.0000
  C   C18       1.0  0.06575  0.07162  0.20932  1.0000
  C   C19       1.0  0.08253  0.06559  0.20067  1.0000
  H   H15       1.0  0.08348  0.09535  0.16319  1.0000
  H   H16       1.0  0.05466  0.10739  0.17932  1.0000
  H   H17       1.0  0.06078  0.06492  0.22218  1.0000
  H   H18       1.0  0.09041  0.05421  0.20680  1.0000
  C   C20       1.0  0.14721  0.08909  0.24516  1.0000
  C   C21       1.0  0.16237  0.08210  0.25146  1.0000
  C   C22       1.0  0.17138  0.09290  0.25494  1.0000
  C   C23       1.0  0.16538  0.11080  0.25203  1.0000
  C   C24       1.0  0.15055  0.11788  0.24514  1.0000
  C   C25       1.0  0.14141  0.10705  0.24188  1.0000
  H   H19       1.0  0.16673  0.06826  0.25443  1.0000
  H   H20       1.0  0.18282  0.08731  0.26028  1.0000
  H   H21       1.0  0.14572  0.13164  0.24299  1.0000
  H   H22       1.0  0.12960  0.11265  0.23723  1.0000
  H   H23       1.0  0.19293  0.08008  0.22026  1.0000
  H   H24       1.0  0.19873  0.10414  0.17069  1.0000
  H   H25       1.0  0.32820  0.18076  0.26092  1.0000
  H   H26       1.0  0.08131  0.16817  0.09226  1.0000
  C   C26       1.0  0.10555  0.13922  0.13682  1.0000
  C   C27       1.0  0.10208  0.15705  0.13074  1.0000
  C   C28       1.0  0.08638  0.16706  0.13756  1.0000
  C   C29       1.0  0.07436  0.15928  0.15075  1.0000
  C   C30       1.0  0.07792  0.14149  0.15689  1.0000
  C   C31       1.0  0.09352  0.13151  0.14991  1.0000
  H   H27       1.0  0.11125  0.16311  0.12056  1.0000
  H   H28       1.0  0.08358  0.18084  0.13276  1.0000
  H   H29       1.0  0.06856  0.13536  0.16679  1.0000
  H   H30       1.0  0.09642  0.11779  0.15474  1.0000
  C   C32       1.0  0.20339  0.09724  0.13632  1.0000
  C   C33       1.0  0.21700  0.08386  0.14053  1.0000
  C   C34       1.0  0.21379  0.06956  0.15361  1.0000
  C   C35       1.0  0.19694  0.06856  0.16260  1.0000
  C   C36       1.0  0.18328  0.08206  0.15857  1.0000
  C   C37       1.0  0.18652  0.09641  0.14545  1.0000
  H   H31       1.0  0.23007  0.08445  0.13352  1.0000
  H   H32       1.0  0.22440  0.05916  0.15667  1.0000
  H   H33       1.0  0.17023  0.08135  0.16532  1.0000
  H   H34       1.0  0.17594  0.10673  0.14232  1.0000
  C   C38       1.0  0.17026  0.18709  0.14511  1.0000
  C   C39       1.0  0.16413  0.19662  0.15826  1.0000
  C   C40       1.0  0.17239  0.19275  0.17228  1.0000
  C   C41       1.0  0.18742  0.18003  0.17264  1.0000
  C   C42       1.0  0.19389  0.17093  0.15916  1.0000
  C   C43       1.0  0.18507  0.17410  0.14566  1.0000
  H   H35       1.0  0.15287  0.20688  0.15773  1.0000
  H   H36       1.0  0.16747  0.19998  0.18253  1.0000
  H   H37       1.0  0.20572  0.16138  0.15918  1.0000
  H   H38       1.0  0.19003  0.16683  0.13545  1.0000
  C   C44       1.0  0.16289  0.15060  0.04431  1.0000
  C   C45       1.0  0.15469  0.15678  0.03018  1.0000
  C   C46       1.0  0.15061  0.14526  0.02241  1.0000
  C   C47       1.0  0.15485  0.12750  0.02869  1.0000
  C   C48       1.0  0.16352  0.12134  0.04247  1.0000
  C   C49       1.0  0.16752  0.13285  0.05027  1.0000
  H   H39       1.0  0.15123  0.17050  0.02539  1.0000
  H   H40       1.0  0.14395  0.15008  0.01176  1.0000
  H   H41       1.0  0.17636  0.07404  0.21404  1.0000
  H   H42       1.0  0.04968  0.03482  0.17636  1.0000
  C   C50       1.0  0.21783  0.11805  0.16998  1.0000
  H   H43       1.0  0.14195  0.08562  0.14907  1.0000
  N   N1        1.0  0.10662  0.14235  0.07443  1.0000
  C   C51       1.0  0.09717  0.13247  0.06800  1.0000
  C   C52       1.0  0.09860  0.14261  0.09322  1.0000
  C   C53       1.0  0.12541  0.13403  0.07295  1.0000
  C   C54       1.0  0.10535  0.16028  0.06349  1.0000
  C   C55       1.0  0.10523  0.12835  0.04982  1.0000
  C   C56       1.0  0.08066  0.15435  0.09685  1.0000
  C   C57       1.0  0.12935  0.11505  0.08227  1.0000
  C   C58       1.0  0.11388  0.17256  0.06857  1.0000
  H   H44       1.0  0.09574  0.12001  0.07710  1.0000
  H   H45       1.0  0.08375  0.13966  0.06756  1.0000
  H   H46       1.0  0.10717  0.14636  0.09954  1.0000
  H   H47       1.0  0.09720  0.12944  0.10066  1.0000
  H   H48       1.0  0.13190  0.13488  0.05917  1.0000
  H   H49       1.0  0.13219  0.14114  0.07817  1.0000
  H   H50       1.0  0.11177  0.15980  0.04979  1.0000
  H   H51       1.0  0.09176  0.16663  0.06271  1.0000
  C   C59       1.0  0.31035  0.22170  0.28409  1.0000
  H   H52       1.0  0.01257  0.09297  0.19390  1.0000
  H   H53       1.0  0.10625  0.14004  0.03954  1.0000
  H   H54       1.0  0.20040  0.21412  0.06914  1.0000
  H   H55       1.0  0.10272  0.99633  0.19738  1.0000
  H   H56       1.0  0.07564  0.15240  0.11107  1.0000
  H   H57       1.0  0.12422  0.10657  0.07710  1.0000
  H   H58       1.0  0.12446  0.11349  0.09644  1.0000
  H   H59       1.0  0.14357  0.11049  0.08013  1.0000
  H   H60       1.0  0.12754  0.17164  0.06156  1.0000
  H   H61       1.0  0.11355  0.17011  0.08258  1.0000
  H   H62       1.0  0.10677  0.18602  0.06522  1.0000
  N   N2        1.0  0.19199  0.11224  0.19519  1.0000
  C   C60       1.0  0.17943  0.10019  0.20155  1.0000
  C   C61       1.0  0.18179  0.13017  0.18999  1.0000
  C   C62       1.0  0.20043  0.11139  0.20994  1.0000
  C   C63       1.0  0.17218  0.13290  0.17527  1.0000
  C   C64       1.0  0.20589  0.12783  0.21078  1.0000
  H   H63       1.0  0.16852  0.10500  0.21167  1.0000
  H   H64       1.0  0.17354  0.09953  0.19096  1.0000
  H   H65       1.0  0.19013  0.13986  0.18573  1.0000
  H   H66       1.0  0.17205  0.13407  0.20139  1.0000
  H   H67       1.0  0.19156  0.10832  0.22264  1.0000
  H   H68       1.0  0.21196  0.10071  0.21025  1.0000
  H   H69       1.0  0.16160  0.12568  0.17908  1.0000
  H   H70       1.0  0.16614  0.14677  0.17206  1.0000
  H   H71       1.0  0.18107  0.12961  0.16328  1.0000
  H   H72       1.0  0.21351  0.12469  0.22102  1.0000
  H   H73       1.0  0.19443  0.13779  0.21455  1.0000
  H   H74       1.0  0.21387  0.13349  0.19856  1.0000
  H   H75       1.0  0.22623  0.11930  0.17804  1.0000
  N   N3        1.0  0.16525  0.21476  0.06621  1.0000
  C   C65       1.0  0.18199  0.20181  0.06326  1.0000
  H   H76       1.0  0.12172  0.02914  0.16316  1.0000
  C   C66       1.0  0.15819  0.21241  0.08550  1.0000
  C   C67       1.0  0.15299  0.21082  0.05746  1.0000
  H   H77       1.0  0.33204  0.20076  0.26231  1.0000
  H   H78       1.0  0.33163  0.21309  0.30721  1.0000
  H   H79       1.0  0.13374  0.23198  0.08571  1.0000
  C   C68       1.0  0.33257  0.19960  0.30621  1.0000
  H   H80       1.0  0.17949  0.18850  0.06679  1.0000
  H   H81       1.0  0.13302  0.20087  0.18970  1.0000
  Fe  Fe16      1.0  0.13921  0.12047  0.99542  1.0000
  H   H82       1.0  0.15051  0.19762  0.06336  1.0000
  H   H83       1.0  0.16089  0.19851  0.09168  1.0000
  H   H84       1.0  0.24016  0.20249  0.26968  1.0000
  N   N4        1.0  0.18562  0.15089  0.30047  1.0000
  N   N5        1.0  0.30539  0.20456  0.29290  1.0000
  H   H85       1.0  0.21387  0.13824  0.27400  1.0000
  C   C69       1.0  0.19966  0.15926  0.28795  1.0000
  C   C70       1.0  0.27857  0.19230  0.31112  1.0000
  C   C71       1.0  0.30212  0.23181  0.26850  1.0000
  H   H86       1.0  0.19001  0.12935  0.28757  1.0000
  C   C72       1.0  0.30888  0.19279  0.28036  1.0000
  H   H87       1.0  0.19101  0.19909  0.08745  1.0000
  H   H88       1.0  0.17646  0.14794  0.27906  1.0000
  H   H89       1.0  0.22479  0.15523  0.27101  1.0000
  H   H90       1.0  0.00032  0.12344  0.17995  1.0000
  H   H91       1.0  0.17020  0.20187  0.03435  1.0000
  H   H92       1.0  0.14007  0.21928  0.05959  1.0000
  H   H93       1.0  0.14133  0.06660  0.14284  1.0000
  H   H94       1.0  0.16302  0.12190  0.29579  1.0000
  C   C73       1.0  0.15881  0.21205  0.03773  1.0000
  C   C74       1.0  0.14192  0.08030  0.13784  1.0000
  H   H95       1.0  0.13633  0.18063  0.17059  1.0000
  H   H96       1.0  0.00270  0.11570  0.20988  1.0000
  H   H97       1.0  0.18298  0.18584  0.30603  1.0000
  C   C75       1.0  0.19352  0.08567  0.09872  1.0000
  H   H98       1.0  0.18880  0.09469  0.10772  1.0000
  S   S33       1.0  0.11707  0.14172  0.98870  1.0000
  H   H99       1.0  0.10085  0.16637  0.20375  1.0000
  H   H100      1.0  0.09685  0.12147  0.04647  1.0000
  H   H101      1.0  0.14830  0.20984  0.03277  1.0000
  H   H102      1.0  0.12581  0.20130  0.14819  1.0000
  H   H103      1.0  0.09340  0.09625  0.27645  1.0000
  H   H104      1.0  0.22640  0.11224  0.15907  1.0000
  C   C76       1.0  0.09511  0.02793  0.17574  1.0000
  C   C77       1.0  0.11620  0.16073  0.17021  1.0000
  C   C78       1.0  0.20520  0.10621  0.18015  1.0000
  H   H105      1.0  0.18578  0.06673  0.09005  1.0000
  C   C79       1.0  0.18698  0.08131  0.20915  1.0000
  H   H106      1.0  0.21328  0.09345  0.18445  1.0000
  H   H107      1.0  0.09205  0.03255  0.16261  1.0000
  Fe  Fe17      1.0  0.01002  0.15818  0.21243  1.0000
  H   H108      1.0  0.19643  0.07482  0.19920  1.0000
  C   C80       1.0  0.22238  0.21759  0.28739  1.0000
  H   H109      1.0  0.07196  0.18112  0.18299  1.0000
  C   C81       1.0  0.05643  0.04130  0.18222  1.0000
  H   H110      1.0  0.04630  0.05044  0.18925  1.0000
  C   C82       1.0  0.31454  0.19601  0.30779  1.0000
  H   H111      1.0  0.06973  0.03632  0.20266  1.0000
  H   H112      1.0  0.08298  0.15877  0.18519  1.0000
  H   H113      1.0  0.10871  0.20611  0.13689  1.0000
  C   C83       1.0  0.12152  0.19971  0.18558  1.0000
  C   C84       1.0  0.32754  0.18894  0.27012  1.0000
  C   C85       1.0  0.07977  0.17040  0.19081  1.0000
  C   C86       1.0  0.09581  0.17562  0.19277  1.0000
  C   C87       1.0  0.06665  0.02832  0.19518  1.0000
  C   C88       1.0  0.14376  0.98881  0.19460  1.0000
  H   H114      1.0  0.09227  0.18735  0.15916  1.0000
  H   H115      1.0  0.13755  0.05960  0.09846  1.0000
  N   N6        1.0  0.10985  0.17734  0.17677  1.0000
  H   H116      1.0  0.22357  0.14022  0.29104  1.0000
  H   H117      1.0  0.09620  0.20325  0.16794  1.0000
  H   H118      1.0  0.13573  0.21768  0.10587  1.0000
  H   H119      1.0  0.12797  0.16143  0.15977  1.0000
  H   H120      1.0  0.27894  0.18315  0.30304  1.0000
  H   H121      1.0  0.10659  0.15844  0.16406  1.0000
  H   H122      1.0  0.08162  0.99518  0.20917  1.0000
  H   H123      1.0  0.12629  0.13327  0.17713  1.0000
  H   H124      1.0  0.13074  0.14534  0.19032  1.0000
  C   C89       1.0  0.09019  0.00447  0.20215  1.0000
  H   H125      1.0  0.13636  0.07944  0.10441  1.0000
  H   H126      1.0  0.10933  0.14113  0.19358  1.0000
  C   C90       1.0  0.10260  0.19123  0.16297  1.0000
  H   H127      1.0  0.11807  0.00767  0.16900  1.0000
  H   H128      1.0  0.07137  0.16753  0.20376  1.0000
  C   C91       1.0  0.12085  0.14433  0.18378  1.0000
  H   H129      1.0  0.09088  0.18804  0.19717  1.0000
  H   H130      1.0  0.12872  0.17234  0.19272  1.0000
  H   H131      1.0  0.12962  0.08706  0.13368  1.0000
  H   H132      1.0  0.11806  0.11964  0.04931  1.0000
  N   N7        1.0  0.08282  0.01679  0.18743  1.0000
  C   C92       1.0  0.12475  0.18173  0.18125  1.0000
  C   C93       1.0  0.21627  0.14722  0.28080  1.0000
  H   H133      1.0  0.11962  0.21025  0.17426  1.0000
  C   C94       1.0  0.28623  0.20806  0.30029  1.0000
  C   C95       1.0  0.19567  0.20188  0.07320  1.0000
  H   H134      1.0  0.18846  0.20367  0.04935  1.0000
  C   C96       1.0  0.14542  0.06850  0.09924  1.0000
  H   H135      1.0  0.15214  0.07307  0.08581  1.0000
  H   H136      1.0  0.16543  0.09000  0.12836  1.0000
  C   C97       1.0  0.17970  0.14014  0.29150  1.0000
  H   H137      1.0  0.15144  0.99860  0.18958  1.0000
  H   H138      1.0  0.06691  0.00014  0.18562  1.0000
  H   H139      1.0  0.16474  0.12656  0.31548  1.0000
  H   H140      1.0  0.27870  0.21371  0.28993  1.0000
  S   S34       1.0  0.13845  0.99735  0.22640  1.0000
  C   C98       1.0  0.15822  0.05868  0.11107  1.0000
  H   H141      1.0  0.17093  0.08677  0.08968  1.0000
  H   H142      1.0  0.19047  0.04860  0.11875  1.0000
  H   H143      1.0  0.19466  0.16772  0.27655  1.0000
  H   H144      1.0  0.19824  0.09321  0.08572  1.0000
  N   N8        1.0  0.16866  0.06948  0.11490  1.0000
  H   H145      1.0  0.31578  0.18178  0.31056  1.0000
  H   H146      1.0  0.10008  0.02354  0.20986  1.0000
  C   C99       1.0  0.17928  0.07690  0.09777  1.0000
  H   H147      1.0  0.20484  0.07604  0.10258  1.0000
  H   H148      1.0  0.15058  0.05202  0.12293  1.0000
  C   C100      1.0  0.08606  0.10740  0.26857  1.0000
  C   C101      1.0  0.99890  0.09627  0.19235  1.0000
  C   C102      1.0  0.17335  0.04798  0.14363  1.0000
  H   H149      1.0  0.18411  0.03955  0.14963  1.0000
  H   H150      1.0  0.33649  0.18153  0.27875  1.0000
  H   H151      1.0  0.00545  0.08143  0.22366  1.0000
  H   H152      1.0  0.16695  0.04805  0.10492  1.0000
  H   H153      1.0  0.07221  0.10943  0.27468  1.0000
  H   H154      1.0  0.06291  0.06492  0.25707  1.0000
  H   H155      1.0  0.08446  0.05481  0.24729  1.0000
  C   C103      1.0  0.07660  0.06084  0.25827  1.0000
  H   H156      1.0  0.09769  0.07068  0.26090  1.0000
  H   H157      1.0  0.08806  0.07689  0.22614  1.0000
  H   H158      1.0  0.07717  0.05058  0.27010  1.0000
  H   H159      1.0  0.10633  0.08077  0.23070  1.0000
  C   C104      1.0  0.09291  0.08680  0.22939  1.0000
  C   C105      1.0  0.08386  0.07577  0.26012  1.0000
  H   H160      1.0  0.16617  0.05666  0.15267  1.0000
  H   H161      1.0  0.07742  0.07848  0.27311  1.0000
  H   H162      1.0  0.05947  0.09042  0.23780  1.0000
  C   C106      1.0  0.09388  0.10135  0.21316  1.0000
  H   H163      1.0  0.09775  0.11265  0.21502  1.0000
  N   N9        1.0  0.08221  0.09177  0.24609  1.0000
  H   H164      1.0  0.10391  0.10266  0.24548  1.0000
  C   C107      1.0  0.05011  0.10293  0.25975  1.0000
  H   H165      1.0  0.09066  0.11890  0.26893  1.0000
  C   C108      1.0  0.08964  0.10531  0.24964  1.0000
  H   H166      1.0  0.08150  0.10528  0.20878  1.0000
  C   C109      1.0  0.06393  0.09886  0.24372  1.0000
  H   H167      1.0  0.10371  0.09636  0.20242  1.0000
  H   H168      1.0  0.18890  0.06586  0.12896  1.0000
  H   H169      1.0  0.13125  0.20992  0.08936  1.0000
  H   H170      1.0  0.16532  0.03933  0.14279  1.0000
  H   H171      1.0  0.05217  0.09385  0.27192  1.0000
  H   H172      1.0  0.03743  0.10178  0.25811  1.0000
  H   H173      1.0  0.08519  0.11814  0.24182  1.0000
  H   H174      1.0  0.04906  0.11630  0.26120  1.0000
  H   H175      1.0  0.06321  0.11117  0.23404  1.0000
  C   C110      1.0  0.20486  0.22347  0.29396  1.0000
  S   S35       1.0  0.23937  0.22289  0.29406  1.0000
  C   C111      1.0  0.09314  0.01282  0.21581  1.0000
  H   H176      1.0  0.11937  0.01845  0.18518  1.0000
  H   H177      1.0  0.20703  0.19149  0.07024  1.0000
  C   C112      1.0  0.99748  0.11199  0.17722  1.0000
  C   C113      1.0  0.11457  0.02008  0.17325  1.0000
  H   H178      1.0  0.30707  0.23029  0.29356  1.0000
  H   H179      1.0  0.17756  0.23517  0.06617  1.0000
  H   H180      1.0  0.05764  0.02050  0.20459  1.0000
  H   H181      1.0  0.28296  0.21770  0.30869  1.0000
  H   H182      1.0  0.16141  0.22493  0.03083  1.0000
  H   H183      1.0  0.08081  0.01744  0.22440  1.0000
  H   H184      1.0  0.16480  0.21883  0.09165  1.0000
  H   H185      1.0  0.30564  0.22460  0.25789  1.0000
  H   H186      1.0  0.17854  0.22374  0.29334  1.0000
  H   H187      1.0  0.16580  0.17292  0.29309  1.0000
  H   H188      1.0  0.99699  0.08543  0.18767  1.0000
  H   H189      1.0  0.07123  0.15126  0.09111  1.0000
  C   C114      1.0  0.16920  0.23248  0.05880  1.0000
  H   H190      1.0  0.10105  0.00303  0.22431  1.0000
  H   H191      1.0  0.30031  0.19807  0.27085  1.0000
  C   C115      1.0  0.13859  0.21851  0.09165  1.0000
  H   H192      1.0  0.20116  0.23122  0.30373  1.0000
  H   H193      1.0  0.32448  0.22031  0.27917  1.0000
  H   H194      1.0  0.30571  0.18005  0.28719  1.0000
  H   H195      1.0  0.20398  0.16777  0.29391  1.0000
  H   H196      1.0  0.07213  0.01537  0.16620  1.0000
  H   H197      1.0  0.00722  0.10880  0.16562  1.0000
  C   C116      1.0  0.07746  0.00670  0.17730  1.0000
  H   H198      1.0  0.04508  0.13310  0.98842  1.0000
  H   H199      1.0  0.33825  0.19122  0.31720  1.0000
  H   H200      1.0  0.99926  0.06179  0.20808  1.0000
  H   H201      1.0  0.20858  0.11922  0.30402  1.0000
  C   C117      1.0  0.09158  0.99279  0.16945  1.0000
  C   C118      1.0  0.17051  0.16520  0.30494  1.0000
  C   C119      1.0  0.20143  0.12194  0.31679  1.0000
  C   C120      1.0  0.16391  0.13228  0.30183  1.0000
  H   H202      1.0  0.15936  0.15992  0.31365  1.0000
  H   H203      1.0  0.26473  0.19683  0.31668  1.0000
  H   H204      1.0  0.17721  0.23337  0.04544  1.0000
  H   H205      1.0  0.10100  0.99852  0.15855  1.0000
  H   H206      1.0  0.15175  0.14203  0.30126  1.0000
  C   C121      1.0  0.19148  0.14073  0.31686  1.0000
  C   C122      1.0  0.17367  0.17792  0.31432  1.0000
  H   H207      1.0  0.16137  0.18714  0.31758  1.0000
  H   H208      1.0  0.99323  0.10662  0.24063  1.0000
  H   H209      1.0  0.99323  0.05513  0.23091  1.0000
  H   H210      1.0  0.28792  0.23574  0.27217  1.0000
  S   S36       1.0  0.08105  0.11996  0.98554  1.0000
  H   H211      1.0  0.17788  0.17138  0.32663  1.0000
  H   H212      1.0  0.32203  0.21947  0.39843  1.0000
  C   C123      1.0  0.32498  0.23374  0.41558  1.0000
  H   H213      1.0  0.30683  0.20004  0.32003  1.0000
  S   S37       1.0  0.29997  0.23287  0.32921  1.0000
  H   H214      1.0  0.33485  0.23659  0.37184  1.0000
  S   S38       1.0  0.25259  0.22855  0.33613  1.0000
  H   H215      1.0  0.29506  0.22362  0.36693  1.0000
  C   C124      1.0  0.29100  0.21852  0.64733  1.0000
  H   H216      1.0  0.30087  0.22314  0.63621  1.0000
  C   C125      1.0  0.24745  0.23589  0.38767  1.0000
  S   S39       1.0  0.26682  0.23611  0.42848  1.0000
  H   H217      1.0  0.30228  0.22776  0.41174  1.0000
  H   H218      1.0  0.28486  0.18550  0.32216  1.0000
  H   H219      1.0  0.28672  0.20870  0.64307  1.0000
  H   H220      1.0  0.26227  0.22977  0.63357  1.0000
  H   H221      1.0  0.30211  0.21371  0.38660  1.0000
  H   H222      1.0  0.32555  0.22243  0.42648  1.0000
  H   H223      1.0  0.48571  0.22217  0.37232  1.0000
  H   H224      1.0  0.25067  0.22844  0.37766  1.0000
  H   H225      1.0  0.21111  0.11878  0.32506  1.0000
  H   H226      1.0  0.33851  0.23440  0.40898  1.0000
  H   H227      1.0  0.26765  0.22029  0.40068  1.0000
  H   H228      1.0  0.19964  0.14761  0.32060  1.0000
  C   C126      1.0  0.31454  0.23119  0.40346  1.0000
  H   H229      1.0  0.33218  0.22782  0.33926  1.0000
  C   C127      1.0  0.25705  0.23130  0.40070  1.0000
  H   H230      1.0  0.19262  0.11278  0.32293  1.0000
  H   H231      1.0  0.18006  0.13982  0.32775  1.0000
  H   H232      1.0  0.31718  0.22174  0.36751  1.0000
  C   C128      1.0  0.30382  0.22420  0.37503  1.0000
  N   N10       1.0  0.27591  0.23280  0.65169  1.0000
  C   C129      1.0  0.21982  0.18393  0.83919  1.0000
  C   C130      1.0  0.07953  0.04636  0.92999  1.0000
  H   H233      1.0  0.08660  0.03704  0.80142  1.0000
  Fe  Fe18      1.0  0.02655  0.10718  0.90167  1.0000
  S   S40       1.0  0.01726  0.12160  0.87750  1.0000
  S   S41       1.0  0.03088  0.07838  0.90800  1.0000
  Fe  Fe19      1.0  0.02850  0.13938  0.91216  1.0000
  S   S42       1.0  0.01871  0.15657  0.88909  1.0000
  S   S43       1.0  0.03462  0.15305  0.92987  1.0000
  H   H234      1.0  0.00137  0.14587  0.84308  1.0000
  Fe  Fe20      1.0  0.03702  0.13727  0.87442  1.0000
  S   S44       1.0  0.05437  0.14534  0.84889  1.0000
  S   S45       1.0  0.00782  0.12381  0.91903  1.0000
  S   S46       1.0  0.04812  0.12118  0.89710  1.0000
  Fe  Fe21      1.0  0.13097  0.03332  0.90816  1.0000
  S   S47       1.0  0.15735  0.01922  0.89771  1.0000
  S   S48       1.0  0.12264  0.03632  0.93584  1.0000
  Fe  Fe22      1.0  0.12042  0.04249  0.87357  1.0000
  S   S49       1.0  0.14596  0.02946  0.86022  1.0000
  S   S50       1.0  0.10078  0.05620  0.85742  1.0000
  H   H235      1.0  0.10869  0.08431  0.93320  1.0000
  Fe  Fe23      1.0  0.15689  0.04180  0.87536  1.0000
  S   S51       1.0  0.18016  0.05365  0.86317  1.0000
  S   S52       1.0  0.11711  0.02056  0.89617  1.0000
  S   S53       1.0  0.13145  0.05675  0.88678  1.0000
  Fe  Fe24      1.0  0.10893  0.12226  0.97911  1.0000
  S   S54       1.0  0.12410  0.12819  0.95212  1.0000
  H   H236      1.0  0.01314  0.19432  0.79236  1.0000
  Fe  Fe25      1.0  0.13402  0.14597  0.96219  1.0000
  S   S55       1.0  0.13414  0.17265  0.94621  1.0000
  Fe  Fe26      1.0  0.14538  0.10798  0.96193  1.0000
  H   H237      1.0  0.07129  0.03043  0.85994  1.0000
  H   H238      1.0  0.99256  0.19980  0.82279  1.0000
  H   H239      1.0  0.09530  0.01563  0.79667  1.0000
  C   C131      1.0  0.05734  0.08168  0.93481  1.0000
  H   H240      1.0  0.14293  0.01773  0.81930  1.0000
  H   H241      1.0  0.05014  0.10752  0.94132  1.0000
  C   C132      1.0  0.09015  0.18935  0.93696  1.0000
  H   H242      1.0  0.10344  0.19188  0.93404  1.0000
  S   S56       1.0  0.16162  0.08972  0.94487  1.0000
  C   C133      1.0  0.07036  0.17724  0.92682  1.0000
  H   H243      1.0  0.26862  0.22001  0.67852  1.0000
  Fe  Fe27      1.0  0.13381  0.17761  0.84765  1.0000
  S   S57       1.0  0.15033  0.19621  0.84590  1.0000
  S   S58       1.0  0.10669  0.18216  0.86323  1.0000
  Fe  Fe28      1.0  0.16335  0.15352  0.82975  1.0000
  S   S59       1.0  0.18257  0.16999  0.82647  1.0000
  S   S60       1.0  0.17201  0.12952  0.81867  1.0000
  Fe  Fe29      1.0  0.16976  0.17277  0.85368  1.0000
  S   S61       1.0  0.18492  0.17099  0.87357  1.0000
  Fe  Fe30      1.0  0.16164  0.19212  0.81875  1.0000
  S   S62       1.0  0.16528  0.21588  0.79786  1.0000
  S   S63       1.0  0.15246  0.15425  0.85771  1.0000
  S   S64       1.0  0.14320  0.17547  0.81979  1.0000
  C   C134      1.0  0.21891  0.22451  0.76731  1.0000
  C   C135      1.0  0.21682  0.20821  0.77729  1.0000
  C   C136      1.0  0.20037  0.20523  0.78627  1.0000
  C   C137      1.0  0.18590  0.21861  0.78545  1.0000
  C   C138      1.0  0.11926  0.01256  0.83808  1.0000
  H   H244      1.0  0.11687  0.00295  0.85022  1.0000
  H   H245      1.0  0.22799  0.19787  0.77817  1.0000
  H   H246      1.0  0.19891  0.19263  0.79392  1.0000
  H   H247      1.0  0.11364  0.16496  0.92565  1.0000
  C   C139      1.0  0.10075  0.16347  0.92485  1.0000
  C   C140      1.0  0.14851  0.17238  0.92615  1.0000
  C   C141      1.0  0.16530  0.16259  0.92509  1.0000
  C   C142      1.0  0.17672  0.16282  0.90895  1.0000
  C   C143      1.0  0.17103  0.17195  0.89379  1.0000
  C   C144      1.0  0.15417  0.18155  0.89486  1.0000
  C   C145      1.0  0.14313  0.18218  0.91105  1.0000
  H   H248      1.0  0.16961  0.15520  0.93675  1.0000
  H   H249      1.0  0.18985  0.15567  0.90818  1.0000
  H   H250      1.0  0.14974  0.18882  0.88325  1.0000
  H   H251      1.0  0.13036  0.19013  0.91185  1.0000
  C   C146      1.0  0.13409  0.05021  0.93915  1.0000
  C   C147      1.0  0.14857  0.05437  0.92682  1.0000
  C   C148      1.0  0.15730  0.06602  0.92907  1.0000
  C   C149      1.0  0.15111  0.07424  0.94317  1.0000
  C   C150      1.0  0.13664  0.07007  0.95555  1.0000
  C   C151      1.0  0.12843  0.05770  0.95379  1.0000
  H   H252      1.0  0.15326  0.04841  0.91566  1.0000
  H   H253      1.0  0.16882  0.06869  0.91983  1.0000
  H   H254      1.0  0.13197  0.07611  0.96665  1.0000
  H   H255      1.0  0.11757  0.05416  0.96366  1.0000
  C   C152      1.0  0.17687  0.07485  0.85117  1.0000
  C   C153      1.0  0.16578  0.08848  0.85846  1.0000
  C   C154      1.0  0.16479  0.10555  0.84897  1.0000
  C   C155      1.0  0.17427  0.10884  0.83195  1.0000
  C   C156      1.0  0.18505  0.09515  0.82471  1.0000
  C   C157      1.0  0.18664  0.07830  0.83440  1.0000
  H   H256      1.0  0.15834  0.08586  0.87151  1.0000
  H   H257      1.0  0.15641  0.11609  0.85457  1.0000
  H   H258      1.0  0.19236  0.09759  0.81156  1.0000
  H   H259      1.0  0.19537  0.06787  0.82880  1.0000
  C   C158      1.0  0.04749  0.14162  0.94495  1.0000
  C   C159      1.0  0.06525  0.13560  0.93960  1.0000
  C   C160      1.0  0.07586  0.12916  0.95189  1.0000
  C   C161      1.0  0.06859  0.12832  0.96955  1.0000
  C   C162      1.0  0.05079  0.13380  0.97481  1.0000
  C   C163      1.0  0.04035  0.14074  0.96256  1.0000
  H   H260      1.0  0.07080  0.13643  0.92598  1.0000
  H   H261      1.0  0.08955  0.12458  0.94777  1.0000
  Fe  Fe31      1.0  0.99982  0.13933  0.89443  1.0000
  H   H262      1.0  0.02671  0.14564  0.96675  1.0000
  C   C164      1.0  0.04922  0.07124  0.89304  1.0000
  C   C165      1.0  0.05485  0.08271  0.87796  1.0000
  C   C166      1.0  0.07024  0.07762  0.86660  1.0000
  C   C167      1.0  0.08055  0.06139  0.87072  1.0000
  C   C168      1.0  0.07483  0.04973  0.88563  1.0000
  C   C169      1.0  0.05890  0.05452  0.89656  1.0000
  H   H263      1.0  0.04738  0.09554  0.87498  1.0000
  H   H264      1.0  0.07431  0.08646  0.85486  1.0000
  H   H265      1.0  0.08257  0.03700  0.88868  1.0000
  H   H266      1.0  0.05435  0.04548  0.90799  1.0000
  C   C170      1.0  0.06820  0.15682  0.85225  1.0000
  C   C171      1.0  0.08085  0.16305  0.83856  1.0000
  C   C172      1.0  0.09275  0.17102  0.84172  1.0000
  C   C173      1.0  0.09176  0.17295  0.85851  1.0000
  C   C174      1.0  0.07860  0.16743  0.87194  1.0000
  C   C175      1.0  0.06697  0.15926  0.86887  1.0000
  H   H267      1.0  0.08165  0.16148  0.82561  1.0000
  H   H268      1.0  0.10262  0.17571  0.83121  1.0000
  H   H269      1.0  0.07750  0.16921  0.88485  1.0000
  H   H270      1.0  0.05710  0.15480  0.87946  1.0000
  H   H271      1.0  0.07329  0.17709  0.96024  1.0000
  C   C176      1.0  0.05535  0.19295  0.92632  1.0000
  H   H272      1.0  0.18792  0.20512  0.84343  1.0000
  H   H273      1.0  0.20728  0.18030  0.84091  1.0000
  H   H274      1.0  0.04323  0.18866  0.93379  1.0000
  H   H275      1.0  0.06730  0.16812  0.93927  1.0000
  C   C177      1.0  0.11129  0.02430  0.80955  1.0000
  S   S65       1.0  0.23995  0.22811  0.75770  1.0000
  H   H276      1.0  0.01683  0.13568  0.81723  1.0000
  H   H277      1.0  0.07181  0.09564  0.95978  1.0000
  H   H278      1.0  0.12499  0.12363  0.85860  1.0000
  C   C178      1.0  0.11228  0.12338  0.85620  1.0000
  Fe  Fe32      1.0  0.14363  0.00832  0.88376  1.0000
  C   C179      1.0  0.08424  0.06429  0.92254  1.0000
  H   H279      1.0  0.05466  0.08659  0.92158  1.0000
  H   H280      1.0  0.08160  0.20223  0.93671  1.0000
  H   H281      1.0  0.07805  0.10406  0.93170  1.0000
  H   H282      1.0  0.09195  0.15187  0.90767  1.0000
  H   H283      1.0  0.11206  0.14088  0.91338  1.0000
  H   H284      1.0  0.08380  0.04014  0.94233  1.0000
  C   C180      1.0  0.30057  0.20895  0.66213  1.0000
  H   H285      1.0  0.08727  0.18767  0.89634  1.0000
  N   N11       1.0  0.08828  0.18064  0.92353  1.0000
  H   H286      1.0  0.06936  0.17042  0.91709  1.0000
  H   H287      1.0  0.10686  0.10429  0.91804  1.0000
  H   H288      1.0  0.09224  0.01962  0.86343  1.0000
  H   H289      1.0  0.22993  0.17285  0.83541  1.0000
  H   H290      1.0  0.11123  0.16045  0.89770  1.0000
  H   H291      1.0  0.09633  0.15444  0.93693  1.0000
  H   H292      1.0  0.05386  0.19879  0.91280  1.0000
  H   H293      1.0  0.01731  0.15667  0.80446  1.0000
  C   C181      1.0  0.08042  0.08304  0.96256  1.0000
  H   H294      1.0  0.05169  0.07000  0.94019  1.0000
  H   H295      1.0  0.07204  0.06127  0.95927  1.0000
  H   H296      1.0  0.10726  0.18828  0.90050  1.0000
  H   H297      1.0  0.08072  0.06915  0.90961  1.0000
  H   H298      1.0  0.09605  0.16714  0.95808  1.0000
  C   C182      1.0  0.08828  0.21095  0.90325  1.0000
  C   C183      1.0  0.09306  0.19117  0.90554  1.0000
  H   H299      1.0  0.10468  0.03351  0.78422  1.0000
  C   C184      1.0  0.10065  0.11783  0.87396  1.0000
  H   H300      1.0  0.08698  0.11995  0.87299  1.0000
  H   H301      1.0  0.10512  0.10428  0.88015  1.0000
  H   H302      1.0  0.10093  0.12604  0.88279  1.0000
  N   N12       1.0  0.18891  0.10811  0.89146  1.0000
  C   C185      1.0  0.19737  0.09527  0.87985  1.0000
  C   C186      1.0  0.19285  0.12534  0.88152  1.0000
  C   C187      1.0  0.16969  0.10905  0.89513  1.0000
  C   C188      1.0  0.19584  0.10189  0.90789  1.0000
  C   C189      1.0  0.19435  0.07673  0.88725  1.0000
  C   C190      1.0  0.21214  0.12600  0.87499  1.0000
  C   C191      1.0  0.15783  0.12326  0.90448  1.0000
  C   C192      1.0  0.19422  0.11542  0.91871  1.0000
  H   H303      1.0  0.19318  0.09975  0.86721  1.0000
  H   H304      1.0  0.21162  0.09394  0.87664  1.0000
  H   H305      1.0  0.18727  0.13541  0.88929  1.0000
  H   H306      1.0  0.18667  0.12987  0.87005  1.0000
  H   H307      1.0  0.16537  0.11086  0.88283  1.0000
  H   H308      1.0  0.16633  0.09679  0.90321  1.0000
  H   H309      1.0  0.18968  0.09129  0.91654  1.0000
  H   H310      1.0  0.20986  0.09615  0.90481  1.0000
  H   H311      1.0  0.20199  0.06845  0.87791  1.0000
  H   H312      1.0  0.19871  0.07103  0.89962  1.0000
  H   H313      1.0  0.18071  0.07592  0.88891  1.0000
  H   H314      1.0  0.21349  0.13968  0.87075  1.0000
  H   H315      1.0  0.21971  0.11990  0.88520  1.0000
  H   H316      1.0  0.21778  0.11999  0.86351  1.0000
  H   H317      1.0  0.14423  0.12295  0.90502  1.0000
  H   H318      1.0  0.15961  0.13642  0.89768  1.0000
  H   H319      1.0  0.15901  0.12083  0.91812  1.0000
  H   H320      1.0  0.19182  0.10923  0.93266  1.0000
  H   H321      1.0  0.18361  0.12665  0.91719  1.0000
  H   H322      1.0  0.20656  0.11982  0.91610  1.0000
  N   N13       1.0  0.10552  0.01509  0.82786  1.0000
  H   H323      1.0  0.01332  0.20064  0.83849  1.0000
  C   C193      1.0  0.10077  0.99823  0.82875  1.0000
  C   C194      1.0  0.08373  0.09347  0.92466  1.0000
  N   N14       1.0  0.00076  0.17319  0.83456  1.0000
  H   H324      1.0  0.08817  0.18733  0.96442  1.0000
  H   H325      1.0  0.10965  0.14073  0.81397  1.0000
  H   H326      1.0  0.12631  0.08204  0.82803  1.0000
  H   H327      1.0  0.14551  0.08630  0.83194  1.0000
  C   C195      1.0  0.10396  0.15384  0.90994  1.0000
  H   H328      1.0  0.09626  0.21568  0.90945  1.0000
  C   C196      1.0  0.18794  0.23480  0.77514  1.0000
  C   C197      1.0  0.26316  0.22482  0.66662  1.0000
  C   C198      1.0  0.08662  0.17945  0.95590  1.0000
  H   H329      1.0  0.02988  0.14780  0.82140  1.0000
  C   C199      1.0  0.08269  0.02065  0.85557  1.0000
  C   C200      1.0  0.21155  0.22090  0.84476  1.0000
  H   H330      1.0  0.08839  0.10893  0.85047  1.0000
  C   C201      1.0  0.99894  0.18729  0.81876  1.0000
  H   H331      1.0  0.12366  0.01724  0.80301  1.0000
  H   H332      1.0  0.17693  0.23725  0.84204  1.0000
  C   C202      1.0  0.09854  0.02769  0.79751  1.0000
  C   C203      1.0  0.22172  0.20000  0.82474  1.0000
  H   H333      1.0  0.07446  0.21583  0.90815  1.0000
  H   H334      1.0  0.26029  0.21337  0.66374  1.0000
  H   H335      1.0  0.22149  0.18557  0.85167  1.0000
  H   H336      1.0  0.09120  0.21669  0.88920  1.0000
  C   C204      1.0  0.13291  0.08244  0.83809  1.0000
  C   C205      1.0  0.19154  0.21429  0.83110  1.0000
  C   C206      1.0  0.08079  0.07013  0.95147  1.0000
  H   H337      1.0  0.23549  0.20082  0.82175  1.0000
  H   H338      1.0  0.01745  0.16132  0.85275  1.0000
  H   H339      1.0  0.29289  0.20036  0.67219  1.0000
  H   H340      1.0  0.24026  0.21283  0.83983  1.0000
  C   C207      1.0  0.01625  0.17244  0.84169  1.0000
  C   C208      1.0  0.01640  0.18860  0.84800  1.0000
  H   H341      1.0  0.20636  0.21185  0.85654  1.0000
  H   H342      1.0  0.13593  0.06906  0.84551  1.0000
  H   H343      1.0  0.09190  0.03987  0.83412  1.0000
  C   C209      1.0  0.09736  0.11430  0.83879  1.0000
  H   H344      1.0  0.08850  0.00019  0.82435  1.0000
  H   H345      1.0  0.07826  0.00832  0.85850  1.0000
  C   C210      1.0  0.00169  0.15580  0.83088  1.0000
  C   C211      1.0  0.12207  0.13822  0.81810  1.0000
  H   H346      1.0  0.11403  0.03695  0.80957  1.0000
  H   H347      1.0  0.00741  0.18938  0.86066  1.0000
  H   H348      1.0  0.13980  0.11824  0.83081  1.0000
  H   H349      1.0  0.03273  0.09717  0.94444  1.0000
  H   H350      1.0  0.13069  0.11159  0.81708  1.0000
  H   H351      1.0  0.09402  0.06210  0.95005  1.0000
  S   S66       1.0  0.15693  0.12633  0.96954  1.0000
  H   H352      1.0  0.21974  0.19717  0.81284  1.0000
  C   C212      1.0  0.01748  0.14893  0.81771  1.0000
  H   H353      1.0  0.10646  0.13697  0.85148  1.0000
  H   H354      1.0  0.02951  0.18766  0.85013  1.0000
  H   H355      1.0  0.07862  0.02811  0.82971  1.0000
  H   H356      1.0  0.11873  0.02471  0.84217  1.0000
  H   H357      1.0  0.05651  0.20281  0.93275  1.0000
  H   H358      1.0  0.04632  0.08988  0.95973  1.0000
  H   H359      1.0  0.06562  0.04667  0.93174  1.0000
  H   H360      1.0  0.09852  0.06176  0.91988  1.0000
  H   H361      1.0  0.08505  0.11134  0.81947  1.0000
  H   H362      1.0  0.01972  0.20190  0.80755  1.0000
  H   H363      1.0  0.09698  0.09132  0.82978  1.0000
  C   C213      1.0  0.04634  0.09486  0.94578  1.0000
  N   N15       1.0  0.07655  0.07755  0.93381  1.0000
  C   C214      1.0  0.12739  0.11937  0.82720  1.0000
  H   H364      1.0  0.13015  0.09358  0.85965  1.0000
  H   H365      1.0  0.11115  0.08763  0.85877  1.0000
  H   H366      1.0  0.10761  0.10676  0.81319  1.0000
  C   C215      1.0  0.13822  0.00691  0.82915  1.0000
  H   H367      1.0  0.08643  0.03782  0.92072  1.0000
  C   C216      1.0  0.08958  0.02663  0.83600  1.0000
  H   H368      1.0  0.12167  0.14732  0.82623  1.0000
  C   C217      1.0  0.01575  0.19064  0.80564  1.0000
  H   H369      1.0  0.14638  0.00317  0.83900  1.0000
  N   N16       1.0  0.11467  0.11264  0.84289  1.0000
  C   C218      1.0  0.12176  0.09415  0.85066  1.0000
  C   C219      1.0  0.09697  0.10522  0.82458  1.0000
  H   H370      1.0  0.09071  0.12796  0.83565  1.0000
  H   H371      1.0  0.13207  0.14109  0.80625  1.0000
  H   H372      1.0  0.19023  0.20841  0.82077  1.0000
  H   H373      1.0  0.08008  0.09851  0.91179  1.0000
  C   C220      1.0  0.10350  0.09136  0.92158  1.0000
  H   H374      1.0  0.11026  0.08478  0.91065  1.0000
  H   H375      1.0  0.23739  0.22089  0.79669  1.0000
  H   H376      1.0  0.07588  0.07747  0.97641  1.0000
  H   H377      1.0  0.09362  0.08489  0.96167  1.0000
  C   C221      1.0  0.24564  0.23671  0.67206  1.0000
  H   H378      1.0  0.02849  0.16994  0.83223  1.0000
  H   H379      1.0  0.12211  0.99067  0.80706  1.0000
  H   H380      1.0  0.02678  0.17961  0.80557  1.0000
  H   H381      1.0  0.16458  0.22735  0.83387  1.0000
  N   N17       1.0  0.20984  0.21661  0.82847  1.0000
  H   H382      1.0  0.11362  0.99084  0.88679  1.0000
  H   H383      1.0  0.30403  0.21787  0.66825  1.0000
  H   H384      1.0  0.20625  0.23077  0.80295  1.0000
  H   H385      1.0  0.23853  0.23017  0.68450  1.0000
  H   H386      1.0  0.14047  0.99563  0.82325  1.0000
  H   H387      1.0  0.23060  0.21879  0.85983  1.0000
  C   C222      1.0  0.22966  0.22210  0.84599  1.0000
  C   C223      1.0  0.17734  0.23082  0.83151  1.0000
  C   C224      1.0  0.21287  0.23116  0.81311  1.0000
  H   H388      1.0  0.31277  0.20060  0.65685  1.0000
  C   C225      1.0  0.23169  0.23172  0.80361  1.0000
  H   H389      1.0  0.99233  0.08651  0.90362  1.0000
  H   H390      1.0  0.24007  0.23190  0.81215  1.0000
  H   H391      1.0  0.09763  0.99143  0.84240  1.0000
  H   H392      1.0  0.23197  0.23538  0.84050  1.0000
  H   H393      1.0  0.20319  0.23357  0.84661  1.0000
  H   H394      1.0  0.30632  0.33569  0.29610  1.0000
  H   H395      1.0  0.25013  0.26267  0.24919  1.0000
  C   C226      1.0  0.23852  0.25687  0.25334  1.0000
  C   C227      1.0  0.34309  0.32050  0.30226  1.0000
  C   C228      1.0  0.31623  0.25856  0.30753  1.0000
  H   H396      1.0  0.23982  0.29064  0.24843  1.0000
  H   H397      1.0  0.18151  0.28196  0.25843  1.0000
  C   C229      1.0  0.22600  0.26331  0.26912  1.0000
  H   H398      1.0  0.35503  0.31229  0.29625  1.0000
  S   S67       1.0  0.26437  0.25449  0.29951  1.0000
  S   S68       1.0  0.24352  0.30348  0.29738  1.0000
  C   C230      1.0  0.25197  0.34988  0.29724  1.0000
  H   H399      1.0  0.19643  0.29921  0.27953  1.0000
  C   C231      1.0  0.24769  0.32041  0.30451  1.0000
  H   H400      1.0  0.28959  0.43649  0.29852  1.0000
  C   C232      1.0  0.30410  0.33537  0.31021  1.0000
  C   C233      1.0  0.30973  0.35127  0.31220  1.0000
  H   H401      1.0  0.21283  0.28817  0.29129  1.0000
  S   S69       1.0  0.36258  0.27178  0.29992  1.0000
  S   S70       1.0  0.39470  0.29519  0.30836  1.0000
  C   C234      1.0  0.19463  0.27613  0.25201  1.0000
  H   H402      1.0  0.47010  0.28726  0.31659  1.0000
  H   H403      1.0  0.21662  0.25470  0.27398  1.0000
  H   H404      1.0  0.32620  0.30835  0.29623  1.0000
  H   H405      1.0  0.29301  0.41741  0.31445  1.0000
  H   H406      1.0  0.23993  0.28781  0.27068  1.0000
  Fe  Fe33      1.0  0.24721  0.27602  0.31206  1.0000
  C   C235      1.0  0.34486  0.26147  0.30867  1.0000
  H   H407      1.0  0.19785  0.26245  0.25833  1.0000
  H   H408      1.0  0.23331  0.26049  0.27963  1.0000
  H   H409      1.0  0.20058  0.30045  0.25021  1.0000
  H   H410      1.0  0.30516  0.26274  0.30149  1.0000
  C   C236      1.0  0.20532  0.28656  0.28239  1.0000
  C   C237      1.0  0.29378  0.30372  0.30774  1.0000
  C   C238      1.0  0.20787  0.28691  0.25126  1.0000
  H   H411      1.0  0.33038  0.27708  0.28964  1.0000
  H   H412      1.0  0.15748  0.25867  0.04812  1.0000
  C   C239      1.0  0.23132  0.29240  0.26114  1.0000
  H   H413      1.0  0.43495  0.31653  0.31096  1.0000
  C   C240      1.0  0.33045  0.26672  0.30089  1.0000
  N   N18       1.0  0.21729  0.28206  0.26596  1.0000
  C   C241      1.0  0.22522  0.31206  0.25979  1.0000
  H   H414      1.0  0.28988  0.33788  0.31467  1.0000
  H   H415      1.0  0.28408  0.29535  0.31249  1.0000
  H   H416      1.0  0.25261  0.36179  0.28782  1.0000
  C   C242      1.0  0.19397  0.27360  0.29335  1.0000
  H   H417      1.0  0.34001  0.33196  0.29207  1.0000
  H   H418      1.0  0.28743  0.31617  0.30070  1.0000
  H   H419      1.0  0.21790  0.31544  0.27235  1.0000
  H   H420      1.0  0.24587  0.33751  0.27997  1.0000
  H   H421      1.0  0.23676  0.31802  0.25617  1.0000
  H   H422      1.0  0.21755  0.31807  0.24966  1.0000
  H   H423      1.0  0.19418  0.27580  0.23861  1.0000
  H   H424      1.0  0.21703  0.28708  0.23852  1.0000
  C   C243      1.0  0.15380  0.24788  0.05872  1.0000
  H   H425      1.0  0.18490  0.27933  0.30407  1.0000
  H   H426      1.0  0.24314  0.24274  0.25705  1.0000
  H   H427      1.0  0.15022  0.25235  0.07117  1.0000
  H   H428      1.0  0.33400  0.29713  0.31518  1.0000
  H   H429      1.0  0.30392  0.36282  0.30347  1.0000
  H   H430      1.0  0.32383  0.35035  0.30875  1.0000
  C   C244      1.0  0.24818  0.33608  0.29277  1.0000
  H   H431      1.0  0.18609  0.27036  0.28599  1.0000
  H   H432      1.0  0.23211  0.25901  0.24235  1.0000
  H   H433      1.0  0.30430  0.29727  0.29857  1.0000
  H   H434      1.0  0.43580  0.33833  0.30996  1.0000
  C   C245      1.0  0.32858  0.31021  0.30834  1.0000
  H   H435      1.0  0.30579  0.45106  0.30843  1.0000
  H   H436      1.0  0.20184  0.26162  0.29953  1.0000
  H   H437      1.0  0.35044  0.43086  0.29207  1.0000
  H   H438      1.0  0.34629  0.32423  0.31294  1.0000
  H   H439      1.0  0.14232  0.24536  0.05587  1.0000
  Fe  Fe34      1.0  0.24269  0.23987  0.31133  1.0000
  H   H440      1.0  0.41526  0.33200  0.31329  1.0000
  H   H441      1.0  0.31080  0.42344  0.29714  1.0000
  C   C246      1.0  0.42826  0.32816  0.31648  1.0000
  H   H442      1.0  0.30712  0.24390  0.26317  1.0000
  H   H443      1.0  0.33233  0.44731  0.29579  1.0000
  C   C247      1.0  0.25505  0.34841  0.31365  1.0000
  C   C248      1.0  0.29907  0.42824  0.30633  1.0000
  C   C249      1.0  0.34171  0.43739  0.30242  1.0000
  H   H444      1.0  0.34939  0.44370  0.30742  1.0000
  H   H445      1.0  0.33312  0.41313  0.31114  1.0000
  H   H446      1.0  0.32594  0.46379  0.31783  1.0000
  C   C250      1.0  0.30273  0.43909  0.31738  1.0000
  C   C251      1.0  0.33352  0.42392  0.31692  1.0000
  S   S71       1.0  0.26127  0.36603  0.31748  1.0000
  Fe  Fe35      1.0  0.37657  0.27668  0.31827  1.0000
  C   C252      1.0  0.41653  0.29468  0.61630  1.0000
  S   S72       1.0  0.26075  0.38969  0.38332  1.0000
  C   C253      1.0  0.33121  0.30506  0.54438  1.0000
  S   S73       1.0  0.30818  0.38370  0.63441  1.0000
  Fe  Fe36      1.0  0.29897  0.29522  0.59541  1.0000
  S   S74       1.0  0.27542  0.30415  0.61457  1.0000
  S   S75       1.0  0.32262  0.27793  0.60427  1.0000
  Fe  Fe37      1.0  0.28148  0.31020  0.56488  1.0000
  S   S76       1.0  0.25633  0.32044  0.58134  1.0000
  S   S77       1.0  0.28553  0.31504  0.53569  1.0000
  Fe  Fe38      1.0  0.27243  0.32869  0.59494  1.0000
  S   S78       1.0  0.26083  0.35292  0.60519  1.0000
  Fe  Fe39      1.0  0.26102  0.29528  0.59988  1.0000
  S   S79       1.0  0.23896  0.39289  0.35359  1.0000
  S   S80       1.0  0.29742  0.32077  0.57688  1.0000
  C   C254      1.0  0.27598  0.43378  0.37376  1.0000
  Fe  Fe40      1.0  0.28166  0.28776  0.43664  1.0000
  S   S81       1.0  0.29679  0.30555  0.41687  1.0000
  Fe  Fe41      1.0  0.24494  0.28904  0.45572  1.0000
  S   S82       1.0  0.24975  0.26114  0.46858  1.0000
  S   S83       1.0  0.22007  0.30782  0.46068  1.0000
  Fe  Fe42      1.0  0.27371  0.26665  0.47291  1.0000
  S   S84       1.0  0.28067  0.25735  0.49926  1.0000
  Fe  Fe43      1.0  0.26558  0.25697  0.44248  1.0000
  H   H447      1.0  0.31396  0.35256  0.41917  1.0000
  S   S85       1.0  0.26752  0.29486  0.46190  1.0000
  S   S86       1.0  0.25848  0.28440  0.42931  1.0000
  S   S87       1.0  0.29706  0.46798  0.38524  1.0000
  C   C255      1.0  0.30408  0.31340  0.63465  1.0000
  S   S88       1.0  0.29014  0.25987  0.44794  1.0000
  Fe  Fe44      1.0  0.24224  0.37586  0.37926  1.0000
  S   S89       1.0  0.21782  0.37172  0.39841  1.0000
  H   H448      1.0  0.29001  0.33419  0.34487  1.0000
  H   H449      1.0  0.32031  0.31506  0.54012  1.0000
  H   H450      1.0  0.22674  0.35670  0.36346  1.0000
  H   H451      1.0  0.29350  0.38647  0.42608  1.0000
  C   C256      1.0  0.32051  0.40543  0.35452  1.0000
  H   H452      1.0  0.31712  0.26454  0.35388  1.0000
  H   H453      1.0  0.31203  0.26807  0.39825  1.0000
  C   C257      1.0  0.25071  0.31877  0.32111  1.0000
  H   H454      1.0  0.31070  0.40472  0.33294  1.0000
  H   H455      1.0  0.44651  0.30684  0.57955  1.0000
  C   C258      1.0  0.32767  0.24852  0.37661  1.0000
  H   H456      1.0  0.31992  0.27564  0.43172  1.0000
  C   C259      1.0  0.28531  0.45906  0.37577  1.0000
  H   H457      1.0  0.20254  0.29105  0.36623  1.0000
  C   C260      1.0  0.29091  0.38176  0.41561  1.0000
  C   C261      1.0  0.21385  0.35583  0.36227  1.0000
  H   H458      1.0  0.27966  0.36787  0.45373  1.0000
  C   C262      1.0  0.28456  0.44156  0.38156  1.0000
  H   H459      1.0  0.30233  0.36303  0.44638  1.0000
  H   H460      1.0  0.29085  0.43395  0.39198  1.0000
  C   C263      1.0  0.21999  0.32588  0.44367  1.0000
  C   C264      1.0  0.23511  0.32841  0.43139  1.0000
  C   C265      1.0  0.23473  0.34269  0.41757  1.0000
  C   C266      1.0  0.21916  0.35430  0.41595  1.0000
  C   C267      1.0  0.20413  0.35182  0.42829  1.0000
  C   C268      1.0  0.20455  0.33770  0.44217  1.0000
  H   H461      1.0  0.24716  0.31950  0.43261  1.0000
  H   H462      1.0  0.24642  0.34460  0.40813  1.0000
  H   H463      1.0  0.19207  0.36079  0.42705  1.0000
  H   H464      1.0  0.19284  0.33578  0.45159  1.0000
  C   C269      1.0  0.31758  0.29511  0.40865  1.0000
  C   C270      1.0  0.32582  0.28018  0.41843  1.0000
  C   C271      1.0  0.34158  0.27083  0.41081  1.0000
  C   C272      1.0  0.34913  0.27652  0.39350  1.0000
  C   C273      1.0  0.34136  0.29203  0.38414  1.0000
  C   C274      1.0  0.32550  0.30121  0.39165  1.0000
  H   H465      1.0  0.34736  0.29684  0.37105  1.0000
  H   H466      1.0  0.31910  0.31278  0.38414  1.0000
  H   H467      1.0  0.48490  0.25568  0.35667  1.0000
  C   C275      1.0  0.23334  0.24970  0.38797  1.0000
  C   C276      1.0  0.42716  0.32345  0.33619  1.0000
  H   H468      1.0  0.23605  0.26248  0.42371  1.0000
  C   C277      1.0  0.23111  0.45321  0.39174  1.0000
  Fe  Fe45      1.0  0.26060  0.37308  0.34268  1.0000
  H   H469      1.0  0.28313  0.39289  0.40812  1.0000
  H   H470      1.0  0.27570  0.42025  0.37815  1.0000
  C   C278      1.0  0.30217  0.26199  0.39643  1.0000
  H   H471      1.0  0.25711  0.28201  0.63949  1.0000
  C   C279      1.0  0.28510  0.29848  0.52579  1.0000
  C   C280      1.0  0.28837  0.30130  0.50769  1.0000
  C   C281      1.0  0.28739  0.28862  0.49940  1.0000
  C   C282      1.0  0.28334  0.27295  0.50918  1.0000
  C   C283      1.0  0.28051  0.26997  0.52729  1.0000
  C   C284      1.0  0.28118  0.28278  0.53559  1.0000
  H   H472      1.0  0.29149  0.31339  0.50007  1.0000
  H   H473      1.0  0.28993  0.29090  0.48545  1.0000
  H   H474      1.0  0.39505  0.32134  0.37061  1.0000
  H   H475      1.0  0.27830  0.28062  0.54954  1.0000
  C   C285      1.0  0.29519  0.37506  0.62617  1.0000
  C   C286      1.0  0.30272  0.36440  0.61408  1.0000
  C   C287      1.0  0.29233  0.35705  0.60790  1.0000
  C   C288      1.0  0.27438  0.36080  0.61345  1.0000
  C   C289      1.0  0.26692  0.37135  0.62557  1.0000
  C   C290      1.0  0.27731  0.37824  0.63210  1.0000
  H   H476      1.0  0.31658  0.36176  0.60958  1.0000
  H   H477      1.0  0.29816  0.34891  0.59852  1.0000
  H   H478      1.0  0.25308  0.37429  0.62991  1.0000
  H   H479      1.0  0.27141  0.38622  0.64157  1.0000
  C   C291      1.0  0.35673  0.30643  0.61841  1.0000
  C   C292      1.0  0.34844  0.31398  0.60449  1.0000
  C   C293      1.0  0.33798  0.30528  0.60011  1.0000
  C   C294      1.0  0.33596  0.28884  0.60946  1.0000
  C   C295      1.0  0.34448  0.28113  0.62322  1.0000
  C   C296      1.0  0.35469  0.28999  0.62784  1.0000
  H   H480      1.0  0.34990  0.32674  0.59723  1.0000
  H   H481      1.0  0.33143  0.31136  0.58952  1.0000
  H   H482      1.0  0.34288  0.26844  0.63058  1.0000
  N   N19       1.0  0.21689  0.32338  0.37654  1.0000
  C   C297      1.0  0.21298  0.33752  0.36127  1.0000
  C   C298      1.0  0.21759  0.30654  0.37179  1.0000
  C   C299      1.0  0.23423  0.32391  0.37944  1.0000
  C   C300      1.0  0.20288  0.32681  0.39208  1.0000
  C   C301      1.0  0.20059  0.30418  0.36873  1.0000
  C   C302      1.0  0.24435  0.30719  0.38894  1.0000
  C   C303      1.0  0.20305  0.31293  0.40882  1.0000
  H   H483      1.0  0.19979  0.33855  0.35931  1.0000
  H   H484      1.0  0.22164  0.29529  0.38172  1.0000
  H   H485      1.0  0.22767  0.30484  0.35988  1.0000
  H   H486      1.0  0.20346  0.33882  0.39574  1.0000
  H   H487      1.0  0.18979  0.32976  0.38911  1.0000
  H   H488      1.0  0.20389  0.36066  0.37297  1.0000
  H   H489      1.0  0.22716  0.36383  0.62972  1.0000
  H   H490      1.0  0.18998  0.30517  0.38025  1.0000
  H   H491      1.0  0.19670  0.31326  0.35715  1.0000
  H   H492      1.0  0.24957  0.29747  0.38059  1.0000
  H   H493      1.0  0.23667  0.30143  0.40129  1.0000
  H   H494      1.0  0.21157  0.31479  0.41648  1.0000
  H   H495      1.0  0.20677  0.29961  0.40664  1.0000
  H   H496      1.0  0.18977  0.31391  0.41684  1.0000
  H   H497      1.0  0.28663  0.28789  0.39218  1.0000
  H   H498      1.0  0.29099  0.32138  0.63457  1.0000
  N   N20       1.0  0.22648  0.30320  0.51726  1.0000
  C   C304      1.0  0.23867  0.31484  0.51582  1.0000
  C   C305      1.0  0.21929  0.29762  0.53631  1.0000
  C   C306      1.0  0.21205  0.31374  0.50838  1.0000
  C   C307      1.0  0.23623  0.28832  0.50857  1.0000
  C   C308      1.0  0.24635  0.32364  0.49736  1.0000
  H   H499      1.0  0.24237  0.27770  0.54164  1.0000
  C   C309      1.0  0.19786  0.30447  0.50847  1.0000
  C   C310      1.0  0.22918  0.27145  0.51471  1.0000
  H   H500      1.0  0.23226  0.32523  0.52329  1.0000
  H   H501      1.0  0.24996  0.30755  0.52160  1.0000
  H   H502      1.0  0.20986  0.28929  0.53876  1.0000
  H   H503      1.0  0.21176  0.30901  0.54195  1.0000
  H   H504      1.0  0.20565  0.32534  0.51409  1.0000
  H   H505      1.0  0.21710  0.31859  0.49443  1.0000
  H   H506      1.0  0.23731  0.29223  0.49429  1.0000
  H   H507      1.0  0.24967  0.28463  0.51056  1.0000
  H   H508      1.0  0.23911  0.43999  0.39235  1.0000
  H   H509      1.0  0.38804  0.35230  0.36813  1.0000
  C   C311      1.0  0.44640  0.27992  0.61007  1.0000
  H   H510      1.0  0.33046  0.43758  0.34319  1.0000
  H   H511      1.0  0.30779  0.44179  0.35052  1.0000
  C   C312      1.0  0.23280  0.28799  0.54746  1.0000
  H   H512      1.0  0.18784  0.31393  0.50214  1.0000
  H   H513      1.0  0.19127  0.29914  0.52167  1.0000
  H   H514      1.0  0.20298  0.29436  0.50059  1.0000
  C   C313      1.0  0.43493  0.30127  0.58650  1.0000
  H   H515      1.0  0.21528  0.27290  0.52049  1.0000
  H   H516      1.0  0.39424  0.33540  0.34433  1.0000
  H   H517      1.0  0.30485  0.35382  0.32547  1.0000
  H   H518      1.0  0.21759  0.45176  0.39733  1.0000
  H   H519      1.0  0.34774  0.25899  0.41819  1.0000
  C   C314      1.0  0.31671  0.46137  0.33025  1.0000
  H   H520      1.0  0.44489  0.27535  0.62433  1.0000
  H   H521      1.0  0.23127  0.26543  0.50342  1.0000
  H   H522      1.0  0.44337  0.26965  0.60538  1.0000
  C   C315      1.0  0.33139  0.23899  0.32888  1.0000
  H   H523      1.0  0.29412  0.25847  0.40956  1.0000
  C   C316      1.0  0.22903  0.25902  0.40123  1.0000
  H   H524      1.0  0.47376  0.26107  0.38515  1.0000
  H   H525      1.0  0.29406  0.31269  0.35766  1.0000
  H   H526      1.0  0.43393  0.33708  0.61396  1.0000
  H   H527      1.0  0.23968  0.29700  0.54976  1.0000
  H   H528      1.0  0.33170  0.29530  0.51469  1.0000
  C   C317      1.0  0.25214  0.48700  0.41441  1.0000
  H   H529      1.0  0.36467  0.25964  0.54434  1.0000
  H   H530      1.0  0.31127  0.24282  0.57316  1.0000
  S   S90       1.0  0.23903  0.28192  0.61341  1.0000
  H   H531      1.0  0.23291  0.33416  0.38667  1.0000
  H   H532      1.0  0.30460  0.30165  0.63004  1.0000
  H   H533      1.0  0.30325  0.33900  0.41385  1.0000
  H   H534      1.0  0.35004  0.28430  0.57028  1.0000
  C   C318      1.0  0.28064  0.36712  0.42261  1.0000
  H   H535      1.0  0.25559  0.31016  0.39204  1.0000
  C   C319      1.0  0.27772  0.24857  0.61954  1.0000
  H   H536      1.0  0.23663  0.33411  0.49162  1.0000
  C   C320      1.0  0.40935  0.28042  0.61298  1.0000
  S   S91       1.0  0.28471  0.28408  0.58226  1.0000
  H   H537      1.0  0.30312  0.37809  0.40644  1.0000
  Fe  Fe46      1.0  0.23652  0.25232  0.34554  1.0000
  C   C321      1.0  0.26710  0.24002  0.63653  1.0000
  H   H538      1.0  0.44025  0.31716  0.33850  1.0000
  H   H539      1.0  0.21131  0.36483  0.35008  1.0000
  C   C322      1.0  0.40778  0.31794  0.37423  1.0000
  C   C323      1.0  0.28991  0.27626  0.38641  1.0000
  H   H540      1.0  0.31273  0.28895  0.54817  1.0000
  H   H541      1.0  0.32178  0.28675  0.56629  1.0000
  H   H542      1.0  0.25681  0.32970  0.49798  1.0000
  H   H543      1.0  0.24310  0.32745  0.36688  1.0000
  H   H544      1.0  0.35757  0.26127  0.57527  1.0000
  C   C324      1.0  0.27724  0.46881  0.36226  1.0000
  H   H545      1.0  0.29560  0.28015  0.37257  1.0000
  C   C325      1.0  0.31673  0.24457  0.32149  1.0000
  C   C326      1.0  0.32512  0.28773  0.55201  1.0000
  H   H546      1.0  0.20507  0.36335  0.63240  1.0000
  H   H547      1.0  0.27872  0.36322  0.41122  1.0000
  H   H548      1.0  0.33947  0.26177  0.35160  1.0000
  H   H549      1.0  0.26761  0.37329  0.42893  1.0000
  C   C327      1.0  0.31609  0.32773  0.43520  1.0000
  H   H550      1.0  0.23265  0.48730  0.37330  1.0000
  H   H551      1.0  0.27758  0.27225  0.38773  1.0000
  C   C328      1.0  0.41905  0.31366  0.58013  1.0000
  H   H552      1.0  0.47108  0.28605  0.61008  1.0000
  N   N21       1.0  0.28824  0.35155  0.43485  1.0000
  C   C329      1.0  0.30527  0.34326  0.42495  1.0000
  C   C330      1.0  0.29061  0.35729  0.45009  1.0000
  C   C331      1.0  0.26809  0.44347  0.36009  1.0000
  S   S92       1.0  0.36967  0.31790  0.62342  1.0000
  S   S93       1.0  0.26258  0.35515  0.36818  1.0000
  H   H553      1.0  0.30909  0.31715  0.44170  1.0000
  H   H554      1.0  0.36101  0.28409  0.63863  1.0000
  C   C332      1.0  0.33729  0.34039  0.36883  1.0000
  C   C333      1.0  0.31588  0.31853  0.33647  1.0000
  H   H555      1.0  0.20706  0.38968  0.63855  1.0000
  H   H556      1.0  0.34203  0.30515  0.53309  1.0000
  C   C334      1.0  0.34005  0.35788  0.33440  1.0000
  H   H557      1.0  0.25126  0.33462  0.45593  1.0000
  C   C335      1.0  0.26860  0.46104  0.35449  1.0000
  C   C336      1.0  0.27598  0.33929  0.43982  1.0000
  H   H558      1.0  0.27403  0.33619  0.42801  1.0000
  H   H559      1.0  0.32746  0.32224  0.42597  1.0000
  H   H560      1.0  0.30328  0.34419  0.47180  1.0000
  H   H561      1.0  0.25215  0.31430  0.48876  1.0000
  H   H562      1.0  0.46851  0.28559  0.58873  1.0000
  H   H563      1.0  0.30398  0.32881  0.35995  1.0000
  C   C337      1.0  0.23930  0.25508  0.41366  1.0000
  H   H564      1.0  0.24969  0.35520  0.44191  1.0000
  C   C338      1.0  0.29205  0.34349  0.46693  1.0000
  H   H565      1.0  0.32114  0.33166  0.44464  1.0000
  C   C339      1.0  0.25787  0.34567  0.45034  1.0000
  C   C340      1.0  0.40150  0.34565  0.34276  1.0000
  H   H566      1.0  0.42356  0.32230  0.56777  1.0000
  H   H567      1.0  0.28134  0.32661  0.44715  1.0000
  C   C341      1.0  0.32709  0.26375  0.36109  1.0000
  H   H568      1.0  0.23633  0.45548  0.41557  1.0000
  H   H569      1.0  0.34129  0.27893  0.50251  1.0000
  H   H570      1.0  0.34511  0.25656  0.52761  1.0000
  Fe  Fe47      1.0  0.28096  0.37077  0.36954  1.0000
  C   C342      1.0  0.24355  0.28349  0.64517  1.0000
  H   H571      1.0  0.22821  0.47988  0.42834  1.0000
  H   H572      1.0  0.48270  0.29761  0.33583  1.0000
  N   N22       1.0  0.33757  0.27164  0.54758  1.0000
  C   C343      1.0  0.34150  0.28315  0.51435  1.0000
  H   H573      1.0  0.25731  0.33144  0.33816  1.0000
  Fe  Fe48      1.0  0.25929  0.40514  0.35670  1.0000
  S   S94       1.0  0.30523  0.35890  0.37962  1.0000
  H   H574      1.0  0.33638  0.33377  0.38220  1.0000
  H   H575      1.0  0.28057  0.34628  0.47732  1.0000
  H   H576      1.0  0.25824  0.35119  0.46123  1.0000
  H   H577      1.0  0.29382  0.33002  0.46571  1.0000
  C   C344      1.0  0.32378  0.35363  0.36398  1.0000
  H   H578      1.0  0.23324  0.32174  0.61743  1.0000
  H   H579      1.0  0.31449  0.39453  0.36263  1.0000
  S   S95       1.0  0.22084  0.25529  0.37202  1.0000
  C   C345      1.0  0.33672  0.26906  0.53018  1.0000
  H   H580      1.0  0.28016  0.26088  0.62076  1.0000
  H   H581      1.0  0.36106  0.28211  0.53792  1.0000
  H   H582      1.0  0.35463  0.28542  0.51273  1.0000
  S   S96       1.0  0.25758  0.26738  0.33622  1.0000
  S   S97       1.0  0.39299  0.25887  0.33650  1.0000
  H   H583      1.0  0.29633  0.26658  0.64510  1.0000
  C   C346      1.0  0.35592  0.27166  0.54783  1.0000
  C   C347      1.0  0.46387  0.28668  0.33007  1.0000
  Fe  Fe49      1.0  0.37866  0.30863  0.32945  1.0000
  H   H584      1.0  0.32554  0.27610  0.36513  1.0000
  C   C348      1.0  0.46579  0.27969  0.60268  1.0000
  C   C349      1.0  0.33253  0.25628  0.56105  1.0000
  H   H585      1.0  0.34328  0.41793  0.32511  1.0000
  C   C350      1.0  0.29984  0.30580  0.32340  1.0000
  N   N23       1.0  0.31634  0.43024  0.32792  1.0000
  H   H586      1.0  0.44128  0.28517  0.37816  1.0000
  H   H587      1.0  0.37225  0.27500  0.56352  1.0000
  H   H588      1.0  0.27796  0.48225  0.35758  1.0000
  S   S98       1.0  0.25811  0.43393  0.34929  1.0000
  H   H589      1.0  0.29655  0.41822  0.34669  1.0000
  H   H590      1.0  0.24285  0.33440  0.63633  1.0000
  H   H591      1.0  0.32475  0.32737  0.33466  1.0000
  H   H592      1.0  0.26257  0.46859  0.34388  1.0000
  H   H593      1.0  0.45569  0.35732  0.33474  1.0000
  C   C351      1.0  0.31566  0.25136  0.56068  1.0000
  C   C352      1.0  0.21521  0.36206  0.63973  1.0000
  C   C353      1.0  0.22368  0.33154  0.62405  1.0000
  H   H594      1.0  0.22335  0.34398  0.61464  1.0000
  H   H595      1.0  0.42541  0.36167  0.34761  1.0000
  C   C354      1.0  0.23751  0.46289  0.40201  1.0000
  C   C355      1.0  0.41962  0.33091  0.36467  1.0000
  Fe  Fe50      1.0  0.27291  0.24467  0.32483  1.0000
  H   H596      1.0  0.33451  0.30968  0.55456  1.0000
  H   H597      1.0  0.20520  0.28567  0.63513  1.0000
  H   H598      1.0  0.22194  0.33461  0.34907  1.0000
  C   C356      1.0  0.44827  0.28083  0.33640  1.0000
  H   H599      1.0  0.32002  0.41387  0.36339  1.0000
  C   C357      1.0  0.43003  0.35189  0.33928  1.0000
  H   H600      1.0  0.33102  0.25839  0.57436  1.0000
  H   H601      1.0  0.23069  0.31854  0.64801  1.0000
  H   H602      1.0  0.39539  0.28198  0.61907  1.0000
  H   H603      1.0  0.33655  0.25086  0.38358  1.0000
  H   H604      1.0  0.30339  0.46758  0.32846  1.0000
  H   H605      1.0  0.37766  0.36330  0.35059  1.0000
  H   H606      1.0  0.25167  0.46150  0.39701  1.0000
  H   H607      1.0  0.31353  0.32041  0.62517  1.0000
  H   H608      1.0  0.23241  0.45945  0.37787  1.0000
  S   S99       1.0  0.28073  0.38709  0.34310  1.0000
  C   C358      1.0  0.23186  0.28383  0.63520  1.0000
  H   H609      1.0  0.34289  0.24454  0.55993  1.0000
  H   H610      1.0  0.47297  0.26610  0.60423  1.0000
  C   C359      1.0  0.46278  0.29216  0.35826  1.0000
  H   H611      1.0  0.41056  0.28098  0.59905  1.0000
  H   H612      1.0  0.31893  0.24519  0.42141  1.0000
  C   C360      1.0  0.44758  0.28570  0.36470  1.0000
  H   H613      1.0  0.45269  0.33870  0.35119  1.0000
  S   S100      1.0  0.39439  0.29391  0.34911  1.0000
  C   C361      1.0  0.35174  0.33525  0.35631  1.0000
  H   H614      1.0  0.36186  0.32458  0.36002  1.0000
  H   H615      1.0  0.21777  0.26929  0.40189  1.0000
  H   H616      1.0  0.29232  0.34432  0.64769  1.0000
  N   N24       1.0  0.31212  0.31794  0.31951  1.0000
  C   C362      1.0  0.32524  0.36244  0.34677  1.0000
  N   N25       1.0  0.31078  0.24616  0.38881  1.0000
  C   C363      1.0  0.32314  0.33047  0.65118  1.0000
  C   C364      1.0  0.21431  0.28544  0.64275  1.0000
  H   H617      1.0  0.31508  0.37285  0.34299  1.0000
  C   C365      1.0  0.35889  0.27316  0.56528  1.0000
  H   H618      1.0  0.41568  0.26746  0.61913  1.0000
  H   H619      1.0  0.40671  0.30668  0.61463  1.0000
  H   H620      1.0  0.41537  0.33008  0.61325  1.0000
  C   C366      1.0  0.21047  0.37787  0.64829  1.0000
  H   H621      1.0  0.33408  0.39984  0.34920  1.0000
  C   C367      1.0  0.35309  0.34402  0.33910  1.0000
  C   C368      1.0  0.31807  0.44207  0.33862  1.0000
  H   H622      1.0  0.43282  0.32392  0.36642  1.0000
  H   H623      1.0  0.41401  0.30476  0.37211  1.0000
  H   H624      1.0  0.41091  0.30639  0.57698  1.0000
  S   S101      1.0  0.35950  0.29144  0.33799  1.0000
  Fe  Fe51      1.0  0.40945  0.27901  0.32863  1.0000
  C   C369      1.0  0.29996  0.32391  0.35040  1.0000
  H   H625      1.0  0.39635  0.36976  0.35227  1.0000
  H   H626      1.0  0.41082  0.32213  0.58893  1.0000
  Fe  Fe52      1.0  0.37694  0.27517  0.35561  1.0000
  C   C370      1.0  0.47104  0.29250  0.34094  1.0000
  H   H627      1.0  0.28774  0.31018  0.33247  1.0000
  S   S102      1.0  0.36742  0.26345  0.38339  1.0000
  H   H628      1.0  0.27724  0.25792  0.53492  1.0000
  H   H629      1.0  0.31952  0.46802  0.33920  1.0000
  C   C371      1.0  0.22949  0.33192  0.64047  1.0000
  H   H630      1.0  0.21109  0.32757  0.62710  1.0000
  H   H631      1.0  0.32340  0.26835  0.52990  1.0000
  H   H632      1.0  0.41963  0.31313  0.34127  1.0000
  N   N26       1.0  0.43417  0.29689  0.60576  1.0000
  H   H633      1.0  0.43661  0.28930  0.58162  1.0000
  C   C372      1.0  0.44031  0.28011  0.35383  1.0000
  H   H634      1.0  0.32179  0.33637  0.63764  1.0000
  H   H635      1.0  0.41675  0.34134  0.37209  1.0000
  C   C373      1.0  0.31028  0.41470  0.34014  1.0000
  H   H636      1.0  0.42850  0.27527  0.35892  1.0000
  H   H637      1.0  0.40483  0.31779  0.38831  1.0000
  S   S103      1.0  0.47036  0.30047  0.37214  1.0000
  C   C374      1.0  0.43975  0.31040  0.61145  1.0000
  H   H638      1.0  0.22618  0.28186  0.56038  1.0000
  H   H639      1.0  0.43958  0.30675  0.62558  1.0000
  H   H640      1.0  0.23677  0.26186  0.52368  1.0000
  H   H641      1.0  0.41671  0.29166  0.63034  1.0000
  N   N27       1.0  0.41953  0.33799  0.34574  1.0000
  H   H642      1.0  0.32280  0.30569  0.34233  1.0000
  H   H643      1.0  0.34117  0.36473  0.32109  1.0000
  C   C375      1.0  0.25442  0.33280  0.32567  1.0000
  H   H644      1.0  0.20838  0.46191  0.42594  1.0000
  C   C376      1.0  0.25337  0.24119  0.41341  1.0000
  H   H645      1.0  0.43158  0.33456  0.59370  1.0000
  H   H646      1.0  0.25041  0.30669  0.33027  1.0000
  H   H647      1.0  0.45598  0.33791  0.32858  1.0000
  H   H648      1.0  0.26003  0.47380  0.41470  1.0000
  H   H649      1.0  0.29648  0.25170  0.36824  1.0000
  C   C377      1.0  0.29815  0.25238  0.64678  1.0000
  C   C378      1.0  0.48683  0.25275  0.38313  1.0000
  H   H650      1.0  0.30299  0.24944  0.63374  1.0000
  S   S104      1.0  0.22487  0.26251  0.32185  1.0000
  H   H651      1.0  0.28579  0.24247  0.38878  1.0000
  C   C379      1.0  0.34525  0.24761  0.32273  1.0000
  C   C380      1.0  0.42935  0.32896  0.60777  1.0000
  C   C381      1.0  0.39047  0.35846  0.35423  1.0000
  H   H652      1.0  0.30516  0.26273  0.55884  1.0000
  H   H653      1.0  0.18893  0.47096  0.41853  1.0000
  H   H654      1.0  0.48535  0.23936  0.38891  1.0000
  S   S105      1.0  0.43866  0.27509  0.32225  1.0000
  S   S106      1.0  0.37076  0.33743  0.32330  1.0000
  H   H655      1.0  0.30561  0.29271  0.32998  1.0000
  H   H656      1.0  0.45326  0.31142  0.60500  1.0000
  H   H657      1.0  0.40177  0.35267  0.32912  1.0000
  C   C382      1.0  0.20039  0.47428  0.42081  1.0000
  H   H658      1.0  0.29027  0.44347  0.32603  1.0000
  H   H659      1.0  0.26996  0.25202  0.60937  1.0000
  H   H660      1.0  0.19425  0.33927  0.64882  1.0000
  H   H661      1.0  0.33531  0.32052  0.65021  1.0000
  H   H662      1.0  0.35651  0.24318  0.32850  1.0000
  S   S107      1.0  0.40097  0.31972  0.65012  1.0000
  H   H663      1.0  0.33758  0.44344  0.64366  1.0000
  C   C383      1.0  0.44964  0.34586  0.33851  1.0000
  H   H664      1.0  0.33635  0.35122  0.64846  1.0000
  H   H665      1.0  0.25554  0.25013  0.63963  1.0000
  H   H666      1.0  0.31773  0.24409  0.55030  1.0000
  H   H667      1.0  0.28989  0.24002  0.61471  1.0000
  H   H668      1.0  0.20590  0.48176  0.39261  1.0000
  C   C384      1.0  0.20970  0.48434  0.40373  1.0000
  H   H669      1.0  0.42831  0.35916  0.32612  1.0000
  C   C385      1.0  0.29868  0.24198  0.38007  1.0000
  N   N28       1.0  0.22899  0.48163  0.40126  1.0000
  Fe  Fe53      1.0  0.37887  0.30900  0.64859  1.0000
  H   H670      1.0  0.19609  0.48217  0.43096  1.0000
  H   H671      1.0  0.32117  0.29913  0.65180  1.0000
  N   N29       1.0  0.21796  0.34447  0.65139  1.0000
  H   H672      1.0  0.48090  0.31725  0.71225  1.0000
  H   H673      1.0  0.28566  0.34512  0.76722  1.0000
  C   C386      1.0  0.47238  0.31541  0.66516  1.0000
  Fe  Fe54      1.0  0.38600  0.32352  0.67631  1.0000
  S   S108      1.0  0.38567  0.34558  0.68788  1.0000
  H   H674      1.0  0.23408  0.46412  0.69907  1.0000
  H   H675      1.0  0.35011  0.31330  0.75256  1.0000
  H   H676      1.0  0.28370  0.32190  0.75391  1.0000
  H   H677      1.0  0.48191  0.29768  0.70615  1.0000
  H   H678      1.0  0.23784  0.32887  0.68710  1.0000
  Fe  Fe55      1.0  0.27887  0.42397  0.67615  1.0000
  H   H679      1.0  0.29461  0.27652  0.75025  1.0000
  Fe  Fe56      1.0  0.29356  0.39337  0.65862  1.0000
  Fe  Fe57      1.0  0.26068  0.39377  0.68597  1.0000
  S   S109      1.0  0.28557  0.37455  0.68275  1.0000
  S   S110      1.0  0.23695  0.38229  0.69344  1.0000
  Fe  Fe58      1.0  0.29427  0.39003  0.69649  1.0000
  S   S111      1.0  0.30889  0.37821  0.71774  1.0000
  H   H680      1.0  0.45554  0.32009  0.70055  1.0000
  S   S112      1.0  0.26876  0.40799  0.70175  1.0000
  H   H681      1.0  0.33136  0.33051  0.70062  1.0000
  C   C387      1.0  0.32694  0.30643  0.75028  1.0000
  C   C388      1.0  0.24119  0.36257  0.70792  1.0000
  C   C389      1.0  0.23173  0.34986  0.71016  1.0000
  C   C390      1.0  0.23636  0.33346  0.72035  1.0000
  C   C391      1.0  0.25009  0.32999  0.72878  1.0000
  C   C392      1.0  0.25899  0.34298  0.72717  1.0000
  C   C393      1.0  0.25462  0.35918  0.71672  1.0000
  H   H682      1.0  0.22105  0.35258  0.70374  1.0000
  H   H683      1.0  0.22924  0.32355  0.72178  1.0000
  H   H684      1.0  0.26944  0.34053  0.73375  1.0000
  H   H685      1.0  0.26160  0.36911  0.71557  1.0000
  C   C394      1.0  0.30645  0.47156  0.70061  1.0000
  C   C395      1.0  0.29775  0.45801  0.70875  1.0000
  C   C396      1.0  0.28962  0.45150  0.69931  1.0000
  C   C397      1.0  0.28974  0.45891  0.68186  1.0000
  C   C398      1.0  0.29844  0.47243  0.67375  1.0000
  H   H686      1.0  0.31130  0.32567  0.68549  1.0000
  Fe  Fe59      1.0  0.24399  0.25254  0.73799  1.0000
  C   C399      1.0  0.48001  0.29926  0.66097  1.0000
  H   H687      1.0  0.32140  0.42269  0.69024  1.0000
  H   H688      1.0  0.38070  0.40110  0.66984  1.0000
  C   C400      1.0  0.36427  0.35445  0.69609  1.0000
  C   C401      1.0  0.35179  0.35813  0.68607  1.0000
  C   C402      1.0  0.33471  0.36562  0.69261  1.0000
  C   C403      1.0  0.33008  0.36890  0.70936  1.0000
  C   C404      1.0  0.34250  0.36488  0.71950  1.0000
  C   C405      1.0  0.35966  0.35792  0.71275  1.0000
  C   C406      1.0  0.46984  0.28917  0.65814  1.0000
  H   H689      1.0  0.32512  0.36874  0.68475  1.0000
  H   H690      1.0  0.33889  0.36745  0.73245  1.0000
  H   H691      1.0  0.36932  0.35503  0.72050  1.0000
  N   N30       1.0  0.44475  0.29891  0.71813  1.0000
  C   C407      1.0  0.29654  0.32239  0.75583  1.0000
  H   H692      1.0  0.29118  0.35006  0.74422  1.0000
  C   C408      1.0  0.33621  0.31923  0.75336  1.0000
  H   H693      1.0  0.36727  0.40643  0.65396  1.0000
  H   H694      1.0  0.28284  0.44110  0.70566  1.0000
  C   C409      1.0  0.30697  0.47859  0.68304  1.0000
  H   H695      1.0  0.30782  0.34404  0.75675  1.0000
  H   H696      1.0  0.23980  0.34863  0.65879  1.0000
  H   H697      1.0  0.17855  0.24004  0.81890  1.0000
  H   H698      1.0  0.34256  0.31788  0.71695  1.0000
  H   H699      1.0  0.33654  0.29763  0.74233  1.0000
  C   C410      1.0  0.29933  0.28580  0.75484  1.0000
  C   C411      1.0  0.43039  0.27857  0.74501  1.0000
  S   S113      1.0  0.25544  0.29180  0.70235  1.0000
  C   C412      1.0  0.31448  0.32667  0.72592  1.0000
  H   H700      1.0  0.30297  0.33072  0.71984  1.0000
  C   C413      1.0  0.28106  0.24672  0.65712  1.0000
  H   H701      1.0  0.24690  0.28395  0.67042  1.0000
  H   H702      1.0  0.32383  0.29780  0.76307  1.0000
  H   H703      1.0  0.41914  0.28132  0.73894  1.0000
  Fe  Fe60      1.0  0.27089  0.26494  0.70666  1.0000
  Fe  Fe61      1.0  0.23274  0.27937  0.70789  1.0000
  C   C414      1.0  0.33591  0.43407  0.65616  1.0000
  C   C415      1.0  0.45467  0.32163  0.66595  1.0000
  H   H704      1.0  0.28843  0.29125  0.76448  1.0000
  S   S114      1.0  0.39738  0.29760  0.69014  1.0000
  S   S115      1.0  0.30507  0.40694  0.67203  1.0000
  H   H705      1.0  0.22173  0.48489  0.69203  1.0000
  N   N31       1.0  0.31097  0.31409  0.74287  1.0000
  H   H706      1.0  0.33604  0.33121  0.74338  1.0000
  C   C416      1.0  0.23778  0.28445  0.66271  1.0000
  H   H707      1.0  0.27522  0.31591  0.66977  1.0000
  H   H708      1.0  0.28241  0.24244  0.67085  1.0000
  H   H709      1.0  0.31532  0.29266  0.73011  1.0000
  H   H710      1.0  0.20584  0.25036  0.75841  1.0000
  S   S116      1.0  0.43917  0.28180  0.65751  1.0000
  H   H711      1.0  0.41940  0.29840  0.71452  1.0000
  H   H712      1.0  0.33746  0.41983  0.72133  1.0000
  N   N32       1.0  0.30787  0.32240  0.66125  1.0000
  S   S117      1.0  0.26802  0.41173  0.66073  1.0000
  H   H713      1.0  0.32745  0.26918  0.66677  1.0000
  H   H714      1.0  0.19385  0.35225  0.68106  1.0000
  H   H715      1.0  0.24718  0.24895  0.67426  1.0000
  C   C417      1.0  0.32849  0.26401  0.71501  1.0000
  H   H716      1.0  0.40434  0.32673  0.71760  1.0000
  C   C418      1.0  0.45200  0.29513  0.65963  1.0000
  H   H717      1.0  0.17679  0.24519  0.77436  1.0000
  H   H718      1.0  0.33340  0.40179  0.71510  1.0000
  C   C419      1.0  0.22731  0.34455  0.66503  1.0000
  H   H719      1.0  0.35468  0.39495  0.69326  1.0000
  H   H720      1.0  0.45264  0.26387  0.69745  1.0000
  C   C420      1.0  0.42783  0.30760  0.71272  1.0000
  C   C421      1.0  0.31427  0.26098  0.71054  1.0000
  H   H721      1.0  0.19931  0.37741  0.65928  1.0000
  H   H722      1.0  0.36445  0.41441  0.70316  1.0000
  Fe  Fe62      1.0  0.25089  0.28876  0.73106  1.0000
  C   C422      1.0  0.32764  0.26791  0.68023  1.0000
  C   C423      1.0  0.36261  0.42475  0.69155  1.0000
  H   H723      1.0  0.37064  0.38540  0.66706  1.0000
  H   H724      1.0  0.33065  0.32253  0.76631  1.0000
  C   C424      1.0  0.34199  0.26962  0.70211  1.0000
  H   H725      1.0  0.29702  0.31504  0.76925  1.0000
  S   S118      1.0  0.25647  0.30945  0.74115  1.0000
  C   C425      1.0  0.30825  0.30787  0.65285  1.0000
  H   H726      1.0  0.31667  0.33883  0.72769  1.0000
  C   C426      1.0  0.29552  0.34145  0.75587  1.0000
  H   H727      1.0  0.30106  0.29999  0.70438  1.0000
  C   C427      1.0  0.27436  0.32994  0.66564  1.0000
  S   S119      1.0  0.36277  0.31561  0.67365  1.0000
  H   H728      1.0  0.29934  0.29934  0.66067  1.0000
  S   S120      1.0  0.35898  0.27461  0.70801  1.0000
  H   H729      1.0  0.32941  0.30861  0.70855  1.0000
  C   C428      1.0  0.33034  0.32027  0.71244  1.0000
  C   C429      1.0  0.29167  0.33605  0.66081  1.0000
  H   H730      1.0  0.35209  0.27569  0.67467  1.0000
  H   H731      1.0  0.44869  0.33413  0.66913  1.0000
  H   H732      1.0  0.43835  0.30182  0.74499  1.0000
  H   H733      1.0  0.29741  0.45245  0.72232  1.0000
  H   H734      1.0  0.43496  0.28144  0.69544  1.0000
  H   H735      1.0  0.23916  0.31682  0.67156  1.0000
  C   C430      1.0  0.30503  0.29968  0.73910  1.0000
  H   H736      1.0  0.43074  0.31617  0.66463  1.0000
  C   C431      1.0  0.44448  0.31146  0.66335  1.0000
  H   H737      1.0  0.37033  0.44201  0.70313  1.0000
  S   S121      1.0  0.22650  0.27870  0.73654  1.0000
  Fe  Fe63      1.0  0.41075  0.29302  0.66368  1.0000
  S   S122      1.0  0.21246  0.28863  0.69173  1.0000
  Fe  Fe64      1.0  0.37530  0.28920  0.68551  1.0000
  H   H738      1.0  0.26564  0.33601  0.67631  1.0000
  C   C432      1.0  0.24603  0.48488  0.69926  1.0000
  H   H739      1.0  0.29391  0.30498  0.73252  1.0000
  H   H740      1.0  0.17976  0.33930  0.68127  1.0000
  C   C433      1.0  0.29624  0.30671  0.69244  1.0000
  C   C434      1.0  0.45551  0.31252  0.71397  1.0000
  H   H741      1.0  0.29278  0.29671  0.68793  1.0000
  C   C435      1.0  0.41680  0.32218  0.72199  1.0000
  H   H742      1.0  0.41369  0.31774  0.73622  1.0000
  H   H743      1.0  0.28453  0.31641  0.69625  1.0000
  H   H744      1.0  0.32293  0.30580  0.67950  1.0000
  C   C436      1.0  0.34161  0.27153  0.68469  1.0000
  H   H745      1.0  0.31609  0.41872  0.72105  1.0000
  C   C437      1.0  0.36878  0.39929  0.66714  1.0000
  H   H746      1.0  0.33156  0.33982  0.67017  1.0000
  S   S123      1.0  0.31700  0.47923  0.71239  1.0000
  C   C438      1.0  0.35975  0.44227  0.69681  1.0000
  N   N33       1.0  0.34881  0.42252  0.68363  1.0000
  H   H747      1.0  0.42298  0.33351  0.71855  1.0000
  C   C439      1.0  0.31047  0.31527  0.67951  1.0000
  H   H748      1.0  0.25845  0.47544  0.69966  1.0000
  H   H749      1.0  0.43013  0.31312  0.69857  1.0000
  H   H750      1.0  0.31019  0.27827  0.76109  1.0000
  H   H751      1.0  0.45514  0.28455  0.74058  1.0000
  C   C440      1.0  0.33133  0.42586  0.69531  1.0000
  H   H752      1.0  0.32709  0.43975  0.69554  1.0000
  H   H753      1.0  0.44994  0.32207  0.72250  1.0000
  C   C441      1.0  0.31379  0.26299  0.69315  1.0000
  C   C442      1.0  0.22016  0.28638  0.67015  1.0000
  C   C443      1.0  0.32979  0.41588  0.71421  1.0000
  H   H754      1.0  0.31479  0.35495  0.66062  1.0000
  S   S124      1.0  0.48435  0.32743  0.67081  1.0000
  H   H755      1.0  0.23180  0.24366  0.79344  1.0000
  H   H756      1.0  0.29063  0.34483  0.66951  1.0000
  S   S125      1.0  0.38979  0.28172  0.66020  1.0000
  H   H757      1.0  0.19481  0.28847  0.66584  1.0000
  H   H758      1.0  0.34753  0.44514  0.70627  1.0000
  C   C444      1.0  0.35269  0.40423  0.68105  1.0000
  H   H759      1.0  0.35540  0.35557  0.67311  1.0000
  S   S126      1.0  0.29579  0.25998  0.68728  1.0000
  S   S127      1.0  0.26795  0.26259  0.73511  1.0000
  H   H760      1.0  0.23935  0.48469  0.71299  1.0000
  C   C445      1.0  0.20844  0.28701  0.66010  1.0000
  C   C446      1.0  0.18799  0.34817  0.67241  1.0000
  C   C447      1.0  0.44369  0.27387  0.70427  1.0000
  H   H761      1.0  0.46483  0.27634  0.71396  1.0000
  H   H762      1.0  0.21866  0.32346  0.68570  1.0000
  H   H763      1.0  0.20336  0.32443  0.66514  1.0000
  C   C448      1.0  0.23081  0.32734  0.67789  1.0000
  C   C449      1.0  0.20438  0.23776  0.76608  1.0000
  H   H764      1.0  0.32894  0.26215  0.72849  1.0000
  S   S128      1.0  0.27783  0.45254  0.67038  1.0000
  H   H765      1.0  0.34153  0.40124  0.67779  1.0000
  H   H766      1.0  0.42475  0.27928  0.75879  1.0000
  S   S129      1.0  0.24855  0.25256  0.70963  1.0000
  C   C450      1.0  0.32643  0.34487  0.65822  1.0000
  H   H767      1.0  0.30387  0.25675  0.72057  1.0000
  H   H768      1.0  0.24111  0.47573  0.67794  1.0000
  H   H769      1.0  0.43621  0.26709  0.71615  1.0000
  H   H770      1.0  0.26797  0.33436  0.65440  1.0000
  C   C451      1.0  0.44249  0.29151  0.73727  1.0000
  H   H771      1.0  0.30849  0.24689  0.65433  1.0000
  H   H772      1.0  0.47576  0.27654  0.65526  1.0000
  H   H773      1.0  0.36164  0.43437  0.65826  1.0000
  C   C452      1.0  0.20118  0.33843  0.65913  1.0000
  C   C453      1.0  0.47460  0.30600  0.71552  1.0000
  H   H774      1.0  0.17960  0.35948  0.66586  1.0000
  H   H775      1.0  0.36021  0.45309  0.68545  1.0000
  H   H776      1.0  0.22033  0.35426  0.67302  1.0000
  H   H777      1.0  0.37532  0.42333  0.68242  1.0000
  C   C454      1.0  0.34854  0.43529  0.66672  1.0000
  H   H778      1.0  0.20706  0.24388  0.81683  1.0000
  H   H779      1.0  0.46090  0.29117  0.69476  1.0000
  H   H780      1.0  0.43761  0.26521  0.74443  1.0000
  H   H781      1.0  0.32228  0.43771  0.66284  1.0000
  H   H782      1.0  0.29862  0.47814  0.66023  1.0000
  H   H783      1.0  0.34475  0.44872  0.66893  1.0000
  C   C455      1.0  0.45433  0.28519  0.70779  1.0000
  H   H784      1.0  0.47604  0.29920  0.72879  1.0000
  H   H785      1.0  0.27068  0.25841  0.65698  1.0000
  C   C456      1.0  0.23506  0.47727  0.69142  1.0000
  H   H786      1.0  0.33823  0.42119  0.65303  1.0000
  H   H787      1.0  0.23727  0.23942  0.66255  1.0000
  H   H788      1.0  0.22166  0.37946  0.65264  1.0000
  H   H789      1.0  0.19159  0.72174  0.22901  1.0000
  C   C457      1.0  0.18787  0.69886  0.22170  1.0000
  H   H790      1.0  0.17235  0.71203  0.25227  1.0000
  H   H791      1.0  0.20079  0.66719  0.27356  1.0000
  H   H792      1.0  0.14748  0.69188  0.23167  1.0000
  H   H793      1.0  0.18370  0.66095  0.26853  1.0000
  Fe  Fe65      1.0  0.27366  0.65657  0.31359  1.0000
  H   H794      1.0  0.18284  0.66653  0.23114  1.0000
  H   H795      1.0  0.15253  0.67064  0.22743  1.0000
  H   H796      1.0  0.17788  0.70580  0.21398  1.0000
  H   H797      1.0  0.18002  0.68054  0.27686  1.0000
  C   C458      1.0  0.20883  0.71724  0.26320  1.0000
  H   H798      1.0  0.19959  0.69292  0.25130  1.0000
  S   S130      1.0  0.14446  0.72646  0.20735  1.0000
  H   H799      1.0  0.08552  0.73608  0.20828  1.0000
  S   S131      1.0  0.25790  0.68349  0.31182  1.0000
  H   H800      1.0  0.16690  0.66840  0.24993  1.0000
  N   N34       1.0  0.17971  0.69031  0.23961  1.0000
  S   S132      1.0  0.23276  0.68992  0.27526  1.0000
  C   C459      1.0  0.18208  0.70967  0.29114  1.0000
  H   H801      1.0  0.20144  0.71947  0.20730  1.0000
  C   C460      1.0  0.16617  0.70380  0.24789  1.0000
  H   H802      1.0  0.15788  0.70705  0.18049  1.0000
  C   C461      1.0  0.15816  0.68185  0.22670  1.0000
  C   C462      1.0  0.19858  0.69911  0.29043  1.0000
  C   C463      1.0  0.18893  0.67227  0.26813  1.0000
  S   S133      1.0  0.30254  0.64891  0.30618  1.0000
  C   C464      1.0  0.15218  0.69749  0.26337  1.0000
  H   H803      1.0  0.19652  0.68907  0.21434  1.0000
  H   H804      1.0  0.16338  0.68657  0.21281  1.0000
  H   H805      1.0  0.13942  0.70112  0.25964  1.0000
  H   H806      1.0  0.15908  0.71282  0.23815  1.0000
  C   C465      1.0  0.19387  0.68267  0.24969  1.0000
  C   C466      1.0  0.16194  0.72551  0.15652  1.0000
  C   C467      1.0  0.15122  0.73297  0.18489  1.0000
  H   H807      1.0  0.15465  0.68360  0.26904  1.0000
  S   S134      1.0  0.25805  0.64774  0.29987  1.0000
  C   C468      1.0  0.21202  0.70295  0.27653  1.0000
  H   H808      1.0  0.20463  0.67413  0.24245  1.0000
  H   H809      1.0  0.15074  0.70431  0.27397  1.0000
  C   C469      1.0  0.17237  0.67606  0.23742  1.0000
  H   H810      1.0  0.10727  0.72630  0.19826  1.0000
  H   H811      1.0  0.20087  0.68787  0.30051  1.0000
  C   C470      1.0  0.15707  0.72055  0.17456  1.0000
  C   C471      1.0  0.19232  0.72781  0.26390  1.0000
  Fe  Fe66      1.0  0.24101  0.67400  0.29994  1.0000
  H   H812      1.0  0.32922  0.60951  0.29952  1.0000
  H   H813      1.0  0.16663  0.71583  0.14862  1.0000
  H   H814      1.0  0.20285  0.73167  0.29570  1.0000
  C   C472      1.0  0.19857  0.71221  0.22084  1.0000
  H   H815      1.0  0.33825  0.63776  0.30752  1.0000
  H   H816      1.0  0.28761  0.58309  0.31010  1.0000
  H   H817      1.0  0.17169  0.70660  0.30189  1.0000
  H   H818      1.0  0.21118  0.70587  0.22449  1.0000
  H   H819      1.0  0.33895  0.58858  0.30977  1.0000
  C   C473      1.0  0.09925  0.73702  0.20453  1.0000
  S   S135      1.0  0.15830  0.73738  0.27966  1.0000
  H   H820      1.0  0.22703  0.70906  0.30305  1.0000
  C   C474      1.0  0.22764  0.72268  0.30179  1.0000
  H   H821      1.0  0.21922  0.72021  0.25239  1.0000
  H   H822      1.0  0.19977  0.73399  0.98703  1.0000
  C   C475      1.0  0.33192  0.60152  0.31211  1.0000
  H   H823      1.0  0.26474  0.60930  0.31298  1.0000
  H   H824      1.0  0.23583  0.72349  0.31026  1.0000
  H   H825      1.0  0.23429  0.72695  0.28822  1.0000
  H   H826      1.0  0.41881  0.59882  0.31212  1.0000
  H   H827      1.0  0.43413  0.57969  0.30831  1.0000
  H   H828      1.0  0.07484  0.73595  0.18695  1.0000
  C   C476      1.0  0.17893  0.72408  0.27794  1.0000
  H   H829      1.0  0.34045  0.60750  0.31625  1.0000
  H   H830      1.0  0.10354  0.73519  0.21684  1.0000
  H   H831      1.0  0.17531  0.72918  0.31626  1.0000
  H   H832      1.0  0.10443  0.73338  0.17104  1.0000
  C   C477      1.0  0.20942  0.73398  0.30501  1.0000
  C   C478      1.0  0.42483  0.58584  0.31858  1.0000
  C   C479      1.0  0.33186  0.64404  0.31829  1.0000
  Fe  Fe67      1.0  0.29745  0.64824  0.56319  1.0000
  S   S136      1.0  0.27329  0.64663  0.58352  1.0000
  S   S137      1.0  0.29896  0.65485  0.53434  1.0000
  Fe  Fe68      1.0  0.32015  0.63910  0.58968  1.0000
  S   S138      1.0  0.29800  0.63645  0.61232  1.0000
  S   S139      1.0  0.34761  0.63374  0.59268  1.0000
  Fe  Fe69      1.0  0.28922  0.62289  0.59660  1.0000
  S   S140      1.0  0.27792  0.59969  0.60998  1.0000
  Fe  Fe70      1.0  0.28416  0.66041  0.59740  1.0000
  S   S141      1.0  0.26626  0.68250  0.60854  1.0000
  S   S142      1.0  0.31260  0.62327  0.57520  1.0000
  S   S143      1.0  0.30703  0.66432  0.57582  1.0000
  Fe  Fe71      1.0  0.25349  0.62771  0.47923  1.0000
  S   S144      1.0  0.27982  0.62968  0.46320  1.0000
  S   S145      1.0  0.24295  0.63782  0.50394  1.0000
  Fe  Fe72      1.0  0.24741  0.60570  0.45711  1.0000
  S   S146      1.0  0.27335  0.60573  0.43944  1.0000
  S   S147      1.0  0.22774  0.59176  0.45534  1.0000
  Fe  Fe73      1.0  0.28306  0.60171  0.46370  1.0000
  S   S148      1.0  0.30657  0.58329  0.47115  1.0000
  Fe  Fe74      1.0  0.26744  0.63375  0.44057  1.0000
  S   S149      1.0  0.27607  0.65257  0.41665  1.0000
  S   S150      1.0  0.25762  0.59923  0.48141  1.0000
  S   S151      1.0  0.24066  0.63421  0.45646  1.0000
  Fe  Fe75      1.0  0.29254  0.53277  0.35862  1.0000
  S   S152      1.0  0.31495  0.51199  0.36572  1.0000
  N   N35       1.0  0.32774  0.65643  0.41502  1.0000
  Fe  Fe76      1.0  0.27067  0.52768  0.39465  1.0000
  H   H833      1.0  0.32211  0.59993  0.64818  1.0000
  S   S153      1.0  0.24442  0.53372  0.41162  1.0000
  Fe  Fe77      1.0  0.30961  0.52360  0.38913  1.0000
  S   S154      1.0  0.32932  0.52815  0.40137  1.0000
  C   C480      1.0  0.26037  0.69735  0.56669  1.0000
  S   S155      1.0  0.28871  0.54558  0.38092  1.0000
  S   S156      1.0  0.27269  0.51662  0.37156  1.0000
  Fe  Fe78      1.0  0.24184  0.67277  0.33718  1.0000
  S   S157      1.0  0.25922  0.64680  0.34004  1.0000
  S   S158      1.0  0.23008  0.68483  0.36051  1.0000
  H   H834      1.0  0.47626  0.67649  0.39300  1.0000
  H   H835      1.0  0.42728  0.55616  0.37998  1.0000
  C   C481      1.0  0.34135  0.64507  0.32992  1.0000
  H   H836      1.0  0.29036  0.70412  0.52873  1.0000
  C   C482      1.0  0.25832  0.72181  0.54096  1.0000
  H   H837      1.0  0.23303  0.51717  0.38979  1.0000
  H   H838      1.0  0.20365  0.49812  0.40373  1.0000
  C   C483      1.0  0.19034  0.70729  0.34953  1.0000
  H   H839      1.0  0.34288  0.58061  0.33937  1.0000
  H   H840      1.0  0.26513  0.67808  0.54423  1.0000
  C   C484      1.0  0.23291  0.48773  0.41548  1.0000
  H   H841      1.0  0.46275  0.68166  0.35666  1.0000
  H   H842      1.0  0.48564  0.66964  0.33544  1.0000
  C   C485      1.0  0.31754  0.54576  0.44568  1.0000
  C   C486      1.0  0.26064  0.69195  0.53872  1.0000
  S   S159      1.0  0.47135  0.64269  0.39754  1.0000
  C   C487      1.0  0.31840  0.56101  0.63680  1.0000
  Fe  Fe79      1.0  0.38175  0.59599  0.36163  1.0000
  S   S160      1.0  0.35926  0.60908  0.37910  1.0000
  C   C488      1.0  0.27568  0.56750  0.33335  1.0000
  Fe  Fe80      1.0  0.40500  0.61965  0.36126  1.0000
  S   S161      1.0  0.38462  0.63495  0.37870  1.0000
  H   H843      1.0  0.30775  0.59300  0.32087  1.0000
  Fe  Fe81      1.0  0.37869  0.60943  0.39377  1.0000
  S   S162      1.0  0.37521  0.60281  0.42268  1.0000
  Fe  Fe82      1.0  0.36668  0.63353  0.36269  1.0000
  H   H844      1.0  0.30108  0.53538  0.42548  1.0000
  S   S163      1.0  0.40074  0.59409  0.37778  1.0000
  H   H845      1.0  0.19325  0.69305  0.35381  1.0000
  H   H846      1.0  0.29104  0.70627  0.56569  1.0000
  H   H847      1.0  0.48306  0.63346  0.36368  1.0000
  H   H848      1.0  0.22591  0.72110  0.34043  1.0000
  H   H849      1.0  0.30704  0.60250  0.37798  1.0000
  C   C489      1.0  0.46081  0.63683  0.38431  1.0000
  C   C490      1.0  0.44321  0.63640  0.38991  1.0000
  C   C491      1.0  0.43433  0.63226  0.37942  1.0000
  H   H850      1.0  0.35609  0.64948  0.43245  1.0000
  H   H851      1.0  0.20207  0.63917  0.41807  1.0000
  H   H852      1.0  0.30019  0.52222  0.47244  1.0000
  H   H853      1.0  0.43645  0.63915  0.40247  1.0000
  H   H854      1.0  0.42080  0.63182  0.38393  1.0000
  H   H855      1.0  0.20905  0.65269  0.38854  1.0000
  H   H856      1.0  0.44872  0.67532  0.38437  1.0000
  H   H857      1.0  0.26728  0.68396  0.57095  1.0000
  H   H858      1.0  0.29252  0.55256  0.47301  1.0000
  H   H859      1.0  0.26015  0.68702  0.51394  1.0000
  H   H860      1.0  0.24306  0.63217  0.61082  1.0000
  H   H861      1.0  0.33364  0.60952  0.34380  1.0000
  C   C492      1.0  0.31572  0.66150  0.34527  1.0000
  S   S164      1.0  0.34526  0.65619  0.35740  1.0000
  H   H862      1.0  0.35118  0.65219  0.39547  1.0000
  C   C493      1.0  0.35959  0.65198  0.41819  1.0000
  H   H863      1.0  0.46035  0.53381  0.34286  1.0000
  H   H864      1.0  0.30951  0.66860  0.35548  1.0000
  H   H865      1.0  0.22075  0.64978  0.36709  1.0000
  C   C494      1.0  0.34410  0.54028  0.38741  1.0000
  C   C495      1.0  0.35088  0.53798  0.37042  1.0000
  C   C496      1.0  0.36276  0.54776  0.35947  1.0000
  C   C497      1.0  0.36736  0.56029  0.36529  1.0000
  C   C498      1.0  0.36080  0.56237  0.38239  1.0000
  C   C499      1.0  0.34934  0.55224  0.39349  1.0000
  H   H866      1.0  0.34711  0.52853  0.36577  1.0000
  H   H867      1.0  0.22584  0.50115  0.41619  1.0000
  H   H868      1.0  0.36467  0.57166  0.38714  1.0000
  H   H869      1.0  0.34439  0.55386  0.40672  1.0000
  H   H870      1.0  0.46736  0.58926  0.35987  1.0000
  C   C500      1.0  0.26140  0.56697  0.34711  1.0000
  C   C501      1.0  0.24809  0.58154  0.34827  1.0000
  H   H871      1.0  0.25027  0.48904  0.38090  1.0000
  H   H872      1.0  0.33057  0.57264  0.35964  1.0000
  H   H873      1.0  0.37229  0.64339  0.41474  1.0000
  H   H874      1.0  0.26047  0.55526  0.35672  1.0000
  H   H875      1.0  0.23687  0.58091  0.35866  1.0000
  H   H876      1.0  0.36163  0.66537  0.41330  1.0000
  S   S165      1.0  0.33425  0.54680  0.64723  1.0000
  C   C502      1.0  0.44294  0.62889  0.36310  1.0000
  C   C503      1.0  0.23328  0.57563  0.44304  1.0000
  C   C504      1.0  0.24863  0.57352  0.43058  1.0000
  C   C505      1.0  0.25213  0.56076  0.42067  1.0000
  C   C506      1.0  0.24048  0.54998  0.42345  1.0000
  C   C507      1.0  0.22515  0.55224  0.43580  1.0000
  C   C508      1.0  0.22153  0.56506  0.44548  1.0000
  H   H877      1.0  0.25759  0.58187  0.42840  1.0000
  H   H878      1.0  0.26370  0.55933  0.41077  1.0000
  H   H879      1.0  0.21600  0.54407  0.43790  1.0000
  H   H880      1.0  0.20959  0.56673  0.45497  1.0000
  C   C509      1.0  0.32563  0.58772  0.45685  1.0000
  C   C510      1.0  0.34092  0.58302  0.46299  1.0000
  C   C511      1.0  0.35608  0.58757  0.45227  1.0000
  C   C512      1.0  0.35624  0.59613  0.43509  1.0000
  C   C513      1.0  0.34115  0.59996  0.42860  1.0000
  C   C514      1.0  0.32572  0.59606  0.43961  1.0000
  H   H881      1.0  0.34097  0.57628  0.47619  1.0000
  H   H882      1.0  0.36774  0.58447  0.45728  1.0000
  H   H883      1.0  0.34121  0.60636  0.41532  1.0000
  H   H884      1.0  0.31396  0.59952  0.43474  1.0000
  C   C515      1.0  0.26286  0.66112  0.40141  1.0000
  C   C516      1.0  0.27056  0.66327  0.38379  1.0000
  C   C517      1.0  0.26047  0.67044  0.37126  1.0000
  C   C518      1.0  0.24269  0.67608  0.37627  1.0000
  C   C519      1.0  0.23497  0.67433  0.39390  1.0000
  C   C520      1.0  0.24502  0.66658  0.40650  1.0000
  H   H885      1.0  0.28436  0.65928  0.37978  1.0000
  H   H886      1.0  0.26653  0.67200  0.35768  1.0000
  H   H887      1.0  0.22120  0.67874  0.39782  1.0000
  H   H888      1.0  0.23906  0.66522  0.42010  1.0000
  N   N36       1.0  0.29940  0.54255  0.44954  1.0000
  H   H889      1.0  0.28494  0.61414  0.36128  1.0000
  C   C521      1.0  0.42919  0.54907  0.36948  1.0000
  S   S166      1.0  0.43203  0.62413  0.34947  1.0000
  H   H890      1.0  0.26441  0.60639  0.39559  1.0000
  H   H891      1.0  0.31463  0.58938  0.59888  1.0000
  C   C522      1.0  0.35061  0.64340  0.60826  1.0000
  H   H892      1.0  0.30959  0.63443  0.40458  1.0000
  C   C523      1.0  0.34650  0.64822  0.40967  1.0000
  C   C524      1.0  0.33667  0.65342  0.61761  1.0000
  S   S167      1.0  0.38068  0.57372  0.35083  1.0000
  C   C525      1.0  0.26671  0.69454  0.51887  1.0000
  H   H893      1.0  0.32402  0.65610  0.61465  1.0000
  H   H894      1.0  0.21710  0.63145  0.43245  1.0000
  C   C526      1.0  0.28308  0.65028  0.52621  1.0000
  C   C527      1.0  0.28480  0.65298  0.50825  1.0000
  C   C528      1.0  0.27240  0.64943  0.50132  1.0000
  C   C529      1.0  0.25813  0.64327  0.51231  1.0000
  C   C530      1.0  0.25620  0.64093  0.53027  1.0000
  C   C531      1.0  0.26877  0.64423  0.53722  1.0000
  H   H895      1.0  0.29579  0.65778  0.49967  1.0000
  H   H896      1.0  0.27377  0.65165  0.48747  1.0000
  H   H897      1.0  0.24518  0.63616  0.53882  1.0000
  H   H898      1.0  0.26734  0.64206  0.55108  1.0000
  H   H899      1.0  0.19817  0.65039  0.37318  1.0000
  N   N37       1.0  0.30646  0.59623  0.52347  1.0000
  C   C532      1.0  0.29043  0.60261  0.51592  1.0000
  C   C533      1.0  0.31739  0.60976  0.51618  1.0000
  C   C534      1.0  0.30079  0.59476  0.54281  1.0000
  C   C535      1.0  0.31546  0.57898  0.51886  1.0000
  C   C536      1.0  0.27621  0.59190  0.52322  1.0000
  C   C537      1.0  0.32211  0.61461  0.49625  1.0000
  C   C538      1.0  0.31507  0.58913  0.55335  1.0000
  C   C539      1.0  0.33503  0.57343  0.51867  1.0000
  H   H900      1.0  0.28440  0.61591  0.51774  1.0000
  H   H901      1.0  0.29360  0.60330  0.50168  1.0000
  H   H902      1.0  0.32963  0.60608  0.52081  1.0000
  H   H903      1.0  0.31069  0.62186  0.52088  1.0000
  H   H904      1.0  0.29289  0.60730  0.54588  1.0000
  H   H905      1.0  0.29238  0.58516  0.54855  1.0000
  H   H906      1.0  0.30906  0.56859  0.52769  1.0000
  H   H907      1.0  0.31421  0.57889  0.50562  1.0000
  H   H908      1.0  0.26951  0.59334  0.53659  1.0000
  H   H909      1.0  0.26614  0.59694  0.51532  1.0000
  H   H910      1.0  0.28119  0.57812  0.52262  1.0000
  H   H911      1.0  0.31093  0.62301  0.49094  1.0000
  H   H912      1.0  0.33253  0.62211  0.49231  1.0000
  H   H913      1.0  0.32677  0.60315  0.49023  1.0000
  H   H914      1.0  0.32164  0.57553  0.55332  1.0000
  H   H915      1.0  0.30900  0.58971  0.56709  1.0000
  H   H916      1.0  0.32449  0.59773  0.54915  1.0000
  H   H917      1.0  0.33835  0.55917  0.52252  1.0000
  H   H918      1.0  0.33962  0.57862  0.52748  1.0000
  H   H919      1.0  0.34265  0.57661  0.50533  1.0000
  C   C540      1.0  0.44970  0.68557  0.39049  1.0000
  C   C541      1.0  0.27668  0.58269  0.32086  1.0000
  H   H920      1.0  0.23735  0.68659  0.57036  1.0000
  H   H921      1.0  0.34814  0.63400  0.41200  1.0000
  N   N38       1.0  0.47664  0.69381  0.36797  1.0000
  H   H922      1.0  0.38402  0.55405  0.63151  1.0000
  H   H923      1.0  0.25462  0.62251  0.40886  1.0000
  H   H924      1.0  0.28479  0.51531  0.44447  1.0000
  H   H925      1.0  0.42390  0.59631  0.34041  1.0000
  H   H926      1.0  0.46768  0.69835  0.39425  1.0000
  H   H927      1.0  0.33011  0.52545  0.46478  1.0000
  C   C542      1.0  0.42740  0.56166  0.35215  1.0000
  C   C543      1.0  0.26373  0.59751  0.32247  1.0000
  H   H928      1.0  0.39540  0.58601  0.63283  1.0000
  N   N39       1.0  0.26617  0.70324  0.54745  1.0000
  H   H929      1.0  0.23177  0.65027  0.62032  1.0000
  C   C544      1.0  0.20064  0.71207  0.33093  1.0000
  H   H930      1.0  0.32312  0.61504  0.37292  1.0000
  H   H931      1.0  0.17622  0.71116  0.35038  1.0000
  H   H932      1.0  0.29555  0.57978  0.34870  1.0000
  C   C545      1.0  0.29340  0.58451  0.62014  1.0000
  C   C546      1.0  0.36935  0.64630  0.62568  1.0000
  H   H933      1.0  0.23767  0.69616  0.58753  1.0000
  C   C547      1.0  0.23705  0.63624  0.62338  1.0000
  C   C548      1.0  0.27714  0.67285  0.63972  1.0000
  H   H934      1.0  0.31184  0.51563  0.45271  1.0000
  C   C549      1.0  0.31078  0.58216  0.61178  1.0000
  C   C550      1.0  0.31997  0.60383  0.36999  1.0000
  H   H935      1.0  0.22721  0.57534  0.39165  1.0000
  H   H936      1.0  0.26871  0.62753  0.38855  1.0000
  C   C551      1.0  0.22964  0.51135  0.38059  1.0000
  H   H937      1.0  0.41480  0.57057  0.35511  1.0000
  H   H938      1.0  0.46725  0.62680  0.34483  1.0000
  C   C552      1.0  0.32716  0.53968  0.46082  1.0000
  H   H939      1.0  0.32505  0.61824  0.63133  1.0000
  N   N40       1.0  0.31600  0.59372  0.34392  1.0000
  C   C553      1.0  0.32044  0.60740  0.35041  1.0000
  H   H940      1.0  0.32977  0.59239  0.37402  1.0000
  H   H941      1.0  0.22374  0.64327  0.41167  1.0000
  H   H942      1.0  0.32584  0.53935  0.43499  1.0000
  C   C554      1.0  0.33912  0.66006  0.63082  1.0000
  C   C555      1.0  0.28349  0.60449  0.35469  1.0000
  H   H943      1.0  0.24264  0.73698  0.56035  1.0000
  H   H944      1.0  0.31176  0.62009  0.34715  1.0000
  H   H945      1.0  0.44046  0.69757  0.38662  1.0000
  H   H946      1.0  0.28127  0.61093  0.34155  1.0000
  Fe  Fe83      1.0  0.29453  0.49685  0.38094  1.0000
  H   H947      1.0  0.46371  0.72010  0.37007  1.0000
  C   C556      1.0  0.46833  0.68851  0.38679  1.0000
  H   H948      1.0  0.47955  0.54239  0.33236  1.0000
  H   H949      1.0  0.46467  0.56975  0.32287  1.0000
  N   N41       1.0  0.19859  0.73107  0.32314  1.0000
  H   H950      1.0  0.35322  0.57389  0.63350  1.0000
  C   C557      1.0  0.30103  0.56352  0.64527  1.0000
  H   H951      1.0  0.33973  0.54389  0.45645  1.0000
  H   H952      1.0  0.28452  0.66113  0.63560  1.0000
  H   H953      1.0  0.21563  0.58539  0.40927  1.0000
  H   H954      1.0  0.29248  0.66558  0.33564  1.0000
  H   H955      1.0  0.34584  0.61583  0.64817  1.0000
  H   H956      1.0  0.44549  0.68107  0.40466  1.0000
  S   S168      1.0  0.22363  0.66551  0.32527  1.0000
  H   H957      1.0  0.47539  0.69620  0.64458  1.0000
  H   H958      1.0  0.19424  0.71267  0.35876  1.0000
  H   H959      1.0  0.38200  0.64366  0.62867  1.0000
  Fe  Fe84      1.0  0.24227  0.64011  0.32633  1.0000
  C   C558      1.0  0.47601  0.68033  0.35862  1.0000
  S   S169      1.0  0.29109  0.50679  0.40507  1.0000
  C   C559      1.0  0.29903  0.58926  0.35414  1.0000
  H   H960      1.0  0.27170  0.59955  0.36197  1.0000
  H   H961      1.0  0.36746  0.54984  0.65063  1.0000
  C   C560      1.0  0.28508  0.51565  0.45789  1.0000
  C   C561      1.0  0.25609  0.73467  0.55276  1.0000
  H   H962      1.0  0.37783  0.63261  0.60466  1.0000
  C   C562      1.0  0.29398  0.54583  0.43252  1.0000
  C   C563      1.0  0.28791  0.55469  0.46085  1.0000
  C   C564      1.0  0.29663  0.56303  0.42003  1.0000
  C   C565      1.0  0.26864  0.55377  0.46675  1.0000
  H   H963      1.0  0.31762  0.55977  0.44109  1.0000
  H   H964      1.0  0.28034  0.54514  0.43432  1.0000
  C   C566      1.0  0.25098  0.63201  0.63424  1.0000
  H   H965      1.0  0.28876  0.56828  0.45476  1.0000
  H   H966      1.0  0.29105  0.56451  0.40861  1.0000
  H   H967      1.0  0.29021  0.57423  0.42615  1.0000
  H   H968      1.0  0.31052  0.56328  0.41488  1.0000
  H   H969      1.0  0.26627  0.54459  0.47929  1.0000
  H   H970      1.0  0.26321  0.55042  0.45732  1.0000
  H   H971      1.0  0.26092  0.56671  0.46846  1.0000
  H   H972      1.0  0.31377  0.64547  0.38275  1.0000
  C   C567      1.0  0.38840  0.59727  0.63875  1.0000
  N   N42       1.0  0.22819  0.61756  0.39339  1.0000
  C   C568      1.0  0.23454  0.59944  0.39016  1.0000
  C   C569      1.0  0.24318  0.62665  0.38611  1.0000
  C   C570      1.0  0.21352  0.62610  0.38403  1.0000
  C   C571      1.0  0.22205  0.61653  0.41258  1.0000
  C   C572      1.0  0.22090  0.58806  0.39515  1.0000
  C   C573      1.0  0.25845  0.62013  0.39548  1.0000
  C   C574      1.0  0.21033  0.64587  0.37808  1.0000
  C   C575      1.0  0.21579  0.63369  0.41881  1.0000
  H   H973      1.0  0.24048  0.59971  0.37621  1.0000
  H   H974      1.0  0.24486  0.59224  0.39728  1.0000
  H   H975      1.0  0.23929  0.64060  0.38609  1.0000
  H   H976      1.0  0.24828  0.62584  0.37228  1.0000
  H   H977      1.0  0.21555  0.62120  0.37198  1.0000
  H   H978      1.0  0.20115  0.62275  0.39206  1.0000
  H   H979      1.0  0.21102  0.60982  0.41769  1.0000
  H   H980      1.0  0.23203  0.60834  0.41976  1.0000
  H   H981      1.0  0.21027  0.59357  0.38804  1.0000
  H   H982      1.0  0.28743  0.50201  0.46485  1.0000
  H   H983      1.0  0.25758  0.49583  0.40279  1.0000
  C   C576      1.0  0.31418  0.65121  0.32046  1.0000
  H   H984      1.0  0.27225  0.52173  0.46441  1.0000
  C   C577      1.0  0.24939  0.59693  0.33617  1.0000
  H   H985      1.0  0.34371  0.68312  0.39534  1.0000
  C   C578      1.0  0.35541  0.65634  0.63500  1.0000
  H   H986      1.0  0.47925  0.66722  0.36661  1.0000
  H   H987      1.0  0.33989  0.55311  0.33749  1.0000
  C   C579      1.0  0.28849  0.57508  0.63682  1.0000
  H   H988      1.0  0.44161  0.53975  0.36876  1.0000
  N   N43       1.0  0.35844  0.58893  0.64904  1.0000
  H   H989      1.0  0.46841  0.71848  0.33283  1.0000
  C   C580      1.0  0.36700  0.64016  0.61206  1.0000
  C   C581      1.0  0.30607  0.65985  0.33405  1.0000
  C   C582      1.0  0.31885  0.65872  0.40029  1.0000
  H   H990      1.0  0.21424  0.70575  0.33122  1.0000
  H   H991      1.0  0.48831  0.71752  0.33894  1.0000
  H   H992      1.0  0.32013  0.54544  0.47218  1.0000
  H   H993      1.0  0.36805  0.54594  0.34633  1.0000
  H   H994      1.0  0.28075  0.68946  0.51504  1.0000
  C   C583      1.0  0.44833  0.57688  0.35638  1.0000
  C   C584      1.0  0.29980  0.52395  0.45856  1.0000
  C   C585      1.0  0.33132  0.60493  0.63658  1.0000
  H   H995      1.0  0.30474  0.65115  0.43387  1.0000
  H   H996      1.0  0.22652  0.62909  0.62966  1.0000
  C   C586      1.0  0.33127  0.68797  0.40364  1.0000
  C   C587      1.0  0.46949  0.63321  0.36809  1.0000
  C   C588      1.0  0.32532  0.67393  0.41911  1.0000
  H   H997      1.0  0.45347  0.71001  0.36031  1.0000
  H   H998      1.0  0.38398  0.60815  0.62868  1.0000
  C   C589      1.0  0.36446  0.57685  0.63658  1.0000
  H   H999      1.0  0.27507  0.57693  0.64334  1.0000
  C   C590      1.0  0.31868  0.64513  0.43050  1.0000
  H   H1000     1.0  0.33285  0.69885  0.40848  1.0000
  C   C591      1.0  0.31851  0.64203  0.39498  1.0000
  C   C592      1.0  0.34852  0.60565  0.64049  1.0000
  C   C593      1.0  0.37565  0.55918  0.64289  1.0000
  H   H1001     1.0  0.33206  0.67334  0.42946  1.0000
  H   H1002     1.0  0.45215  0.56584  0.36664  1.0000
  H   H1003     1.0  0.26382  0.70494  0.57426  1.0000
  H   H1004     1.0  0.35641  0.61062  0.62783  1.0000
  S   S170      1.0  0.23313  0.61532  0.33865  1.0000
  C   C594      1.0  0.46052  0.62941  0.35744  1.0000
  H   H1005     1.0  0.29997  0.58268  0.36766  1.0000
  H   H1006     1.0  0.41878  0.54157  0.37330  1.0000
  H   H1007     1.0  0.37129  0.58293  0.62369  1.0000
  C   C595      1.0  0.46419  0.58543  0.34912  1.0000
  C   C596      1.0  0.32988  0.57773  0.34581  1.0000
  H   H1008     1.0  0.32140  0.69322  0.39551  1.0000
  H   H1009     1.0  0.31899  0.63256  0.42762  1.0000
  H   H1010     1.0  0.31796  0.55574  0.34874  1.0000
  H   H1011     1.0  0.31713  0.63353  0.45767  1.0000
  H   H1012     1.0  0.26341  0.70818  0.51230  1.0000
  H   H1013     1.0  0.24634  0.69398  0.54118  1.0000
  H   H1014     1.0  0.32685  0.65190  0.45139  1.0000
  C   C597      1.0  0.29442  0.70936  0.55136  1.0000
  S   S171      1.0  0.38757  0.62047  0.34370  1.0000
  H   H1015     1.0  0.32834  0.66795  0.63791  1.0000
  S   S172      1.0  0.29274  0.54957  0.33225  1.0000
  C   C598      1.0  0.24089  0.69763  0.57322  1.0000
  H   H1016     1.0  0.33662  0.56822  0.61337  1.0000
  C   C599      1.0  0.33333  0.65398  0.34332  1.0000
  H   H1017     1.0  0.32519  0.66669  0.38835  1.0000
  C   C600      1.0  0.32595  0.64048  0.44706  1.0000
  H   H1018     1.0  0.25752  0.61852  0.63395  1.0000
  H   H1019     1.0  0.26099  0.63969  0.62703  1.0000
  H   H1020     1.0  0.43799  0.58587  0.36344  1.0000
  H   H1021     1.0  0.33152  0.63389  0.39255  1.0000
  H   H1022     1.0  0.33856  0.63134  0.44549  1.0000
  H   H1023     1.0  0.29113  0.68613  0.54623  1.0000
  H   H1024     1.0  0.30536  0.66603  0.40317  1.0000
  H   H1025     1.0  0.31143  0.67883  0.42440  1.0000
  C   C601      1.0  0.28562  0.70014  0.54289  1.0000
  C   C602      1.0  0.43378  0.58803  0.33217  1.0000
  H   H1026     1.0  0.30668  0.61384  0.32355  1.0000
  C   C603      1.0  0.32322  0.57018  0.61998  1.0000
  C   C604      1.0  0.25831  0.70071  0.63407  1.0000
  C   C605      1.0  0.26767  0.68550  0.62869  1.0000
  H   H1027     1.0  0.33344  0.59746  0.62642  1.0000
  H   H1028     1.0  0.39786  0.60118  0.64382  1.0000
  H   H1029     1.0  0.21562  0.51527  0.38088  1.0000
  H   H1030     1.0  0.25095  0.71052  0.62564  1.0000
  C   C606      1.0  0.46651  0.71118  0.36097  1.0000
  H   H1031     1.0  0.42546  0.55421  0.34339  1.0000
  C   C607      1.0  0.31468  0.60061  0.32523  1.0000
  H   H1032     1.0  0.23617  0.51710  0.36744  1.0000
  C   C608      1.0  0.23749  0.65407  0.65123  1.0000
  H   H1033     1.0  0.46182  0.59736  0.33929  1.0000
  S   S173      1.0  0.35817  0.66502  0.65139  1.0000
  H   H1034     1.0  0.47575  0.57643  0.34373  1.0000
  N   N44       1.0  0.44159  0.57164  0.34331  1.0000
  H   H1035     1.0  0.46885  0.54605  0.35308  1.0000
  H   H1036     1.0  0.38453  0.55983  0.65074  1.0000
  H   H1037     1.0  0.24515  0.72275  0.53890  1.0000
  H   H1038     1.0  0.23285  0.70985  0.56774  1.0000
  H   H1039     1.0  0.45027  0.55733  0.32272  1.0000
  H   H1040     1.0  0.30861  0.70481  0.54777  1.0000
  C   C609      1.0  0.23595  0.49162  0.38367  1.0000
  H   H1041     1.0  0.19682  0.70532  0.32273  1.0000
  H   H1042     1.0  0.24663  0.66170  0.64187  1.0000
  C   C610      1.0  0.46650  0.54501  0.34069  1.0000
  C   C611      1.0  0.47412  0.72075  0.34280  1.0000
  C   C612      1.0  0.32755  0.56259  0.33916  1.0000
  H   H1043     1.0  0.35498  0.63948  0.32816  1.0000
  H   H1044     1.0  0.31908  0.71158  0.64702  1.0000
  H   H1045     1.0  0.44358  0.59589  0.32491  1.0000
  C   C613      1.0  0.45572  0.56155  0.33172  1.0000
  C   C614      1.0  0.22077  0.73510  0.33889  1.0000
  H   H1046     1.0  0.28087  0.61474  0.64551  1.0000
  C   C615      1.0  0.25856  0.70346  0.65023  1.0000
  H   H1047     1.0  0.49121  0.72036  0.37209  1.0000
  H   H1048     1.0  0.29188  0.72345  0.54636  1.0000
  H   H1049     1.0  0.41425  0.57866  0.32446  1.0000
  H   H1050     1.0  0.48612  0.69189  0.33130  1.0000
  C   C616      1.0  0.48820  0.67971  0.34080  1.0000
  H   H1051     1.0  0.26595  0.72684  0.52805  1.0000
  H   H1052     1.0  0.22545  0.65798  0.64608  1.0000
  H   H1053     1.0  0.32368  0.56650  0.32649  1.0000
  H   H1054     1.0  0.47096  0.73481  0.34252  1.0000
  H   H1055     1.0  0.26517  0.73116  0.56157  1.0000
  H   H1056     1.0  0.25343  0.49140  0.42572  1.0000
  H   H1057     1.0  0.27036  0.51508  0.64676  1.0000
  H   H1058     1.0  0.24234  0.60165  0.65184  1.0000
  N   N45       1.0  0.45537  0.58873  0.69324  1.0000
  S   S174      1.0  0.33884  0.52085  0.69396  1.0000
  Fe  Fe85      1.0  0.28988  0.54160  0.70188  1.0000
  S   S175      1.0  0.26114  0.55067  0.70681  1.0000
  Fe  Fe86      1.0  0.32399  0.53931  0.71129  1.0000
  S   S176      1.0  0.33445  0.55087  0.72764  1.0000
  S   S177      1.0  0.31000  0.55771  0.69157  1.0000
  H   H1059     1.0  0.12047  0.72709  0.85922  1.0000
  Fe  Fe87      1.0  0.25828  0.67619  0.70460  1.0000
  S   S178      1.0  0.23058  0.67408  0.71040  1.0000
  S   S179      1.0  0.26829  0.69503  0.68128  1.0000
  Fe  Fe88      1.0  0.26583  0.65050  0.73661  1.0000
  S   S180      1.0  0.23885  0.64593  0.74497  1.0000
  S   S181      1.0  0.28300  0.63693  0.75551  1.0000
  Fe  Fe89      1.0  0.24114  0.64576  0.71717  1.0000
  S   S182      1.0  0.22801  0.62851  0.71002  1.0000
  Fe  Fe90      1.0  0.23061  0.67456  0.73770  1.0000
  S   S183      1.0  0.20701  0.68654  0.75544  1.0000
  S   S184      1.0  0.26902  0.64772  0.70919  1.0000
  S   S185      1.0  0.25751  0.67929  0.73141  1.0000
  C   C617      1.0  0.30943  0.67961  0.69679  1.0000
  C   C618      1.0  0.27900  0.67883  0.76860  1.0000
  H   H1060     1.0  0.11485  0.70682  0.86196  1.0000
  C   C619      1.0  0.18804  0.73431  0.72717  1.0000
  H   H1061     1.0  0.42873  0.58635  0.70427  1.0000
  S   S186      1.0  0.30258  0.52476  0.72318  1.0000
  H   H1062     1.0  0.43646  0.61154  0.68627  1.0000
  H   H1063     1.0  0.46977  0.57153  0.67563  1.0000
  H   H1064     1.0  0.36917  0.60373  0.66074  1.0000
  H   H1065     1.0  0.24560  0.51591  0.72076  1.0000
  H   H1066     1.0  0.26737  0.64065  0.65721  1.0000
  Fe  Fe91      1.0  0.37565  0.64079  0.70652  1.0000
  S   S187      1.0  0.40164  0.62296  0.70420  1.0000
  S   S188      1.0  0.36019  0.64701  0.73201  1.0000
  Fe  Fe92      1.0  0.40985  0.64262  0.68075  1.0000
  H   H1067     1.0  0.46772  0.60549  0.70078  1.0000
  Fe  Fe93      1.0  0.39227  0.61282  0.68608  1.0000
  S   S189      1.0  0.39829  0.58455  0.68603  1.0000
  S   S190      1.0  0.38471  0.66156  0.68482  1.0000
  S   S191      1.0  0.36557  0.62882  0.69042  1.0000
  C   C620      1.0  0.47414  0.64389  0.70611  1.0000
  C   C621      1.0  0.45632  0.64638  0.71305  1.0000
  C   C622      1.0  0.44456  0.64743  0.70274  1.0000
  C   C623      1.0  0.45061  0.64603  0.68541  1.0000
  C   C624      1.0  0.46842  0.64307  0.67862  1.0000
  C   C625      1.0  0.23301  0.66072  0.66826  1.0000
  H   H1068     1.0  0.45158  0.64794  0.72633  1.0000
  H   H1069     1.0  0.43083  0.64982  0.70807  1.0000
  C   C626      1.0  0.48686  0.58711  0.67615  1.0000
  H   H1070     1.0  0.34735  0.70514  0.70023  1.0000
  C   C627      1.0  0.44066  0.56399  0.69306  1.0000
  H   H1071     1.0  0.47274  0.68751  0.70916  1.0000
  H   H1072     1.0  0.31173  0.67206  0.70962  1.0000
  C   C628      1.0  0.20786  0.70171  0.76684  1.0000
  C   C629      1.0  0.19440  0.70519  0.78089  1.0000
  C   C630      1.0  0.19422  0.71778  0.78986  1.0000
  C   C631      1.0  0.25742  0.50616  0.71752  1.0000
  C   C632      1.0  0.22116  0.72328  0.77092  1.0000
  C   C633      1.0  0.22126  0.71079  0.76184  1.0000
  H   H1073     1.0  0.18404  0.69814  0.78482  1.0000
  H   H1074     1.0  0.47317  0.64191  0.66523  1.0000
  H   H1075     1.0  0.45736  0.61328  0.67544  1.0000
  H   H1076     1.0  0.23154  0.70836  0.75085  1.0000
  C   C634      1.0  0.30458  0.63915  0.74857  1.0000
  C   C635      1.0  0.31368  0.63932  0.76082  1.0000
  C   C636      1.0  0.33074  0.64170  0.75556  1.0000
  C   C637      1.0  0.33900  0.64337  0.73812  1.0000
  C   C638      1.0  0.33003  0.64270  0.72591  1.0000
  C   C639      1.0  0.31275  0.64076  0.73112  1.0000
  H   H1077     1.0  0.30748  0.63789  0.77436  1.0000
  H   H1078     1.0  0.33764  0.64215  0.76505  1.0000
  H   H1079     1.0  0.33622  0.64420  0.71241  1.0000
  H   H1080     1.0  0.30578  0.64047  0.72166  1.0000
  N   N46       1.0  0.24932  0.50261  0.69016  1.0000
  H   H1081     1.0  0.08989  0.71271  0.88505  1.0000
  H   H1082     1.0  0.34300  0.68147  0.67898  1.0000
  N   N47       1.0  0.31825  0.69476  0.69150  1.0000
  C   C640      1.0  0.27308  0.61355  0.65891  1.0000
  C   C641      1.0  0.35254  0.55979  0.71643  1.0000
  C   C642      1.0  0.35463  0.57479  0.72020  1.0000
  C   C643      1.0  0.36876  0.58235  0.71101  1.0000
  C   C644      1.0  0.38109  0.57468  0.69834  1.0000
  C   C645      1.0  0.37929  0.55937  0.69496  1.0000
  C   C646      1.0  0.36487  0.55210  0.70377  1.0000
  H   H1083     1.0  0.34521  0.58074  0.73005  1.0000
  H   H1084     1.0  0.37019  0.59403  0.71388  1.0000
  C   C647      1.0  0.26252  0.68721  0.78010  1.0000
  H   H1085     1.0  0.36342  0.54041  0.70095  1.0000
  C   C648      1.0  0.25268  0.57251  0.70730  1.0000
  C   C649      1.0  0.26327  0.58453  0.70352  1.0000
  C   C650      1.0  0.25596  0.60177  0.70490  1.0000
  C   C651      1.0  0.23801  0.60700  0.70946  1.0000
  C   C652      1.0  0.22749  0.59506  0.71264  1.0000
  C   C653      1.0  0.23480  0.57785  0.71175  1.0000
  H   H1086     1.0  0.27705  0.58054  0.69959  1.0000
  H   H1087     1.0  0.26414  0.61101  0.70220  1.0000
  H   H1088     1.0  0.21361  0.59910  0.71596  1.0000
  H   H1089     1.0  0.22654  0.56864  0.71455  1.0000
  C   C654      1.0  0.23062  0.65657  0.79087  1.0000
  H   H1090     1.0  0.22792  0.67484  0.66551  1.0000
  H   H1091     1.0  0.26795  0.50969  0.72132  1.0000
  H   H1092     1.0  0.44883  0.60962  0.72785  1.0000
  H   H1093     1.0  0.25476  0.69708  0.77141  1.0000
  H   H1094     1.0  0.23152  0.73032  0.76703  1.0000
  H   H1095     1.0  0.34845  0.59583  0.68350  1.0000
  H   H1096     1.0  0.23528  0.64533  0.80054  1.0000
  H   H1097     1.0  0.27699  0.67722  0.80822  1.0000
  H   H1098     1.0  0.25603  0.49323  0.72543  1.0000
  C   C655      1.0  0.31352  0.70659  0.67516  1.0000
  H   H1099     1.0  0.31400  0.48876  0.67657  1.0000
  H   H1100     1.0  0.46463  0.72006  0.65774  1.0000
  C   C656      1.0  0.23928  0.69955  0.80997  1.0000
  H   H1101     1.0  0.28230  0.61108  0.66755  1.0000
  H   H1102     1.0  0.22589  0.51384  0.70672  1.0000
  N   N48       1.0  0.25155  0.67503  0.79224  1.0000
  C   C657      1.0  0.24470  0.66712  0.78123  1.0000
  H   H1103     1.0  0.43902  0.56904  0.67958  1.0000
  H   H1104     1.0  0.35510  0.56869  0.67175  1.0000
  C   C658      1.0  0.26177  0.66055  0.80334  1.0000
  H   H1105     1.0  0.06954  0.72955  0.90384  1.0000
  H   H1106     1.0  0.23051  0.67582  0.81476  1.0000
  H   H1107     1.0  0.44111  0.70893  0.66512  1.0000
  C   C659      1.0  0.27154  0.66559  0.81449  1.0000
  C   C660      1.0  0.26767  0.69076  0.66143  1.0000
  H   H1108     1.0  0.25521  0.65833  0.77417  1.0000
  H   H1109     1.0  0.08479  0.73528  0.92564  1.0000
  H   H1110     1.0  0.37905  0.58180  0.66318  1.0000
  H   H1111     1.0  0.49151  0.59194  0.68527  1.0000
  H   H1112     1.0  0.26454  0.48967  0.66937  1.0000
  H   H1113     1.0  0.25317  0.65228  0.81260  1.0000
  H   H1114     1.0  0.27109  0.65145  0.79556  1.0000
  H   H1115     1.0  0.27474  0.49651  0.69584  1.0000
  H   H1116     1.0  0.43267  0.69123  0.67948  1.0000
  H   H1117     1.0  0.17804  0.73380  0.72050  1.0000
  H   H1118     1.0  0.36183  0.69688  0.68239  1.0000
  H   H1119     1.0  0.10687  0.73370  0.92563  1.0000
  H   H1120     1.0  0.42913  0.55845  0.70017  1.0000
  H   H1121     1.0  0.26613  0.51874  0.69163  1.0000
  N   N49       1.0  0.47606  0.69511  0.67128  1.0000
  H   H1122     1.0  0.28793  0.66950  0.77635  1.0000
  H   H1123     1.0  0.48345  0.59781  0.66539  1.0000
  H   H1124     1.0  0.26687  0.69475  0.78704  1.0000
  H   H1125     1.0  0.28292  0.65516  0.81670  1.0000
  S   S192      1.0  0.30163  0.52357  0.68359  1.0000
  C   C661      1.0  0.31208  0.70457  0.70606  1.0000
  C   C662      1.0  0.44183  0.57797  0.70207  1.0000
  S   S193      1.0  0.40205  0.63125  0.66227  1.0000
  C   C663      1.0  0.26773  0.51553  0.66069  1.0000
  H   H1126     1.0  0.45202  0.55320  0.69350  1.0000
  C   C664      1.0  0.23278  0.53448  0.68539  1.0000
  H   H1127     1.0  0.30902  0.67297  0.67251  1.0000
  H   H1128     1.0  0.43582  0.61535  0.71210  1.0000
  C   C665      1.0  0.48884  0.68709  0.68293  1.0000
  H   H1129     1.0  0.19760  0.72196  0.72691  1.0000
  N   N50       1.0  0.24476  0.63500  0.65247  1.0000
  H   H1130     1.0  0.38885  0.55334  0.68524  1.0000
  C   C666      1.0  0.44867  0.60388  0.68014  1.0000
  H   H1131     1.0  0.18113  0.73439  0.96842  1.0000
  H   H1132     1.0  0.45337  0.69772  0.69209  1.0000
  H   H1133     1.0  0.12241  0.71097  0.87883  1.0000
  H   H1134     1.0  0.26729  0.60207  0.66220  1.0000
  H   H1135     1.0  0.26167  0.52896  0.66190  1.0000
  H   H1136     1.0  0.28954  0.72030  0.71959  1.0000
  C   C667      1.0  0.09544  0.72397  0.87695  1.0000
  C   C668      1.0  0.44397  0.60437  0.71916  1.0000
  H   H1137     1.0  0.23921  0.67720  0.77101  1.0000
  H   H1138     1.0  0.22183  0.54244  0.69297  1.0000
  H   H1139     1.0  0.32834  0.66188  0.68106  1.0000
  C   C669      1.0  0.25632  0.50245  0.67113  1.0000
  H   H1140     1.0  0.24565  0.50426  0.66432  1.0000
  H   H1141     1.0  0.10283  0.71651  0.90646  1.0000
  C   C670      1.0  0.45883  0.69084  0.68115  1.0000
  H   H1142     1.0  0.24448  0.65880  0.67389  1.0000
  H   H1143     1.0  0.08869  0.72884  0.86590  1.0000
  H   H1144     1.0  0.43592  0.59519  0.72759  1.0000
  Fe  Fe94      1.0  0.31608  0.50782  0.70400  1.0000
  C   C671      1.0  0.45954  0.59567  0.70685  1.0000
  H   H1145     1.0  0.29524  0.68390  0.69858  1.0000
  C   C672      1.0  0.31430  0.66705  0.68434  1.0000
  H   H1146     1.0  0.28414  0.66555  0.66476  1.0000
  N   N51       1.0  0.28997  0.58150  0.74935  1.0000
  C   C673      1.0  0.30474  0.58377  0.75592  1.0000
  C   C674      1.0  0.29431  0.58650  0.72988  1.0000
  C   C675      1.0  0.28908  0.56266  0.75462  1.0000
  C   C676      1.0  0.27346  0.59245  0.75732  1.0000
  C   C677      1.0  0.30387  0.57775  0.77556  1.0000
  C   C678      1.0  0.29824  0.60469  0.72241  1.0000
  C   C679      1.0  0.27571  0.55699  0.74821  1.0000
  C   C680      1.0  0.25870  0.59827  0.74721  1.0000
  H   H1147     1.0  0.31728  0.57685  0.74930  1.0000
  H   H1148     1.0  0.30571  0.59758  0.75290  1.0000
  H   H1149     1.0  0.28392  0.58568  0.72407  1.0000
  H   H1150     1.0  0.30568  0.57726  0.72446  1.0000
  H   H1151     1.0  0.30187  0.55459  0.75022  1.0000
  H   H1152     1.0  0.28600  0.55857  0.76894  1.0000
  H   H1153     1.0  0.26822  0.58580  0.77062  1.0000
  H   H1154     1.0  0.27616  0.60456  0.75878  1.0000
  H   H1155     1.0  0.30663  0.56349  0.77938  1.0000
  H   H1156     1.0  0.31406  0.58222  0.77897  1.0000
  H   H1157     1.0  0.29134  0.58325  0.78325  1.0000
  H   H1158     1.0  0.29764  0.60836  0.70849  1.0000
  H   H1159     1.0  0.28887  0.61450  0.72907  1.0000
  H   H1160     1.0  0.31150  0.60495  0.72322  1.0000
  H   H1161     1.0  0.26235  0.56213  0.75455  1.0000
  H   H1162     1.0  0.27746  0.54274  0.75199  1.0000
  H   H1163     1.0  0.27736  0.56017  0.73394  1.0000
  H   H1164     1.0  0.24619  0.60062  0.75648  1.0000
  H   H1165     1.0  0.25770  0.58890  0.74012  1.0000
  H   H1166     1.0  0.25956  0.61087  0.73828  1.0000
  H   H1167     1.0  0.24160  0.71072  0.79927  1.0000
  H   H1168     1.0  0.18384  0.72033  0.80073  1.0000
  C   C681      1.0  0.48412  0.69245  0.70063  1.0000
  H   H1169     1.0  0.33711  0.57599  0.66199  1.0000
  H   H1170     1.0  0.29722  0.55652  0.65827  1.0000
  S   S194      1.0  0.43648  0.64905  0.67141  1.0000
  S   S195      1.0  0.48841  0.64450  0.71879  1.0000
  H   H1171     1.0  0.22581  0.69089  0.79596  1.0000
  H   H1172     1.0  0.25499  0.62937  0.67569  1.0000
  H   H1173     1.0  0.22715  0.62716  0.67627  1.0000
  H   H1174     1.0  0.21866  0.66459  0.79701  1.0000
  C   C682      1.0  0.23241  0.51527  0.69282  1.0000
  C   C683      1.0  0.10292  0.73047  0.90136  1.0000
  H   H1175     1.0  0.34022  0.67819  0.70155  1.0000
  H   H1176     1.0  0.22284  0.65482  0.67799  1.0000
  H   H1177     1.0  0.31670  0.69667  0.71792  1.0000
  C   C684      1.0  0.11444  0.71698  0.86892  1.0000
  Fe  Fe95      1.0  0.37621  0.64844  0.66841  1.0000
  H   H1178     1.0  0.26315  0.66734  0.82725  1.0000
  C   C685      1.0  0.49013  0.72180  0.65777  1.0000
  H   H1179     1.0  0.24002  0.59874  0.67492  1.0000
  H   H1180     1.0  0.28628  0.71679  0.70000  1.0000
  H   H1181     1.0  0.24430  0.53832  0.68660  1.0000
  H   H1182     1.0  0.30814  0.65580  0.69068  1.0000
  H   H1183     1.0  0.33141  0.58424  0.69026  1.0000
  H   H1184     1.0  0.22686  0.65145  0.78134  1.0000
  Fe  Fe96      1.0  0.32302  0.53810  0.67514  1.0000
  C   C686      1.0  0.23418  0.60590  0.66366  1.0000
  C   C687      1.0  0.34805  0.70199  0.68759  1.0000
  H   H1185     1.0  0.30006  0.70670  0.67463  1.0000
  H   H1186     1.0  0.19168  0.73435  0.75222  1.0000
  H   H1187     1.0  0.48216  0.70655  0.69937  1.0000
  C   C688      1.0  0.48013  0.64182  0.68896  1.0000
  C   C689      1.0  0.47377  0.71446  0.66662  1.0000
  H   H1188     1.0  0.28604  0.68900  0.76049  1.0000
  C   C690      1.0  0.23628  0.68477  0.80328  1.0000
  H   H1189     1.0  0.15966  0.72437  0.77849  1.0000
  H   H1190     1.0  0.17480  0.72425  0.75243  1.0000
  H   H1191     1.0  0.46040  0.67693  0.68714  1.0000
  H   H1192     1.0  0.23165  0.53802  0.67161  1.0000
  H   H1193     1.0  0.22308  0.51242  0.68671  1.0000
  H   H1194     1.0  0.46782  0.72012  0.67833  1.0000
  H   H1195     1.0  0.11675  0.73121  0.89608  1.0000
  H   H1196     1.0  0.24987  0.69555  0.81710  1.0000
  H   H1197     1.0  0.32954  0.60341  0.67393  1.0000
  H   H1198     1.0  0.28615  0.69981  0.71917  1.0000
  H   H1199     1.0  0.28047  0.51203  0.66444  1.0000
  H   H1200     1.0  0.46718  0.58522  0.71521  1.0000
  C   C691      1.0  0.20758  0.72689  0.78486  1.0000
  C   C692      1.0  0.33742  0.68818  0.68992  1.0000
  H   H1201     1.0  0.21829  0.63129  0.65813  1.0000
  H   H1202     1.0  0.27607  0.67247  0.75958  1.0000
  C   C693      1.0  0.33878  0.59187  0.67883  1.0000
  C   C694      1.0  0.34737  0.58059  0.66518  1.0000
  C   C695      1.0  0.23060  0.62551  0.66266  1.0000
  C   C696      1.0  0.26253  0.50616  0.69799  1.0000
  H   H1203     1.0  0.22734  0.70436  0.81900  1.0000
  H   H1204     1.0  0.44786  0.68749  0.66029  1.0000
  H   H1205     1.0  0.31758  0.71640  0.70263  1.0000
  H   H1206     1.0  0.25154  0.71543  0.65412  1.0000
  H   H1207     1.0  0.47666  0.67524  0.65776  1.0000
  C   C697      1.0  0.29236  0.71065  0.71133  1.0000
  H   H1208     1.0  0.31360  0.72019  0.67501  1.0000
  H   H1209     1.0  0.44404  0.57085  0.71514  1.0000
  C   C698      1.0  0.25975  0.63029  0.66151  1.0000
  H   H1210     1.0  0.44549  0.61152  0.65351  1.0000
  C   C699      1.0  0.47181  0.57774  0.68530  1.0000
  H   H1211     1.0  0.47650  0.56683  0.69542  1.0000
  H   H1212     1.0  0.34380  0.71395  0.67846  1.0000
  H   H1213     1.0  0.43136  0.59761  0.66716  1.0000
  H   H1214     1.0  0.22179  0.60189  0.66529  1.0000
  H   H1215     1.0  0.49070  0.67281  0.68559  1.0000
  C   C700      1.0  0.32497  0.70289  0.65774  1.0000
  C   C701      1.0  0.44452  0.69501  0.67065  1.0000
  C   C702      1.0  0.44463  0.60009  0.66425  1.0000
  C   C703      1.0  0.27688  0.67534  0.65624  1.0000
  H   H1216     1.0  0.33809  0.70541  0.65574  1.0000
  H   H1217     1.0  0.32619  0.68963  0.65621  1.0000
  H   H1218     1.0  0.45397  0.58939  0.65901  1.0000
  C   C704      1.0  0.48142  0.68742  0.65523  1.0000
  C   C705      1.0  0.37345  0.59278  0.65384  1.0000
  C   C706      1.0  0.18050  0.73584  0.74623  1.0000
  H   H1219     1.0  0.48671  0.73606  0.65602  1.0000
  Fe  Fe97      1.0  0.14417  0.79957  0.08059  1.0000
  S   S196      1.0  0.12504  0.81855  0.09537  1.0000
  S   S197      1.0  0.14820  0.80671  0.05146  1.0000
  Fe  Fe98      1.0  0.15219  0.77438  0.11360  1.0000
  S   S198      1.0  0.13345  0.79117  0.13050  1.0000
  H   H1220     1.0  0.15455  0.75603  0.00133  1.0000
  Fe  Fe99      1.0  0.11610  0.79495  0.11225  1.0000
  S   S199      1.0  0.08956  0.78936  0.12187  1.0000
  Fe  Fe100     1.0  0.14459  0.81273  0.11202  1.0000
  S   S200      1.0  0.15460  0.82883  0.12421  1.0000
  S   S201      1.0  0.13396  0.77637  0.09658  1.0000
  S   S202      1.0  0.16457  0.79567  0.09588  1.0000
  H   H1221     1.0  0.07505  0.87172  0.22242  1.0000
  H   H1222     1.0  0.00680  0.74187  0.24126  1.0000
  S   S203      1.0  0.11890  0.76610  0.01282  1.0000
  H   H1223     1.0  0.09372  0.76438  0.20145  1.0000
  H   H1224     1.0  0.10597  0.82585  0.04558  1.0000
  H   H1225     1.0  0.04277  0.86928  0.19968  1.0000
  Fe  Fe101     1.0  0.11038  0.90484  0.16715  1.0000
  S   S204      1.0  0.09469  0.93034  0.17252  1.0000
  S   S205      1.0  0.10798  0.89833  0.14291  1.0000
  Fe  Fe102     1.0  0.12151  0.89493  0.20150  1.0000
  S   S206      1.0  0.10617  0.91938  0.20979  1.0000
  S   S207      1.0  0.13629  0.87634  0.22053  1.0000
  Fe  Fe103     1.0  0.08561  0.91495  0.19872  1.0000
  S   S208      1.0  0.05774  0.91920  0.21222  1.0000
  Fe  Fe104     1.0  0.11693  0.93207  0.18283  1.0000
  S   S209      1.0  0.12858  0.95591  0.17489  1.0000
  S   S210      1.0  0.09998  0.88936  0.19287  1.0000
  S   S211      1.0  0.13360  0.90773  0.17505  1.0000
  S   S212      1.0  0.12658  0.74305  0.25060  1.0000
  S   S213      1.0  0.16351  0.75316  0.22783  1.0000
  H   H1226     1.0  0.18129  0.75683  0.29719  1.0000
  Fe  Fe105     1.0  0.11495  0.77116  0.24437  1.0000
  S   S214      1.0  0.13587  0.77971  0.25118  1.0000
  S   S215      1.0  0.08757  0.78384  0.25404  1.0000
  Fe  Fe106     1.0  0.14862  0.78044  0.22330  1.0000
  S   S216      1.0  0.16031  0.80160  0.20446  1.0000
  Fe  Fe107     1.0  0.14864  0.75166  0.25525  1.0000
  S   S217      1.0  0.12668  0.77414  0.21607  1.0000
  Fe  Fe108     1.0  0.01680  0.84074  0.17036  1.0000
  S   S218      1.0  0.02932  0.85019  0.14279  1.0000
  Fe  Fe109     1.0  0.02071  0.81141  0.20074  1.0000
  H   H1227     1.0  0.10048  0.77248  0.09055  1.0000
  S   S219      1.0  0.03333  0.83427  0.19009  1.0000
  C   C707      1.0  0.07268  0.78328  0.24224  1.0000
  C   C708      1.0  0.05838  0.79682  0.24096  1.0000
  C   C709      1.0  0.04709  0.79742  0.23039  1.0000
  C   C710      1.0  0.04951  0.78389  0.22195  1.0000
  C   C711      1.0  0.06299  0.76967  0.22437  1.0000
  C   C712      1.0  0.07490  0.76957  0.23409  1.0000
  H   H1228     1.0  0.05620  0.80696  0.24795  1.0000
  H   H1229     1.0  0.09195  0.86329  0.25397  1.0000
  H   H1230     1.0  0.06439  0.75891  0.21844  1.0000
  H   H1231     1.0  0.08563  0.75882  0.23553  1.0000
  H   H1232     1.0  0.08642  0.88351  0.24003  1.0000
  C   C713      1.0  0.04475  0.90439  0.21402  1.0000
  C   C714      1.0  0.02872  0.90605  0.22540  1.0000
  C   C715      1.0  0.01796  0.89451  0.22765  1.0000
  C   C716      1.0  0.04987  0.89115  0.20459  1.0000
  H   H1233     1.0  0.02466  0.91619  0.23275  1.0000
  H   H1234     1.0  0.12499  0.80102  0.00426  1.0000
  C   C717      1.0  0.15240  0.82218  0.20929  1.0000
  C   C718      1.0  0.14979  0.83646  0.19585  1.0000
  C   C719      1.0  0.14432  0.85312  0.19933  1.0000
  C   C720      1.0  0.14213  0.85554  0.21616  1.0000
  C   C721      1.0  0.14469  0.84127  0.22961  1.0000
  C   C722      1.0  0.14950  0.82455  0.22624  1.0000
  H   H1235     1.0  0.15202  0.83466  0.18272  1.0000
  H   H1236     1.0  0.14232  0.86411  0.18890  1.0000
  H   H1237     1.0  0.14294  0.84313  0.24264  1.0000
  H   H1238     1.0  0.15163  0.81356  0.23662  1.0000
  H   H1239     1.0  0.15397  0.78528  0.98873  1.0000
  C   C723      1.0  0.12685  0.97211  0.21864  1.0000
  C   C724      1.0  0.12437  0.96288  0.20740  1.0000
  C   C725      1.0  0.13164  0.96661  0.18971  1.0000
  H   H1240     1.0  0.12112  0.96929  0.23228  1.0000
  H   H1241     1.0  0.11672  0.95303  0.21237  1.0000
  C   C726      1.0  0.14058  0.84732  0.13034  1.0000
  C   C727      1.0  0.12666  0.85566  0.12237  1.0000
  C   C728      1.0  0.11659  0.87131  0.12641  1.0000
  C   C729      1.0  0.12016  0.87835  0.13874  1.0000
  C   C730      1.0  0.13363  0.86964  0.14723  1.0000
  C   C731      1.0  0.14398  0.85424  0.14286  1.0000
  H   H1242     1.0  0.12409  0.85042  0.11262  1.0000
  H   H1243     1.0  0.10623  0.87808  0.11977  1.0000
  H   H1244     1.0  0.13644  0.87504  0.15673  1.0000
  H   H1245     1.0  0.15476  0.84781  0.14902  1.0000
  C   C732      1.0  0.07318  0.80657  0.12737  1.0000
  C   C733      1.0  0.07522  0.82363  0.12110  1.0000
  C   C734      1.0  0.06146  0.83715  0.12525  1.0000
  C   C735      1.0  0.04603  0.83353  0.13625  1.0000
  C   C736      1.0  0.04414  0.81646  0.14249  1.0000
  C   C737      1.0  0.05759  0.80301  0.13786  1.0000
  H   H1246     1.0  0.08724  0.82642  0.11288  1.0000
  H   H1247     1.0  0.06291  0.85035  0.12023  1.0000
  H   H1248     1.0  0.03217  0.81357  0.15062  1.0000
  H   H1249     1.0  0.05591  0.78984  0.14256  1.0000
  H   H1250     1.0  0.19672  0.75649  0.18610  1.0000
  H   H1251     1.0  0.10946  0.84436  0.22154  1.0000
  H   H1252     1.0  0.10978  0.81562  0.25082  1.0000
  H   H1253     1.0  0.10992  0.83810  0.24889  1.0000
  H   H1254     1.0  0.00201  0.78148  0.22917  1.0000
  C   C738      1.0  0.15441  0.75536  0.15899  1.0000
  H   H1255     1.0  0.07153  0.76856  0.18704  1.0000
  S   S220      1.0  0.00925  0.86654  0.22287  1.0000
  H   H1256     1.0  0.14585  0.76006  0.18497  1.0000
  H   H1257     1.0  0.15335  0.76877  0.15310  1.0000
  C   C739      1.0  0.14007  0.79523  0.04094  1.0000
  C   C740      1.0  0.13563  0.80325  0.02492  1.0000
  C   C741      1.0  0.12890  0.79451  0.01630  1.0000
  C   C742      1.0  0.12708  0.77749  0.02340  1.0000
  C   C743      1.0  0.13169  0.76939  0.03934  1.0000
  C   C744      1.0  0.13805  0.77829  0.04817  1.0000
  H   H1258     1.0  0.13711  0.81638  0.01930  1.0000
  H   H1259     1.0  0.17304  0.78662  0.99439  1.0000
  H   H1260     1.0  0.10143  0.79429  0.04618  1.0000
  H   H1261     1.0  0.14169  0.77191  0.06039  1.0000
  N   N52       1.0  0.16522  0.91711  0.21844  1.0000
  C   C745      1.0  0.15163  0.92244  0.23363  1.0000
  C   C746      1.0  0.17911  0.92734  0.21502  1.0000
  C   C747      1.0  0.17284  0.89824  0.22377  1.0000
  C   C748      1.0  0.15686  0.92015  0.20313  1.0000
  C   C749      1.0  0.13722  0.91196  0.24081  1.0000
  C   C750      1.0  0.17277  0.94708  0.21251  1.0000
  C   C751      1.0  0.18701  0.88997  0.21012  1.0000
  C   C752      1.0  0.16820  0.92447  0.18489  1.0000
  H   H1262     1.0  0.15763  0.92185  0.24462  1.0000
  H   H1263     1.0  0.14493  0.93607  0.23014  1.0000
  H   H1264     1.0  0.18922  0.92475  0.20348  1.0000
  H   H1265     1.0  0.18608  0.92336  0.22591  1.0000
  H   H1266     1.0  0.17816  0.89596  0.23560  1.0000
  H   H1267     1.0  0.16279  0.89033  0.22729  1.0000
  H   H1268     1.0  0.15155  0.90879  0.20353  1.0000
  H   H1269     1.0  0.14544  0.93091  0.20367  1.0000
  H   H1270     1.0  0.12636  0.91901  0.24933  1.0000
  H   H1271     1.0  0.13203  0.90999  0.23039  1.0000
  H   H1272     1.0  0.14176  0.89926  0.24882  1.0000
  H   H1273     1.0  0.18385  0.95357  0.20633  1.0000
  H   H1274     1.0  0.16314  0.95192  0.20418  1.0000
  H   H1275     1.0  0.16702  0.95109  0.22512  1.0000
  H   H1276     1.0  0.18152  0.88870  0.19953  1.0000
  C   C753      1.0  0.10962  0.74996  0.14619  1.0000
  H   H1277     1.0  0.11537  0.75544  0.19319  1.0000
  H   H1278     1.0  0.17115  0.93748  0.18214  1.0000
  H   H1279     1.0  0.16095  0.92475  0.17504  1.0000
  H   H1280     1.0  0.18037  0.91494  0.18265  1.0000
  N   N53       1.0  0.19205  0.78896  0.14901  1.0000
  C   C754      1.0  0.19348  0.77133  0.16062  1.0000
  C   C755      1.0  0.18745  0.78779  0.13265  1.0000
  C   C756      1.0  0.17833  0.80211  0.15752  1.0000
  C   C757      1.0  0.20904  0.79449  0.14524  1.0000
  C   C758      1.0  0.19563  0.77013  0.17912  1.0000
  C   C759      1.0  0.20187  0.77788  0.12035  1.0000
  C   C760      1.0  0.16007  0.79813  0.16333  1.0000
  C   C761      1.0  0.21020  0.81211  0.13289  1.0000
  H   H1281     1.0  0.18206  0.76582  0.16189  1.0000
  H   H1282     1.0  0.20465  0.76213  0.15484  1.0000
  H   H1283     1.0  0.18291  0.80073  0.12506  1.0000
  H   H1284     1.0  0.17630  0.78137  0.13570  1.0000
  H   H1285     1.0  0.18193  0.80428  0.16892  1.0000
  H   H1286     1.0  0.17712  0.81493  0.14861  1.0000
  H   H1287     1.0  0.21202  0.79564  0.15739  1.0000
  H   H1288     1.0  0.22003  0.78453  0.14041  1.0000
  H   H1289     1.0  0.18425  0.77753  0.18664  1.0000
  H   H1290     1.0  0.01889  0.75594  0.24398  1.0000
  H   H1291     1.0  0.20745  0.77422  0.17931  1.0000
  H   H1292     1.0  0.21271  0.78473  0.11454  1.0000
  H   H1293     1.0  0.20667  0.76451  0.12677  1.0000
  H   H1294     1.0  0.19657  0.77690  0.10949  1.0000
  H   H1295     1.0  0.15497  0.79759  0.15224  1.0000
  H   H1296     1.0  0.15120  0.80877  0.16926  1.0000
  H   H1297     1.0  0.15954  0.78612  0.17325  1.0000
  H   H1298     1.0  0.20640  0.82261  0.14030  1.0000
  H   H1299     1.0  0.20206  0.81548  0.12314  1.0000
  H   H1300     1.0  0.22364  0.81187  0.12540  1.0000
  H   H1301     1.0  0.10120  0.78976  0.18797  1.0000
  C   C762      1.0  0.09640  0.79147  0.17600  1.0000
  Fe  Fe110     1.0  0.01008  0.84833  0.20602  1.0000
  N   N54       1.0  0.08202  0.80448  0.06674  1.0000
  C   C763      1.0  0.07720  0.79058  0.04368  1.0000
  N   N55       1.0  0.08218  0.84447  0.23270  1.0000
  H   H1302     1.0  0.10048  0.82575  0.26864  1.0000
  N   N56       1.0  0.05465  0.89502  0.14826  1.0000
  C   C764      1.0  0.04930  0.90968  0.15787  1.0000
  C   C765      1.0  0.03829  0.89083  0.14673  1.0000
  C   C766      1.0  0.06489  0.90128  0.13050  1.0000
  C   C767      1.0  0.06550  0.88013  0.15836  1.0000
  C   C768      1.0  0.06399  0.91741  0.15945  1.0000
  C   C769      1.0  0.02665  0.88395  0.16391  1.0000
  C   C770      1.0  0.06654  0.89135  0.11625  1.0000
  C   C771      1.0  0.07014  0.86263  0.15278  1.0000
  H   H1303     1.0  0.04006  0.92050  0.15167  1.0000
  H   H1304     1.0  0.04237  0.90562  0.17136  1.0000
  H   H1305     1.0  0.04089  0.88116  0.13860  1.0000
  H   H1306     1.0  0.03036  0.90241  0.13986  1.0000
  H   H1307     1.0  0.05921  0.91492  0.12529  1.0000
  H   H1308     1.0  0.07825  0.90132  0.13117  1.0000
  H   H1309     1.0  0.07804  0.88325  0.15796  1.0000
  H   H1310     1.0  0.05952  0.87791  0.17234  1.0000
  H   H1311     1.0  0.07304  0.90782  0.16684  1.0000
  H   H1312     1.0  0.07121  0.92313  0.14670  1.0000
  H   H1313     1.0  0.05834  0.92792  0.16682  1.0000
  H   H1314     1.0  0.04705  0.83514  0.08314  1.0000
  C   C772      1.0  0.16887  0.75353  0.99892  1.0000
  H   H1315     1.0  0.19787  0.89682  0.20491  1.0000
  H   H1316     1.0  0.07146  0.87740  0.12005  1.0000
  H   H1317     1.0  0.07592  0.89620  0.10465  1.0000
  H   H1318     1.0  0.05410  0.89360  0.11216  1.0000
  H   H1319     1.0  0.08265  0.86126  0.14336  1.0000
  H   H1320     1.0  0.06014  0.86017  0.14747  1.0000
  H   H1321     1.0  0.07136  0.85210  0.16432  1.0000
  H   H1322     1.0  0.19247  0.87664  0.21626  1.0000
  S   S221      1.0  0.16655  0.74885  0.12598  1.0000
  H   H1323     1.0  0.00574  0.89576  0.23680  1.0000
  H   H1324     1.0  0.07616  0.74259  0.16395  1.0000
  H   H1325     1.0  0.16118  0.75967  0.31199  1.0000
  H   H1326     1.0  0.09612  0.85161  0.20641  1.0000
  S   S222      1.0  0.99880  0.82474  0.21862  1.0000
  C   C773      1.0  0.08776  0.80103  0.04861  1.0000
  H   H1327     1.0  0.03644  0.80826  0.22895  1.0000
  C   C774      1.0  0.10453  0.77605  0.16688  1.0000
  H   H1328     1.0  0.99787  0.76990  0.17647  1.0000
  H   H1329     1.0  0.08831  0.76079  0.08379  1.0000
  H   H1330     1.0  0.05495  0.81315  0.06583  1.0000
  H   H1331     1.0  0.06328  0.79650  0.04568  1.0000
  H   H1332     1.0  0.00738  0.77492  0.20099  1.0000
  C   C775      1.0  0.06573  0.81817  0.06744  1.0000
  H   H1333     1.0  0.02120  0.89357  0.17230  1.0000
  H   H1334     1.0  0.08186  0.79012  0.02972  1.0000
  C   C776      1.0  0.03884  0.87969  0.20662  1.0000
  C   C777      1.0  0.09801  0.84196  0.21847  1.0000
  H   H1335     1.0  0.06229  0.88974  0.19586  1.0000
  H   H1336     1.0  0.08140  0.81972  0.24975  1.0000
  H   H1337     1.0  0.07441  0.79126  0.09314  1.0000
  H   H1338     1.0  0.09016  0.83828  0.06025  1.0000
  H   H1339     1.0  0.10314  0.81336  0.22517  1.0000
  H   H1340     1.0  0.07589  0.77223  0.16429  1.0000
  C   C778      1.0  0.09339  0.77281  0.08054  1.0000
  H   H1341     1.0  0.17287  0.73972  0.99827  1.0000
  H   H1342     1.0  0.08209  0.79390  0.17897  1.0000
  C   C779      1.0  0.02290  0.88133  0.21829  1.0000
  H   H1343     1.0  0.10276  0.77247  0.06814  1.0000
  C   C780      1.0  0.01140  0.75406  0.23527  1.0000
  H   H1344     1.0  0.19001  0.73899  0.25374  1.0000
  S   S223      1.0  0.00588  0.81671  0.17975  1.0000
  C   C781      1.0  0.07828  0.78857  0.07986  1.0000
  C   C782      1.0  0.10335  0.82401  0.21367  1.0000
  H   H1345     1.0  0.06683  0.78457  0.07836  1.0000
  C   C783      1.0  0.09087  0.86945  0.24043  1.0000
  H   H1346     1.0  0.06554  0.86543  0.24459  1.0000
  H   H1347     1.0  0.07912  0.77702  0.05086  1.0000
  H   H1348     1.0  0.10183  0.78057  0.15364  1.0000
  H   H1349     1.0  0.08551  0.98535  0.16390  1.0000
  H   H1350     1.0  0.06842  0.83223  0.08614  1.0000
  C   C784      1.0  0.07928  0.76261  0.17591  1.0000
  H   H1351     1.0  0.11673  0.82241  0.20584  1.0000
  H   H1352     1.0  0.16862  0.74561  0.02644  1.0000
  H   H1353     1.0  0.09816  0.98329  0.17918  1.0000
  C   C785      1.0  0.08422  0.83230  0.24969  1.0000
  H   H1354     1.0  0.10025  0.80328  0.16724  1.0000
  H   H1355     1.0  0.09308  0.81171  0.08468  1.0000
  S   S224      1.0  0.03606  0.78467  0.20807  1.0000
  H   H1356     1.0  0.11170  0.83002  0.06341  1.0000
  H   H1357     1.0  0.14724  0.98232  0.16979  1.0000
  H   H1358     1.0  0.11831  0.75908  0.13933  1.0000
  H   H1359     1.0  0.03344  0.87190  0.17114  1.0000
  C   C786      1.0  0.09624  0.81026  0.07096  1.0000
  C   C787      1.0  0.05919  0.82546  0.08417  1.0000
  C   C788      1.0  0.10184  0.75484  0.19366  1.0000
  H   H1360     1.0  0.06722  0.82931  0.05644  1.0000
  H   H1361     1.0  0.05606  0.81546  0.09582  1.0000
  C   C789      1.0  0.07760  0.86297  0.23475  1.0000
  C   C790      1.0  0.17387  0.75518  0.01531  1.0000
  H   H1362     1.0  0.09501  0.82265  0.20554  1.0000
  H   H1363     1.0  0.10833  0.80024  0.06993  1.0000
  H   H1364     1.0  0.01549  0.88080  0.16089  1.0000
  H   H1365     1.0  0.00317  0.75405  0.20391  1.0000
  H   H1366     1.0  0.10362  0.86779  0.23164  1.0000
  H   H1367     1.0  0.08751  0.81329  0.03882  1.0000
  H   H1368     1.0  0.13030  0.75623  0.04491  1.0000
  H   H1369     1.0  0.11877  0.77399  0.16531  1.0000
  C   C791      1.0  0.14144  0.97948  0.18342  1.0000
  N   N57       1.0  0.09835  0.75949  0.17561  1.0000
  C   C792      1.0  0.17536  0.75613  0.31114  1.0000
  H   H1370     1.0  0.04985  0.83637  0.25240  1.0000
  H   H1371     1.0  0.17893  0.76593  0.31598  1.0000
  C   C793      1.0  0.10104  0.82710  0.05928  1.0000
  H   H1372     1.0  0.04410  0.85761  0.23950  1.0000
  H   H1373     1.0  0.06606  0.84957  0.21392  1.0000
  C   C794      1.0  0.04959  0.84387  0.23909  1.0000
  H   H1374     1.0  0.07457  0.83725  0.26059  1.0000
  C   C795      1.0  0.10220  0.82800  0.25436  1.0000
  H   H1375     1.0  0.07006  0.82780  0.22490  1.0000
  C   C796      1.0  0.06746  0.84125  0.22679  1.0000
  H   H1376     1.0  0.04041  0.83936  0.23417  1.0000
  C   C797      1.0  0.16042  0.74296  0.14865  1.0000
  C   C798      1.0  0.13630  0.98533  0.21221  1.0000
  H   H1377     1.0  0.02060  0.75282  0.22283  1.0000
  C   C799      1.0  0.10897  0.74570  0.16582  1.0000
  S   S225      1.0  0.99444  0.85683  0.18540  1.0000
  Fe  Fe111     1.0  0.14048  0.74680  0.22280  1.0000
  C   C800      1.0  0.99633  0.76970  0.23332  1.0000
  H   H1378     1.0  0.12254  0.74261  0.16746  1.0000
  C   C801      1.0  0.15021  0.75039  0.17710  1.0000
  H   H1379     1.0  0.16811  0.76796  0.01874  1.0000
  H   H1380     1.0  0.18804  0.75238  0.01415  1.0000
  H   H1381     1.0  0.19956  0.76745  0.98779  1.0000
  H   H1382     1.0  0.21090  0.74764  0.30057  1.0000
  H   H1383     1.0  0.09668  0.75537  0.14312  1.0000
  C   C802      1.0  0.99675  0.76777  0.20383  1.0000
  C   C803      1.0  0.07180  0.74695  0.17645  1.0000
  Fe  Fe112     1.0  0.11426  0.77859  0.98595  1.0000
  H   H1384     1.0  0.05751  0.75089  0.17862  1.0000
  H   H1385     1.0  0.11507  0.73804  0.14091  1.0000
  H   H1386     1.0  0.21993  0.73793  0.35172  1.0000
  H   H1387     1.0  0.25799  0.74737  0.54449  1.0000
  H   H1388     1.0  0.19298  0.74143  0.34651  1.0000
  H   H1389     1.0  0.23026  0.74202  0.32916  1.0000
  H   H1390     1.0  0.20187  0.75476  0.32778  1.0000
  H   H1391     1.0  0.17140  0.73789  0.33501  1.0000
  C   C804      1.0  0.17985  0.73778  0.32195  1.0000
  C   C805      1.0  0.20279  0.74097  0.33423  1.0000
  Fe  Fe113     1.0  0.09638  0.77640  0.95825  1.0000
  S   S226      1.0  0.10645  0.79836  0.93919  1.0000
  H   H1392     1.0  0.06594  0.80412  0.94554  1.0000
  Fe  Fe114     1.0  0.13142  0.78601  0.94773  1.0000
  H   H1393     1.0  0.02030  0.83214  0.93765  1.0000
  Fe  Fe115     1.0  0.10026  0.81073  0.96221  1.0000
  S   S227      1.0  0.08852  0.83872  0.96056  1.0000
  H   H1394     1.0  0.15141  0.89360  0.93005  1.0000
  Fe  Fe116     1.0  0.11626  0.89216  0.87860  1.0000
  S   S228      1.0  0.09166  0.91034  0.88650  1.0000
  S   S229      1.0  0.13423  0.87870  0.89653  1.0000
  Fe  Fe117     1.0  0.11056  0.89571  0.84281  1.0000
  S   S230      1.0  0.08557  0.91479  0.84718  1.0000
  S   S231      1.0  0.12086  0.88752  0.81723  1.0000
  Fe  Fe118     1.0  0.09928  0.92654  0.86031  1.0000
  S   S232      1.0  0.09459  0.95509  0.85885  1.0000
  Fe  Fe119     1.0  0.08020  0.89699  0.87283  1.0000
  S   S233      1.0  0.05476  0.88898  0.88421  1.0000
  S   S234      1.0  0.12498  0.90927  0.85338  1.0000
  S   S235      1.0  0.10416  0.87696  0.86752  1.0000
  Fe  Fe120     1.0  0.16705  0.79138  0.81984  1.0000
  S   S236      1.0  0.17433  0.81705  0.81521  1.0000
  C   C806      1.0  0.16790  0.84933  0.87241  1.0000
  S   S237      1.0  0.14137  0.78463  0.83304  1.0000
  S   S238      1.0  0.16941  0.78057  0.79659  1.0000
  Fe  Fe121     1.0  0.02234  0.79581  0.88538  1.0000
  S   S239      1.0  0.01855  0.78895  0.91439  1.0000
  Fe  Fe122     1.0  0.03611  0.78342  0.85174  1.0000
  S   S240      1.0  0.02273  0.80740  0.83625  1.0000
  S   S241      1.0  0.05179  0.76149  0.83911  1.0000
  Fe  Fe123     1.0  0.03179  0.82086  0.85190  1.0000
  S   S242      1.0  0.04449  0.84313  0.83763  1.0000
  S   S243      1.0  0.04704  0.79696  0.86576  1.0000
  S   S244      1.0  0.01253  0.78010  0.87256  1.0000
  H   H1395     1.0  0.02088  0.82235  0.92058  1.0000
  C   C807      1.0  0.09899  0.77390  0.82473  1.0000
  C   C808      1.0  0.08219  0.77235  0.83377  1.0000
  C   C809      1.0  0.07217  0.76504  0.82724  1.0000
  C   C810      1.0  0.06132  0.74872  0.88245  1.0000
  H   H1396     1.0  0.10693  0.77896  0.83009  1.0000
  H   H1397     1.0  0.07709  0.77660  0.84588  1.0000
  C   C811      1.0  0.05135  0.87666  0.87117  1.0000
  C   C812      1.0  0.06154  0.87656  0.85458  1.0000
  C   C813      1.0  0.05894  0.86662  0.84420  1.0000
  C   C814      1.0  0.04677  0.85607  0.85068  1.0000
  C   C815      1.0  0.03668  0.85598  0.86736  1.0000
  C   C816      1.0  0.03869  0.86661  0.87744  1.0000
  H   H1398     1.0  0.07120  0.88442  0.84956  1.0000
  H   H1399     1.0  0.06643  0.86713  0.83117  1.0000
  H   H1400     1.0  0.02704  0.84808  0.87230  1.0000
  H   H1401     1.0  0.03044  0.86703  0.89005  1.0000
  C   C817      1.0  0.13521  0.86758  0.81724  1.0000
  C   C818      1.0  0.14904  0.86598  0.80317  1.0000
  C   C819      1.0  0.16073  0.85029  0.80256  1.0000
  C   C820      1.0  0.15823  0.83582  0.81559  1.0000
  C   C821      1.0  0.14399  0.83713  0.82941  1.0000
  C   C822      1.0  0.13268  0.85315  0.83047  1.0000
  H   H1402     1.0  0.15098  0.87706  0.79290  1.0000
  H   H1403     1.0  0.17181  0.84940  0.79196  1.0000
  H   H1404     1.0  0.14207  0.82596  0.83951  1.0000
  H   H1405     1.0  0.12181  0.85427  0.84122  1.0000
  C   C823      1.0  0.13513  0.97349  0.87480  1.0000
  H   H1406     1.0  0.19505  0.74471  0.71981  1.0000
  H   H1407     1.0  0.14110  0.83698  0.86540  1.0000
  C   C824      1.0  0.11021  0.96139  0.86569  1.0000
  C   C825      1.0  0.12767  0.95386  0.86133  1.0000
  C   C826      1.0  0.14012  0.95997  0.86581  1.0000
  H   H1408     1.0  0.14613  0.94645  0.93916  1.0000
  H   H1409     1.0  0.15156  0.94220  0.89553  1.0000
  H   H1410     1.0  0.13163  0.94367  0.85406  1.0000
  H   H1411     1.0  0.15365  0.95431  0.86216  1.0000
  C   C827      1.0  0.10190  0.85026  0.94381  1.0000
  C   C828      1.0  0.09643  0.86793  0.93801  1.0000
  C   C829      1.0  0.10639  0.87678  0.92348  1.0000
  C   C830      1.0  0.12217  0.86810  0.91526  1.0000
  C   C831      1.0  0.12805  0.85066  0.92163  1.0000
  C   C832      1.0  0.11777  0.84166  0.93566  1.0000
  H   H1412     1.0  0.08427  0.87467  0.94443  1.0000
  H   H1413     1.0  0.10189  0.89033  0.91873  1.0000
  H   H1414     1.0  0.14029  0.84397  0.91542  1.0000
  H   H1415     1.0  0.12212  0.82805  0.94002  1.0000
  C   C833      1.0  0.17408  0.82463  0.85879  1.0000
  C   C834      1.0  0.04767  0.76593  0.94997  1.0000
  C   C835      1.0  0.03390  0.77213  0.94140  1.0000
  C   C836      1.0  0.03643  0.78138  0.92435  1.0000
  H   H1416     1.0  0.03691  0.83544  0.95333  1.0000
  S   S245      1.0  0.12510  0.77368  0.79578  1.0000
  H   H1417     1.0  0.13448  0.77096  0.75859  1.0000
  H   H1418     1.0  0.02129  0.76945  0.94795  1.0000
  H   H1419     1.0  0.16495  0.86032  0.84525  1.0000
  H   H1420     1.0  0.09210  0.92919  0.91381  1.0000
  H   H1421     1.0  0.18573  0.79798  0.96376  1.0000
  H   H1422     1.0  0.01832  0.84548  0.91674  1.0000
  H   H1423     1.0  0.07535  0.85739  0.89946  1.0000
  H   H1424     1.0  0.15567  0.76376  0.77191  1.0000
  S   S246      1.0  0.12621  0.80043  0.96904  1.0000
  H   H1425     1.0  0.09446  0.75587  0.86273  1.0000
  C   C837      1.0  0.17436  0.80575  0.85895  1.0000
  C   C838      1.0  0.13968  0.76650  0.91520  1.0000
  C   C839      1.0  0.10108  0.93097  0.92104  1.0000
  H   H1426     1.0  0.09385  0.78104  0.87048  1.0000
  C   C840      1.0  0.15220  0.75300  0.74216  1.0000
  S   S247      1.0  0.08118  0.75995  0.95249  1.0000
  C   C841      1.0  0.11762  0.98069  0.87954  1.0000
  C   C842      1.0  0.05012  0.83018  0.94660  1.0000
  H   H1427     1.0  0.14503  0.80486  0.88228  1.0000
  H   H1428     1.0  0.07911  0.78194  0.91852  1.0000
  C   C843      1.0  0.07261  0.83444  0.92049  1.0000
  H   H1429     1.0  0.15520  0.78861  0.74755  1.0000
  C   C844      1.0  0.05535  0.86748  0.93246  1.0000
  H   H1430     1.0  0.17519  0.74925  0.77362  1.0000
  C   C845      1.0  0.05272  0.81038  0.95112  1.0000
  H   H1431     1.0  0.12449  0.76309  0.74650  1.0000
  N   N58       1.0  0.05342  0.83821  0.92756  1.0000
  H   H1432     1.0  0.13199  0.89212  0.94647  1.0000
  H   H1433     1.0  0.14545  0.86516  0.86127  1.0000
  H   H1434     1.0  0.10426  0.77070  0.88841  1.0000
  H   H1435     1.0  0.05474  0.79206  0.90282  1.0000
  H   H1436     1.0  0.08143  0.77242  0.89012  1.0000
  H   H1437     1.0  0.03236  0.85981  0.93195  1.0000
  H   H1438     1.0  0.07748  0.82038  0.92117  1.0000
  Fe  Fe124     1.0  0.15711  0.75966  0.84462  1.0000
  C   C846      1.0  0.02494  0.83301  0.92356  1.0000
  C   C847      1.0  0.07885  0.84318  0.90154  1.0000
  C   C848      1.0  0.19511  0.76256  0.97850  1.0000
  H   H1439     1.0  0.17640  0.77005  0.72587  1.0000
  C   C849      1.0  0.15047  0.75738  0.88765  1.0000
  H   H1440     1.0  0.17280  0.78341  0.75876  1.0000
  H   H1441     1.0  0.05090  0.80599  0.96538  1.0000
  H   H1442     1.0  0.04699  0.83724  0.90380  1.0000
  H   H1443     1.0  0.07970  0.83803  0.92852  1.0000
  C   C850      1.0  0.10517  0.76958  0.80842  1.0000
  H   H1444     1.0  0.07408  0.83871  0.89226  1.0000
  H   H1445     1.0  0.05058  0.81722  0.91744  1.0000
  S   S248      1.0  0.00798  0.82104  0.87286  1.0000
  H   H1446     1.0  0.13765  0.96804  0.92957  1.0000
  H   H1447     1.0  0.08831  0.87801  0.79048  1.0000
  H   H1448     1.0  0.04637  0.86325  0.91168  1.0000
  S   S249      1.0  0.15650  0.78352  0.92829  1.0000
  H   H1449     1.0  0.05873  0.83357  0.95318  1.0000
  H   H1450     1.0  0.17938  0.77554  0.89667  1.0000
  C   C851      1.0  0.10520  0.97473  0.87489  1.0000
  H   H1451     1.0  0.05561  0.86246  0.94635  1.0000
  H   H1452     1.0  0.11706  0.95053  0.93199  1.0000
  H   H1453     1.0  0.19857  0.81172  0.87864  1.0000
  H   H1454     1.0  0.18761  0.82660  0.85467  1.0000
  C   C852      1.0  0.04622  0.85726  0.92546  1.0000
  H   H1455     1.0  0.12300  0.97657  0.82800  1.0000
  C   C853      1.0  0.07868  0.75999  0.81129  1.0000
  Fe  Fe125     1.0  0.99999  0.80546  0.85838  1.0000
  H   H1456     1.0  0.19423  0.80933  0.90158  1.0000
  H   H1457     1.0  0.04570  0.75830  0.96298  1.0000
  S   S250      1.0  0.20802  0.74237  0.79611  1.0000
  Fe  Fe126     1.0  0.14505  0.77160  0.81096  1.0000
  H   H1458     1.0  0.20772  0.74175  0.96424  1.0000
  N   N59       1.0  0.13332  0.93131  0.91740  1.0000
  H   H1459     1.0  0.09967  0.75934  0.78907  1.0000
  C   C854      1.0  0.16930  0.78429  0.74626  1.0000
  C   C855      1.0  0.15045  0.92972  0.90468  1.0000
  C   C856      1.0  0.13461  0.91846  0.93412  1.0000
  C   C857      1.0  0.13642  0.76752  0.74590  1.0000
  C   C858      1.0  0.15447  0.91640  0.89307  1.0000
  C   C859      1.0  0.13746  0.89928  0.93354  1.0000
  H   H1460     1.0  0.18572  0.80096  0.84929  1.0000
  C   C860      1.0  0.14273  0.95479  0.92704  1.0000
  H   H1461     1.0  0.12212  0.91744  0.90485  1.0000
  H   H1462     1.0  0.19971  0.77070  0.96580  1.0000
  H   H1463     1.0  0.16836  0.83230  0.84763  1.0000
  H   H1464     1.0  0.16133  0.92678  0.91149  1.0000
  H   H1465     1.0  0.14555  0.91951  0.93924  1.0000
  H   H1466     1.0  0.06492  0.76016  0.87296  1.0000
  C   C861      1.0  0.17185  0.79748  0.96792  1.0000
  C   C862      1.0  0.11927  0.92972  0.90937  1.0000
  H   H1467     1.0  0.12448  0.81867  0.88694  1.0000
  H   H1468     1.0  0.16793  0.91574  0.88555  1.0000
  H   H1469     1.0  0.14606  0.92034  0.88345  1.0000
  H   H1470     1.0  0.15345  0.90329  0.90050  1.0000
  H   H1471     1.0  0.15572  0.75466  0.72783  1.0000
  H   H1472     1.0  0.13063  0.89688  0.92469  1.0000
  H   H1473     1.0  0.13720  0.77925  0.73555  1.0000
  N   N60       1.0  0.10010  0.83380  0.80788  1.0000
  C   C863      1.0  0.09094  0.85017  0.79788  1.0000
  C   C864      1.0  0.09527  0.81876  0.80411  1.0000
  C   C865      1.0  0.11938  0.83201  0.80268  1.0000
  C   C866      1.0  0.09468  0.83445  0.82684  1.0000
  C   C867      1.0  0.09661  0.86691  0.79742  1.0000
  C   C868      1.0  0.07668  0.81619  0.81225  1.0000
  C   C869      1.0  0.12730  0.83132  0.78353  1.0000
  C   C870      1.0  0.10183  0.81835  0.83951  1.0000
  H   H1474     1.0  0.09230  0.84925  0.78421  1.0000
  H   H1475     1.0  0.07679  0.85229  0.80330  1.0000
  H   H1476     1.0  0.10424  0.80652  0.80802  1.0000
  H   H1477     1.0  0.09685  0.81997  0.78993  1.0000
  H   H1478     1.0  0.12342  0.84267  0.80563  1.0000
  H   H1479     1.0  0.12596  0.82008  0.81041  1.0000
  H   H1480     1.0  0.09869  0.84537  0.82942  1.0000
  H   H1481     1.0  0.08045  0.83735  0.83102  1.0000
  H   H1482     1.0  0.09504  0.86943  0.81049  1.0000
  H   H1483     1.0  0.11008  0.86705  0.79028  1.0000
  H   H1484     1.0  0.07442  0.81263  0.82657  1.0000
  H   H1485     1.0  0.06699  0.82775  0.80826  1.0000
  H   H1486     1.0  0.07440  0.80540  0.80776  1.0000
  H   H1487     1.0  0.12598  0.81940  0.78034  1.0000
  H   H1488     1.0  0.14135  0.83104  0.78117  1.0000
  H   H1489     1.0  0.12171  0.84280  0.77465  1.0000
  H   H1490     1.0  0.11379  0.81981  0.84250  1.0000
  H   H1491     1.0  0.10462  0.80634  0.83469  1.0000
  H   H1492     1.0  0.09203  0.81654  0.85173  1.0000
  N   N61       1.0  0.16472  0.83139  0.87496  1.0000
  H   H1493     1.0  0.04312  0.80576  0.94699  1.0000
  H   H1494     1.0  0.10074  0.92069  0.93287  1.0000
  C   C871      1.0  0.04472  0.83094  0.91771  1.0000
  H   H1495     1.0  0.18194  0.84940  0.86877  1.0000
  C   C872      1.0  0.16969  0.76221  0.96737  1.0000
  C   C873      1.0  0.16763  0.77110  0.89820  1.0000
  H   H1496     1.0  0.14776  0.74052  0.74643  1.0000
  H   H1497     1.0  0.09316  0.83980  0.89824  1.0000
  H   H1498     1.0  0.06863  0.86771  0.92486  1.0000
  H   H1499     1.0  0.04829  0.88109  0.93104  1.0000
  H   H1500     1.0  0.19034  0.76376  0.74082  1.0000
  C   C874      1.0  0.09871  0.75313  0.87516  1.0000
  H   H1501     1.0  0.09590  0.94382  0.92445  1.0000
  H   H1502     1.0  0.16277  0.87573  0.85804  1.0000
  C   C875      1.0  0.16543  0.76370  0.88534  1.0000
  C   C876      1.0  0.15972  0.86317  0.85839  1.0000
  H   H1503     1.0  0.12320  0.92141  0.94459  1.0000
  H   H1504     1.0  0.15634  0.76970  0.96694  1.0000
  C   C877      1.0  0.06650  0.77919  0.92487  1.0000
  C   C878      1.0  0.09431  0.77007  0.88172  1.0000
  C   C879      1.0  0.06395  0.76955  0.94185  1.0000
  H   H1505     1.0  0.16842  0.80764  0.89428  1.0000
  C   C880      1.0  0.05279  0.78478  0.91597  1.0000
  N   N62       1.0  0.16769  0.75219  0.74929  1.0000
  C   C881      1.0  0.19094  0.81803  0.88951  1.0000
  S   S251      1.0  0.12192  0.76300  0.96522  1.0000
  H   H1506     1.0  0.16256  0.80442  0.85555  1.0000
  H   H1507     1.0  0.11833  0.93985  0.89746  1.0000
  C   C882      1.0  0.15456  0.77289  0.91294  1.0000
  H   H1508     1.0  0.17545  0.76249  0.87388  1.0000
  H   H1509     1.0  0.09168  0.98047  0.87840  1.0000
  H   H1510     1.0  0.13830  0.84281  0.88553  1.0000
  H   H1511     1.0  0.15453  0.95549  0.91672  1.0000
  H   H1512     1.0  0.12962  0.76755  0.92662  1.0000
  H   H1513     1.0  0.10764  0.97658  0.81581  1.0000
  Fe  Fe127     1.0  0.18302  0.75595  0.81090  1.0000
  C   C883      1.0  0.13825  0.81642  0.88769  1.0000
  H   H1514     1.0  0.16312  0.85410  0.88474  1.0000
  C   C884      1.0  0.14546  0.83270  0.87790  1.0000
  H   H1515     1.0  0.16698  0.79607  0.95699  1.0000
  H   H1516     1.0  0.16590  0.74354  0.95473  1.0000
  H   H1517     1.0  0.19495  0.83025  0.88849  1.0000
  S   S252      1.0  0.18266  0.76747  0.83328  1.0000
  C   C885      1.0  0.17138  0.82069  0.89075  1.0000
  C   C886      1.0  0.12871  0.94915  0.92144  1.0000
  H   H1518     1.0  0.17538  0.79453  0.73681  1.0000
  H   H1519     1.0  0.13856  0.81373  0.90166  1.0000
  H   H1520     1.0  0.16467  0.82646  0.90228  1.0000
  H   H1521     1.0  0.12534  0.95904  0.91003  1.0000
  H   H1522     1.0  0.17624  0.79704  0.87127  1.0000
  C   C887      1.0  0.13780  0.75854  0.90273  1.0000
  C   C888      1.0  0.09495  0.76273  0.80167  1.0000
  C   C889      1.0  0.16325  0.75139  0.76856  1.0000
  H   H1523     1.0  0.04801  0.75287  0.88969  1.0000
  H   H1524     1.0  0.07096  0.75434  0.80619  1.0000
  S   S253      1.0  0.15087  0.98063  0.88068  1.0000
  H   H1525     1.0  0.11297  0.75030  0.87102  1.0000
  C   C890      1.0  0.17646  0.76714  0.73994  1.0000
  H   H1526     1.0  0.17782  0.76716  0.95475  1.0000
  H   H1527     1.0  0.21833  0.74285  0.98062  1.0000
  C   C891      1.0  0.16888  0.74365  0.96724  1.0000
  S   S254      1.0  0.14741  0.74751  0.87223  1.0000
  H   H1528     1.0  0.07034  0.75071  0.90401  1.0000
  S   S255      1.0  0.15872  0.74594  0.82348  1.0000
  C   C892      1.0  0.20558  0.74422  0.97746  1.0000
  N   N63       1.0  0.17574  0.76500  0.98226  1.0000
  H   H1529     1.0  0.13990  0.74012  0.77628  1.0000
  H   H1530     1.0  0.16493  0.81023  0.97101  1.0000
  H   H1531     1.0  0.12640  0.75348  0.90470  1.0000
  C   C893      1.0  0.11436  0.98495  0.81939  1.0000
  C   C894      1.0  0.16823  0.78340  0.98428  1.0000
  H   H1532     1.0  0.15038  0.73836  0.79333  1.0000
  H   H1533     1.0  0.99743  0.75803  0.92661  1.0000
  C   C895      1.0  0.07352  0.74145  0.89530  1.0000
  H   H1534     1.0  0.09556  0.75285  0.91412  1.0000
  S   S256      1.0  0.08770  0.78994  0.98068  1.0000
  C   C896      1.0  0.15277  0.73767  0.77950  1.0000
  H   H1535     1.0  0.15821  0.73917  0.97756  1.0000
  H   H1536     1.0  0.06075  0.73891  0.87554  1.0000
  C   C897      1.0  0.09703  0.73872  0.91745  1.0000
  N   N64       1.0  0.09254  0.73768  0.88733  1.0000
  Fe  Fe128     1.0  0.80776  0.15175  0.05849  1.0000
  S   S257      1.0  0.78530  0.14333  0.07814  1.0000
  S   S258      1.0  0.80954  0.15648  0.02960  1.0000
  Fe  Fe129     1.0  0.82621  0.15219  0.08637  1.0000
  S   S259      1.0  0.80542  0.14323  0.10827  1.0000
  S   S260      1.0  0.84813  0.16080  0.09125  1.0000
  Fe  Fe130     1.0  0.80532  0.12520  0.09166  1.0000
  S   S261      1.0  0.80080  0.09828  0.10114  1.0000
  Fe  Fe131     1.0  0.78748  0.16216  0.09265  1.0000
  S   S262      1.0  0.76336  0.18000  0.10280  1.0000
  S   S263      1.0  0.82791  0.13231  0.07112  1.0000
  S   S264      1.0  0.80817  0.17247  0.07175  1.0000
  C   C898      1.0  0.84339  0.19562  0.14711  1.0000
  Fe  Fe132     1.0  0.83395  0.00736  0.19484  1.0000
  S   S265      1.0  0.81915  0.02796  0.17710  1.0000
  H   H1537     1.0  0.71002  0.20296  0.20239  1.0000
  Fe  Fe133     1.0  0.84490  0.03325  0.20893  1.0000
  S   S266      1.0  0.83128  0.05588  0.19224  1.0000
  S   S267      1.0  0.85956  0.03382  0.22856  1.0000
  Fe  Fe134     1.0  0.80981  0.04135  0.19962  1.0000
  S   S268      1.0  0.78234  0.05499  0.20739  1.0000
  Fe  Fe135     1.0  0.84194  0.04049  0.17142  1.0000
  S   S269      1.0  0.85494  0.05361  0.14557  1.0000
  S   S270      1.0  0.82260  0.01973  0.21795  1.0000
  S   S271      1.0  0.85754  0.01892  0.18743  1.0000
  S   S272      1.0  0.98099  0.16728  0.21796  1.0000
  Fe  Fe136     1.0  0.88983  0.12592  0.17006  1.0000
  S   S273      1.0  0.87040  0.13107  0.19405  1.0000
  S   S274      1.0  0.88153  0.11341  0.15302  1.0000
  Fe  Fe137     1.0  0.91858  0.13573  0.18094  1.0000
  S   S275      1.0  0.90154  0.14114  0.20594  1.0000
  S   S276      1.0  0.94621  0.13930  0.17258  1.0000
  Fe  Fe138     1.0  0.89219  0.11725  0.20738  1.0000
  S   S277      1.0  0.89020  0.09646  0.23118  1.0000
  Fe  Fe139     1.0  0.88164  0.15439  0.18992  1.0000
  S   S278      1.0  0.86839  0.18163  0.19148  1.0000
  S   S279      1.0  0.91102  0.11055  0.18372  1.0000
  S   S280      1.0  0.89926  0.15052  0.16460  1.0000
  Fe  Fe140     1.0  0.74780  0.16521  0.20280  1.0000
  S   S281      1.0  0.74319  0.14775  0.22885  1.0000
  S   S282      1.0  0.73233  0.16650  0.18331  1.0000
  Fe  Fe141     1.0  0.77252  0.18115  0.21234  1.0000
  S   S283      1.0  0.77020  0.16527  0.23926  1.0000
  H   H1538     1.0  0.75912  0.17088  0.01727  1.0000
  Fe  Fe142     1.0  0.77174  0.14369  0.22622  1.0000
  S   S284      1.0  0.78968  0.11852  0.23314  1.0000
  Fe  Fe143     1.0  0.74183  0.17084  0.23961  1.0000
  C   C899      1.0  0.70160  0.20219  0.27969  1.0000
  S   S285      1.0  0.77658  0.15919  0.19914  1.0000
  H   H1539     1.0  0.94642  0.20041  0.20546  1.0000
  H   H1540     1.0  0.85743  0.19327  0.14682  1.0000
  N   N65       1.0  0.92103  0.19907  0.18607  1.0000
  H   H1541     1.0  0.73926  0.21238  0.04898  1.0000
  C   C900      1.0  0.84581  0.18663  0.19515  1.0000
  C   C901      1.0  0.72660  0.18213  0.07742  1.0000
  H   H1542     1.0  0.72541  0.18251  0.09120  1.0000
  C   C902      1.0  0.80973  0.19588  0.20029  1.0000
  C   C903      1.0  0.81788  0.17847  0.20243  1.0000
  C   C904      1.0  0.83598  0.17383  0.19971  1.0000
  C   C905      1.0  0.71199  0.23370  0.21761  1.0000
  H   H1543     1.0  0.90701  0.07093  0.12186  1.0000
  H   H1544     1.0  0.81023  0.16864  0.20598  1.0000
  H   H1545     1.0  0.84230  0.16044  0.20118  1.0000
  C   C906      1.0  0.97069  0.16058  0.20510  1.0000
  C   C907      1.0  0.97838  0.15988  0.18782  1.0000
  C   C908      1.0  0.97064  0.15345  0.17799  1.0000
  C   C909      1.0  0.95503  0.14791  0.18525  1.0000
  C   C910      1.0  0.94706  0.14902  0.20242  1.0000
  C   C911      1.0  0.95486  0.15540  0.21229  1.0000
  C   C912      1.0  0.78648  0.14297  0.99815  1.0000
  H   H1546     1.0  0.97680  0.15281  0.16468  1.0000
  H   H1547     1.0  0.93509  0.14467  0.20820  1.0000
  H   H1548     1.0  0.94885  0.15590  0.22566  1.0000
  C   C913      1.0  0.86701  0.05197  0.22910  1.0000
  C   C914      1.0  0.86246  0.06818  0.21871  1.0000
  C   C915      1.0  0.86973  0.08197  0.21894  1.0000
  C   C916      1.0  0.88104  0.07964  0.23004  1.0000
  C   C917      1.0  0.88490  0.06365  0.24091  1.0000
  C   C918      1.0  0.87804  0.04986  0.24033  1.0000
  H   H1549     1.0  0.85360  0.06997  0.21032  1.0000
  H   H1550     1.0  0.86647  0.09438  0.21067  1.0000
  H   H1551     1.0  0.89345  0.06180  0.24963  1.0000
  H   H1552     1.0  0.88142  0.03742  0.24855  1.0000
  C   C919      1.0  0.78289  0.07183  0.21678  1.0000
  C   C920      1.0  0.76930  0.08620  0.21744  1.0000
  C   C921      1.0  0.77107  0.10063  0.22272  1.0000
  C   C922      1.0  0.78639  0.10055  0.22739  1.0000
  C   C923      1.0  0.79956  0.08586  0.22738  1.0000
  C   C924      1.0  0.79770  0.07149  0.22236  1.0000
  H   H1553     1.0  0.75764  0.08638  0.21347  1.0000
  H   H1554     1.0  0.76072  0.11184  0.22295  1.0000
  H   H1555     1.0  0.81146  0.08561  0.23086  1.0000
  H   H1556     1.0  0.80784  0.06012  0.22279  1.0000
  H   H1557     1.0  0.80129  0.07887  0.00566  1.0000
  H   H1558     1.0  0.78214  0.99680  0.18976  1.0000
  C   C925      1.0  0.83795  0.17812  0.15073  1.0000
  H   H1559     1.0  0.81124  0.20621  0.14590  1.0000
  C   C926      1.0  0.85719  0.14761  0.10855  1.0000
  C   C927      1.0  0.85318  0.13140  0.11608  1.0000
  C   C928      1.0  0.86065  0.12101  0.12985  1.0000
  C   C929      1.0  0.87180  0.12698  0.13635  1.0000
  C   C930      1.0  0.87541  0.14338  0.12915  1.0000
  C   C931      1.0  0.86825  0.15361  0.11512  1.0000
  H   H1560     1.0  0.84465  0.12672  0.11106  1.0000
  H   H1561     1.0  0.85783  0.10833  0.13545  1.0000
  H   H1562     1.0  0.88410  0.14798  0.13405  1.0000
  H   H1563     1.0  0.87132  0.16617  0.10931  1.0000
  C   C932      1.0  0.81643  0.08542  0.11257  1.0000
  C   C933      1.0  0.81373  0.06949  0.12289  1.0000
  C   C934      1.0  0.82554  0.05967  0.13313  1.0000
  C   C935      1.0  0.84021  0.06562  0.13272  1.0000
  C   C936      1.0  0.84309  0.08138  0.12210  1.0000
  C   C937      1.0  0.83106  0.09142  0.11221  1.0000
  H   H1564     1.0  0.80240  0.06486  0.12317  1.0000
  H   H1565     1.0  0.82343  0.04738  0.14111  1.0000
  H   H1566     1.0  0.85451  0.08593  0.12170  1.0000
  H   H1567     1.0  0.83315  0.10374  0.10427  1.0000
  C   C938      1.0  0.75552  0.17618  0.12532  1.0000
  C   C939      1.0  0.76657  0.16949  0.13705  1.0000
  C   C940      1.0  0.75971  0.16687  0.15501  1.0000
  C   C941      1.0  0.74180  0.17057  0.16114  1.0000
  H   H1568     1.0  0.84760  0.17014  0.14206  1.0000
  H   H1569     1.0  0.80056  0.07857  0.03717  1.0000
  H   H1570     1.0  0.78032  0.16638  0.13228  1.0000
  H   H1571     1.0  0.76818  0.16163  0.16407  1.0000
  C   C942      1.0  0.66689  0.21712  0.25797  1.0000
  H   H1572     1.0  0.91519  0.22624  0.18640  1.0000
  C   C943      1.0  0.77399  0.13453  0.00979  1.0000
  H   H1573     1.0  0.78256  0.18615  0.16532  1.0000
  C   C944      1.0  0.79729  0.14977  0.00434  1.0000
  C   C945      1.0  0.79596  0.14772  0.02219  1.0000
  C   C946      1.0  0.78382  0.13878  0.03377  1.0000
  C   C947      1.0  0.77268  0.13247  0.02760  1.0000
  C   C948      1.0  0.82207  0.12622  0.25234  1.0000
  N   N66       1.0  0.81976  0.17835  0.14943  1.0000
  H   H1574     1.0  0.78288  0.13679  0.04748  1.0000
  H   H1575     1.0  0.76306  0.12588  0.03664  1.0000
  S   S286      1.0  0.78738  0.20231  0.20202  1.0000
  H   H1576     1.0  0.85062  0.12057  0.26130  1.0000
  H   H1577     1.0  0.71706  0.17999  0.15400  1.0000
  H   H1578     1.0  0.82108  0.13536  0.17133  1.0000
  C   C949      1.0  0.98383  0.11569  0.23321  1.0000
  H   H1579     1.0  0.98172  0.12606  0.20676  1.0000
  H   H1580     1.0  0.76326  0.02681  0.18755  1.0000
  H   H1581     1.0  0.82368  0.13658  0.25797  1.0000
  C   C950      1.0  0.89812  0.18887  0.21306  1.0000
  N   N67       1.0  0.78639  0.10235  0.16360  1.0000
  C   C951      1.0  0.80356  0.09069  0.16581  1.0000
  C   C952      1.0  0.77324  0.09103  0.16870  1.0000
  C   C953      1.0  0.78209  0.11490  0.17555  1.0000
  C   C954      1.0  0.78816  0.11173  0.14500  1.0000
  C   C955      1.0  0.81871  0.09971  0.16325  1.0000
  C   C956      1.0  0.77631  0.07736  0.15769  1.0000
  C   C957      1.0  0.76293  0.12343  0.18071  1.0000
  C   C958      1.0  0.77155  0.12179  0.13861  1.0000
  H   H1582     1.0  0.80238  0.08224  0.17895  1.0000
  H   H1583     1.0  0.80793  0.08186  0.15652  1.0000
  H   H1584     1.0  0.75997  0.09855  0.16854  1.0000
  H   H1585     1.0  0.77261  0.08416  0.18237  1.0000
  H   H1586     1.0  0.78630  0.10844  0.18795  1.0000
  H   H1587     1.0  0.78937  0.12550  0.16991  1.0000
  H   H1588     1.0  0.79653  0.12125  0.14226  1.0000
  H   H1589     1.0  0.79526  0.10291  0.13608  1.0000
  H   H1590     1.0  0.82125  0.10807  0.15026  1.0000
  H   H1591     1.0  0.81670  0.10706  0.17351  1.0000
  H   H1592     1.0  0.83067  0.08973  0.16424  1.0000
  H   H1593     1.0  0.78771  0.06703  0.15995  1.0000
  H   H1594     1.0  0.76504  0.07100  0.16162  1.0000
  H   H1595     1.0  0.77763  0.08310  0.14369  1.0000
  H   H1596     1.0  0.76191  0.13350  0.18802  1.0000
  H   H1597     1.0  0.75532  0.11405  0.18955  1.0000
  H   H1598     1.0  0.75687  0.12979  0.16949  1.0000
  H   H1599     1.0  0.76832  0.13518  0.14063  1.0000
  H   H1600     1.0  0.76021  0.11579  0.14434  1.0000
  H   H1601     1.0  0.77367  0.12226  0.12451  1.0000
  N   N68       1.0  0.82284  0.08946  0.02294  1.0000
  C   C959      1.0  0.82792  0.08784  0.03991  1.0000
  C   C960      1.0  0.80373  0.08986  0.02690  1.0000
  C   C961      1.0  0.82708  0.10589  0.01100  1.0000
  H   H1602     1.0  0.94217  0.22061  0.19018  1.0000
  C   C962      1.0  0.67908  0.22716  0.24346  1.0000
  H   H1603     1.0  0.82630  0.07518  0.04858  1.0000
  H   H1604     1.0  0.72047  0.22079  0.21906  1.0000
  H   H1605     1.0  0.79632  0.10146  0.03211  1.0000
  H   H1606     1.0  0.81718  0.11713  0.01468  1.0000
  H   H1607     1.0  0.78133  0.02373  0.19707  1.0000
  C   C963      1.0  0.81950  0.11968  0.29041  1.0000
  H   H1608     1.0  0.82426  0.10014  0.06160  1.0000
  H   H1609     1.0  0.80642  0.17471  0.13135  1.0000
  C   C964      1.0  0.83422  0.07639  0.26060  1.0000
  C   C965      1.0  0.79566  0.09022  0.01175  1.0000
  C   C966      1.0  0.73772  0.18022  0.13153  1.0000
  C   C967      1.0  0.77629  0.19686  0.04614  1.0000
  H   H1610     1.0  0.78172  0.09003  0.01678  1.0000
  N   N69       1.0  0.74903  0.18539  0.04833  1.0000
  S   S287      1.0  0.74405  0.18863  0.21372  1.0000
  H   H1611     1.0  0.80565  0.10681  0.28019  1.0000
  H   H1612     1.0  0.79616  0.10233  0.00199  1.0000
  H   H1613     1.0  0.97669  0.06562  0.21902  1.0000
  H   H1614     1.0  0.84109  0.20392  0.13462  1.0000
  H   H1615     1.0  0.81102  0.13221  0.28628  1.0000
  H   H1616     1.0  0.68546  0.19469  0.23776  1.0000
  C   C968      1.0  0.82911  0.10725  0.99132  1.0000
  C   C969      1.0  0.81941  0.10632  0.28011  1.0000
  S   S288      1.0  0.75932  0.12722  0.00250  1.0000
  C   C970      1.0  0.81397  0.16295  0.16213  1.0000
  H   H1617     1.0  0.89830  0.17632  0.21019  1.0000
  C   C971      1.0  0.74540  0.18269  0.06784  1.0000
  C   C972      1.0  0.82977  0.13097  0.23280  1.0000
  C   C973      1.0  0.72354  0.23301  0.31670  1.0000
  H   H1618     1.0  0.83695  0.19301  0.11456  1.0000
  H   H1619     1.0  0.91556  0.20509  0.21158  1.0000
  C   C974      1.0  0.74559  0.17153  0.02443  1.0000
  H   H1620     1.0  0.77494  0.17057  0.04822  1.0000
  H   H1621     1.0  0.73769  0.20548  0.24814  1.0000
  H   H1622     1.0  0.90326  0.18603  0.18093  1.0000
  H   H1623     1.0  0.83670  0.20271  0.15768  1.0000
  H   H1624     1.0  0.84513  0.21387  0.18975  1.0000
  H   H1625     1.0  0.69007  0.19555  0.20596  1.0000
  H   H1626     1.0  0.82823  0.07227  0.27436  1.0000
  H   H1627     1.0  0.82603  0.12360  0.22518  1.0000
  C   C975      1.0  0.82578  0.14523  0.16023  1.0000
  C   C976      1.0  0.86979  0.07387  0.17130  1.0000
  H   H1628     1.0  0.88518  0.06267  0.19030  1.0000
  H   H1629     1.0  0.89097  0.08154  0.17597  1.0000
  H   H1630     1.0  0.87033  0.07990  0.15752  1.0000
  H   H1631     1.0  0.86100  0.08342  0.17877  1.0000
  H   H1632     1.0  0.86382  0.06248  0.17465  1.0000
  H   H1633     1.0  0.69352  0.19303  0.28681  1.0000
  C   C977      1.0  0.78834  0.19587  0.15485  1.0000
  H   H1634     1.0  0.84017  0.17190  0.16401  1.0000
  S   S289      1.0  0.72040  0.17660  0.26247  1.0000
  C   C978      1.0  0.88744  0.06917  0.17644  1.0000
  H   H1635     1.0  0.72934  0.17162  0.04913  1.0000
  H   H1636     1.0  0.77597  0.19487  0.06016  1.0000
  C   C979      1.0  0.81961  0.20857  0.19567  1.0000
  H   H1637     1.0  0.84848  0.07346  0.25861  1.0000
  H   H1638     1.0  0.74879  0.19315  0.07192  1.0000
  H   H1639     1.0  0.85606  0.10551  0.24767  1.0000
  H   H1640     1.0  0.84181  0.08821  0.03781  1.0000
  H   H1641     1.0  0.70473  0.20175  0.23481  1.0000
  H   H1642     1.0  0.83940  0.10806  0.01266  1.0000
  H   H1643     1.0  0.88442  0.04584  0.15939  1.0000
  H   H1644     1.0  0.89118  0.08616  0.13289  1.0000
  H   H1645     1.0  0.88878  0.06437  0.13641  1.0000
  H   H1646     1.0  0.73618  0.00925  0.22714  1.0000
  N   N70       1.0  0.90188  0.05797  0.16618  1.0000
  H   H1647     1.0  0.89148  0.03500  0.17840  1.0000
  H   H1648     1.0  0.91066  0.08077  0.15004  1.0000
  H   H1649     1.0  0.91242  0.07106  0.19172  1.0000
  H   H1650     1.0  0.89546  0.18703  0.22738  1.0000
  H   H1651     1.0  0.75017  0.15841  0.04980  1.0000
  C   C980      1.0  0.89592  0.04237  0.16514  1.0000
  C   C981      1.0  0.89820  0.07253  0.13446  1.0000
  H   H1652     1.0  0.91227  0.04215  0.18835  1.0000
  C   C982      1.0  0.77143  0.00032  0.20060  1.0000
  H   H1653     1.0  0.85801  0.06016  0.00503  1.0000
  C   C983      1.0  0.91622  0.05144  0.17618  1.0000
  C   C984      1.0  0.90886  0.06819  0.14870  1.0000
  C   C985      1.0  0.92237  0.06525  0.18156  1.0000
  H   H1654     1.0  0.92614  0.07549  0.17041  1.0000
  C   C986      1.0  0.82334  0.19188  0.11676  1.0000
  H   H1655     1.0  0.77261  0.18375  0.02819  1.0000
  C   C987      1.0  0.83251  0.07355  0.01592  1.0000
  H   H1656     1.0  0.82874  0.06183  0.02505  1.0000
  H   H1657     1.0  0.93390  0.05907  0.18730  1.0000
  C   C988      1.0  0.90936  0.02975  0.15485  1.0000
  H   H1658     1.0  0.92786  0.04420  0.16862  1.0000
  H   H1659     1.0  0.92210  0.06170  0.14317  1.0000
  H   H1660     1.0  0.90301  0.01968  0.15379  1.0000
  H   H1661     1.0  0.85726  0.06663  0.02448  1.0000
  C   C989      1.0  0.91284  0.21743  0.17930  1.0000
  H   H1662     1.0  0.82166  0.18934  0.10461  1.0000
  C   C990      1.0  0.91569  0.19430  0.20553  1.0000
  H   H1663     1.0  0.69905  0.22913  0.31558  1.0000
  H   H1664     1.0  0.66023  0.22512  0.26783  1.0000
  H   H1665     1.0  0.93706  0.18655  0.15372  1.0000
  H   H1666     1.0  0.71723  0.19332  0.07216  1.0000
  H   H1667     1.0  0.91443  0.03622  0.14149  1.0000
  H   H1668     1.0  0.92012  0.02299  0.16154  1.0000
  H   H1669     1.0  0.80453  0.10067  0.05618  1.0000
  C   C991      1.0  0.84859  0.10786  0.26058  1.0000
  C   C992      1.0  0.74332  0.17127  0.04381  1.0000
  C   C993      1.0  0.69716  0.21906  0.28269  1.0000
  C   C994      1.0  0.85236  0.07073  0.01231  1.0000
  H   H1670     1.0  0.83102  0.06825  0.25333  1.0000
  H   H1671     1.0  0.88610  0.22587  0.19260  1.0000
  H   H1672     1.0  0.65648  0.21432  0.25345  1.0000
  C   C995      1.0  0.70059  0.19595  0.21200  1.0000
  C   C996      1.0  0.85740  0.09441  0.27444  1.0000
  H   H1673     1.0  0.81340  0.09678  0.25356  1.0000
  H   H1674     1.0  0.85720  0.08231  0.00432  1.0000
  H   H1675     1.0  0.75109  0.22235  0.02112  1.0000
  H   H1676     1.0  0.82913  0.07327  0.00375  1.0000
  H   H1677     1.0  0.81863  0.11507  0.04280  1.0000
  H   H1678     1.0  0.98429  0.12885  0.23419  1.0000
  H   H1679     1.0  0.98470  0.11537  0.17361  1.0000
  C   C997      1.0  0.89318  0.22169  0.18032  1.0000
  C   C998      1.0  0.73914  0.20293  0.04133  1.0000
  H   H1680     1.0  0.78113  0.20860  0.15777  1.0000
  C   C999      1.0  0.82735  0.09542  0.25318  1.0000
  H   H1681     1.0  0.83390  0.09738  0.23931  1.0000
  H   H1682     1.0  0.66162  0.21192  0.22615  1.0000
  H   H1683     1.0  0.78607  0.19529  0.14222  1.0000
  H   H1684     1.0  0.91827  0.17974  0.15338  1.0000
  H   H1685     1.0  0.73041  0.23499  0.25411  1.0000
  H   H1686     1.0  0.72307  0.16990  0.07751  1.0000
  C   C1000     1.0  0.81812  0.10187  0.05047  1.0000
  H   H1687     1.0  0.99022  0.16447  0.18194  1.0000
  C   C1001     1.0  0.69369  0.20342  0.22859  1.0000
  H   H1688     1.0  0.84398  0.12945  0.23001  1.0000
  H   H1689     1.0  0.72914  0.18547  0.12256  1.0000
  H   H1690     1.0  0.94708  0.18399  0.18357  1.0000
  H   H1691     1.0  0.92335  0.17301  0.18322  1.0000
  H   H1692     1.0  0.92528  0.18319  0.21078  1.0000
  C   C1002     1.0  0.83758  0.20396  0.19327  1.0000
  H   H1693     1.0  0.88721  0.19852  0.20867  1.0000
  H   H1694     1.0  0.82363  0.09346  0.28788  1.0000
  H   H1695     1.0  0.78777  0.00729  0.22296  1.0000
  H   H1696     1.0  0.69744  0.23106  0.20018  1.0000
  H   H1697     1.0  0.75487  0.20232  0.01424  1.0000
  C   C1003     1.0  0.73089  0.17716  0.14934  1.0000
  H   H1698     1.0  0.83264  0.12170  0.28929  1.0000
  C   C1004     1.0  0.74546  0.21107  0.02210  1.0000
  C   C1005     1.0  0.94037  0.19769  0.18150  1.0000
  C   C1006     1.0  0.94784  0.20667  0.19156  1.0000
  H   H1699     1.0  0.94483  0.20301  0.16753  1.0000
  H   H1700     1.0  0.87055  0.08855  0.26810  1.0000
  H   H1701     1.0  0.77002  0.21028  0.04138  1.0000
  H   H1702     1.0  0.80789  0.12771  0.25383  1.0000
  H   H1703     1.0  0.75992  0.99806  0.19752  1.0000
  C   C1007     1.0  0.91714  0.18636  0.17782  1.0000
  C   C1008     1.0  0.92281  0.18912  0.15796  1.0000
  H   H1704     1.0  0.91706  0.20215  0.15150  1.0000
  C   C1009     1.0  0.70757  0.23091  0.27353  1.0000
  H   H1705     1.0  0.91916  0.22209  0.16567  1.0000
  H   H1706     1.0  0.95740  0.09233  0.23504  1.0000
  C   C1010     1.0  0.71608  0.19730  0.26706  1.0000
  H   H1707     1.0  0.88792  0.21114  0.17883  1.0000
  C   C1011     1.0  0.72645  0.20916  0.25786  1.0000
  H   H1708     1.0  0.68560  0.22297  0.29189  1.0000
  H   H1709     1.0  0.85088  0.08361  0.28126  1.0000
  C   C1012     1.0  0.76832  0.18349  0.04222  1.0000
  H   H1710     1.0  0.94296  0.09676  0.22115  1.0000
  C   C1013     1.0  0.72229  0.22587  0.26123  1.0000
  C   C1014     1.0  0.95393  0.10113  0.22320  1.0000
  H   H1711     1.0  0.94925  0.11447  0.22552  1.0000
  N   N71       1.0  0.82973  0.10866  0.26179  1.0000
  H   H1712     1.0  0.74172  0.15994  0.02313  1.0000
  H   H1713     1.0  0.82856  0.16514  0.12794  1.0000
  H   H1714     1.0  0.81264  0.16439  0.17565  1.0000
  H   H1715     1.0  0.82435  0.14473  0.22804  1.0000
  H   H1716     1.0  0.81334  0.22203  0.19394  1.0000
  H   H1717     1.0  0.80672  0.15661  0.99531  1.0000
  H   H1718     1.0  0.79012  0.19518  0.03955  1.0000
  H   H1719     1.0  0.81447  0.20422  0.11872  1.0000
  H   H1720     1.0  0.75358  0.17051  0.07345  1.0000
  H   H1721     1.0  0.81420  0.11508  0.30433  1.0000
  H   H1722     1.0  0.82532  0.14143  0.14828  1.0000
  H   H1723     1.0  0.96195  0.20538  0.18630  1.0000
  H   H1724     1.0  0.83938  0.14462  0.16053  1.0000
  C   C1015     1.0  0.96858  0.10048  0.20702  1.0000
  C   C1016     1.0  0.80759  0.19431  0.15453  1.0000
  H   H1725     1.0  0.80843  0.19516  0.16763  1.0000
  H   H1726     1.0  0.96752  0.09051  0.20051  1.0000
  H   H1727     1.0  0.85939  0.10079  0.28404  1.0000
  H   H1728     1.0  0.96501  0.11264  0.19779  1.0000
  H   H1729     1.0  0.80102  0.16190  0.16110  1.0000
  C   C1017     1.0  0.81925  0.17673  0.13160  1.0000
  H   H1730     1.0  0.73696  0.18277  0.01816  1.0000
  H   H1731     1.0  0.72529  0.20256  0.04310  1.0000
  H   H1732     1.0  0.76088  0.00419  0.23705  1.0000
  H   H1733     1.0  0.75993  0.02441  0.21054  1.0000
  H   H1734     1.0  0.97064  0.11369  0.23940  1.0000
  H   H1735     1.0  0.70750  0.18240  0.21546  1.0000
  C   C1018     1.0  0.79083  0.99398  0.22048  1.0000
  C   C1019     1.0  0.76880  0.01991  0.19908  1.0000
  H   H1736     1.0  0.73423  0.21617  0.01571  1.0000
  N   N72       1.0  0.98671  0.09845  0.20940  1.0000
  H   H1737     1.0  0.71682  0.21343  0.30804  1.0000
  H   H1738     1.0  0.80872  0.98809  0.23779  1.0000
  H   H1739     1.0  0.98426  0.08379  0.23594  1.0000
  H   H1740     1.0  0.89009  0.23240  0.16941  1.0000
  H   H1741     1.0  0.67184  0.22166  0.20556  1.0000
  H   H1742     1.0  0.67417  0.20477  0.26426  1.0000
  H   H1743     1.0  0.81559  0.99443  0.17252  1.0000
  N   N73       1.0  0.68386  0.22181  0.22623  1.0000
  H   H1744     1.0  0.80125  0.99409  0.20862  1.0000
  C   C1020     1.0  0.66811  0.22292  0.21936  1.0000
  C   C1021     1.0  0.69466  0.23374  0.21343  1.0000
  C   C1022     1.0  0.74199  0.99527  0.22974  1.0000
  H   H1745     1.0  0.69083  0.22533  0.24863  1.0000
  H   H1746     1.0  0.73674  0.22600  0.31809  1.0000
  C   C1023     1.0  0.98897  0.11436  0.21399  1.0000
  C   C1024     1.0  0.99182  0.08272  0.22276  1.0000
  C   C1025     1.0  0.99006  0.06547  0.21975  1.0000
  C   C1026     1.0  0.76048  0.99245  0.23275  1.0000
  H   H1747     1.0  0.73372  0.98964  0.24187  1.0000
  N   N74       1.0  0.77519  0.98935  0.21760  1.0000
  H   H1748     1.0  0.74079  0.98938  0.21948  1.0000
  H   H1749     1.0  0.82364  0.09805  0.98766  1.0000
  H   H1750     1.0  0.82255  0.12031  0.98562  1.0000
  H   H1751     1.0  0.50629  0.21028  0.37761  1.0000
  H   H1752     1.0  0.52041  0.22117  0.34598  1.0000
  H   H1753     1.0  0.68832  0.19750  0.36836  1.0000
  C   C1027     1.0  0.72621  0.18096  0.35208  1.0000
  H   H1754     1.0  0.61807  0.22162  0.64832  1.0000
  H   H1755     1.0  0.71697  0.18142  0.36454  1.0000
  H   H1756     1.0  0.70707  0.22737  0.35088  1.0000
  H   H1757     1.0  0.73932  0.17632  0.35503  1.0000
  C   C1028     1.0  0.50818  0.22866  0.35245  1.0000
  H   H1758     1.0  0.72412  0.17117  0.34600  1.0000
  H   H1759     1.0  0.64900  0.22728  0.63623  1.0000
  C   C1029     1.0  0.49907  0.21599  0.36706  1.0000
  H   H1760     1.0  0.51518  0.23137  0.38390  1.0000
  H   H1761     1.0  0.54890  0.23020  0.35633  1.0000
  H   H1762     1.0  0.54584  0.22150  0.37879  1.0000
  H   H1763     1.0  0.70394  0.19049  0.32291  1.0000
  H   H1764     1.0  0.53756  0.21255  0.36566  1.0000
  C   C1030     1.0  0.67873  0.20487  0.33275  1.0000
  C   C1031     1.0  0.69756  0.19663  0.33430  1.0000
  H   H1765     1.0  0.68747  0.22868  0.34548  1.0000
  H   H1766     1.0  0.69660  0.18574  0.34553  1.0000
  C   C1032     1.0  0.53954  0.22478  0.36752  1.0000
  H   H1767     1.0  0.63366  0.23674  0.39520  1.0000
  C   C1033     1.0  0.69880  0.21915  0.34951  1.0000
  H   H1768     1.0  0.70305  0.20601  0.37556  1.0000
  H   H1769     1.0  0.67091  0.20860  0.34500  1.0000
  C   C1034     1.0  0.69278  0.20925  0.36798  1.0000
  H   H1770     1.0  0.49811  0.20518  0.36169  1.0000
  N   N75       1.0  0.70812  0.20857  0.33597  1.0000
  H   H1771     1.0  0.68131  0.21748  0.37466  1.0000
  H   H1772     1.0  0.73457  0.19584  0.32730  1.0000
  C   C1035     1.0  0.72554  0.19861  0.33953  1.0000
  H   H1773     1.0  0.73164  0.20646  0.34461  1.0000
  H   H1774     1.0  0.49986  0.23331  0.34270  1.0000
  H   H1775     1.0  0.67758  0.21618  0.32207  1.0000
  H   H1776     1.0  0.67278  0.19526  0.33018  1.0000
  H   H1777     1.0  0.60051  0.23657  0.61373  1.0000
  H   H1778     1.0  0.57073  0.23739  0.63113  1.0000
  C   C1036     1.0  0.71128  0.22076  0.31868  1.0000
  Fe  Fe144     1.0  0.79785  0.08843  0.96427  1.0000
  H   H1779     1.0  0.83868  0.01175  0.97200  1.0000
  S   S290      1.0  0.82140  0.06954  0.97089  1.0000
  Fe  Fe145     1.0  0.78413  0.12012  0.93979  1.0000
  H   H1780     1.0  0.97907  0.09511  0.88800  1.0000
  S   S291      1.0  0.79399  0.13554  0.91390  1.0000
  C   C1037     1.0  0.94227  0.05939  0.92708  1.0000
  Fe  Fe146     1.0  0.76181  0.09410  0.95781  1.0000
  S   S292      1.0  0.74062  0.08179  0.95680  1.0000
  S   S293      1.0  0.79651  0.11641  0.96233  1.0000
  S   S294      1.0  0.78784  0.09204  0.94028  1.0000
  Fe  Fe147     1.0  0.76982  0.11627  0.97834  1.0000
  Fe  Fe148     1.0  0.88644  0.10467  0.89228  1.0000
  S   S295      1.0  0.90674  0.09092  0.87337  1.0000
  S   S296      1.0  0.88693  0.09475  0.92056  1.0000
  Fe  Fe149     1.0  0.87212  0.13211  0.86384  1.0000
  S   S297      1.0  0.89155  0.12079  0.84273  1.0000
  S   S298      1.0  0.85081  0.15520  0.85885  1.0000
  Fe  Fe150     1.0  0.88572  0.09554  0.85879  1.0000
  S   S299      1.0  0.88073  0.07681  0.84562  1.0000
  Fe  Fe151     1.0  0.91063  0.11743  0.85931  1.0000
  S   S300      1.0  0.93782  0.12164  0.84806  1.0000
  S   S301      1.0  0.86501  0.10705  0.87894  1.0000
  S   S302      1.0  0.89169  0.13097  0.87923  1.0000
  H   H1781     1.0  0.75726  0.14861  0.92375  1.0000
  Fe  Fe152     1.0  0.74848  0.17522  0.80440  1.0000
  S   S303      1.0  0.76358  0.14916  0.80004  1.0000
  S   S304      1.0  0.74406  0.19467  0.78006  1.0000
  Fe  Fe153     1.0  0.74744  0.16516  0.84291  1.0000
  S   S305      1.0  0.76259  0.13847  0.84163  1.0000
  S   S306      1.0  0.73746  0.17155  0.86923  1.0000
  Fe  Fe154     1.0  0.77910  0.15125  0.81804  1.0000
  S   S307      1.0  0.80779  0.14195  0.81123  1.0000
  Fe  Fe155     1.0  0.74571  0.13885  0.82396  1.0000
  S   S308      1.0  0.73448  0.11550  0.82820  1.0000
  S   S309      1.0  0.76547  0.17816  0.82072  1.0000
  S   S310      1.0  0.72909  0.16469  0.82694  1.0000
  Fe  Fe156     1.0  0.77589  0.02363  0.88919  1.0000
  H   H1782     1.0  0.79838  0.99821  0.94595  1.0000
  S   S311      1.0  0.75086  0.02982  0.90779  1.0000
  Fe  Fe157     1.0  0.79549  0.03289  0.85262  1.0000
  H   H1783     1.0  0.68734  0.12367  0.78014  1.0000
  S   S312      1.0  0.79630  0.05111  0.82692  1.0000
  N   N76       1.0  0.80501  0.03050  0.95016  1.0000
  Fe  Fe158     1.0  0.81436  0.02098  0.88216  1.0000
  S   S313      1.0  0.83432  0.02522  0.89420  1.0000
  S   S314      1.0  0.77668  0.01537  0.86471  1.0000
  S   S315      1.0  0.79257  0.04293  0.87643  1.0000
  C   C1038     1.0  0.80641  0.19903  0.80258  1.0000
  C   C1039     1.0  0.75138  0.09738  0.82755  1.0000
  C   C1040     1.0  0.76722  0.09874  0.81619  1.0000
  C   C1041     1.0  0.78082  0.08436  0.81581  1.0000
  C   C1042     1.0  0.77887  0.06873  0.82725  1.0000
  C   C1043     1.0  0.76314  0.06740  0.83887  1.0000
  C   C1044     1.0  0.74929  0.08164  0.83878  1.0000
  H   H1784     1.0  0.76895  0.11082  0.80751  1.0000
  H   H1785     1.0  0.79299  0.08545  0.80688  1.0000
  H   H1786     1.0  0.76158  0.05537  0.84778  1.0000
  H   H1787     1.0  0.73710  0.08057  0.84766  1.0000
  H   H1788     1.0  0.83442  0.04669  0.93399  1.0000
  H   H1789     1.0  0.80650  0.20711  0.74690  1.0000
  C   C1045     1.0  0.71978  0.21473  0.76179  1.0000
  C   C1046     1.0  0.72282  0.20508  0.77796  1.0000
  C   C1047     1.0  0.70890  0.20340  0.79196  1.0000
  C   C1048     1.0  0.69201  0.21095  0.78968  1.0000
  H   H1790     1.0  0.82502  0.02178  0.79619  1.0000
  H   H1791     1.0  0.73049  0.21612  0.75091  1.0000
  H   H1792     1.0  0.71112  0.19621  0.80452  1.0000
  C   C1049     1.0  0.80594  0.04907  0.94222  1.0000
  C   C1050     1.0  0.86888  0.06166  0.85929  1.0000
  C   C1051     1.0  0.86587  0.05954  0.87728  1.0000
  C   C1052     1.0  0.85571  0.04789  0.88793  1.0000
  C   C1053     1.0  0.84802  0.03878  0.88064  1.0000
  C   C1054     1.0  0.85111  0.04083  0.86266  1.0000
  C   C1055     1.0  0.86181  0.05200  0.85203  1.0000
  H   H1793     1.0  0.87149  0.06679  0.88297  1.0000
  H   H1794     1.0  0.85369  0.04611  0.90182  1.0000
  H   H1795     1.0  0.84543  0.03369  0.85693  1.0000
  H   H1796     1.0  0.86439  0.05339  0.83812  1.0000
  C   C1056     1.0  0.83919  0.15296  0.84446  1.0000
  C   C1057     1.0  0.84711  0.14286  0.83202  1.0000
  C   C1058     1.0  0.83751  0.14018  0.82135  1.0000
  C   C1059     1.0  0.81986  0.14729  0.82329  1.0000
  C   C1060     1.0  0.81199  0.15786  0.83533  1.0000
  C   C1061     1.0  0.82170  0.16086  0.84576  1.0000
  H   H1797     1.0  0.86061  0.13694  0.83069  1.0000
  H   H1798     1.0  0.84373  0.13213  0.81193  1.0000
  H   H1799     1.0  0.79841  0.16355  0.83675  1.0000
  H   H1800     1.0  0.81550  0.16886  0.85519  1.0000
  C   C1062     1.0  0.96234  0.14251  0.88063  1.0000
  C   C1063     1.0  0.94444  0.14689  0.88190  1.0000
  C   C1064     1.0  0.93675  0.14079  0.87175  1.0000
  C   C1065     1.0  0.94700  0.13066  0.85996  1.0000
  C   C1066     1.0  0.96494  0.12680  0.85826  1.0000
  C   C1067     1.0  0.78381  0.21157  0.77840  1.0000
  H   H1801     1.0  0.93646  0.15475  0.89097  1.0000
  H   H1802     1.0  0.92293  0.14401  0.87298  1.0000
  H   H1803     1.0  0.78052  0.17976  0.78060  1.0000
  C   C1068     1.0  0.83351  0.02201  0.96174  1.0000
  C   C1069     1.0  0.83957  0.07614  0.95648  1.0000
  C   C1070     1.0  0.85561  0.07084  0.96122  1.0000
  C   C1071     1.0  0.87006  0.07663  0.95007  1.0000
  C   C1072     1.0  0.86867  0.08722  0.93387  1.0000
  C   C1073     1.0  0.85270  0.09209  0.92892  1.0000
  C   C1074     1.0  0.83807  0.08692  0.94040  1.0000
  H   H1804     1.0  0.81033  0.01179  0.97338  1.0000
  H   H1805     1.0  0.88238  0.07280  0.95394  1.0000
  H   H1806     1.0  0.85147  0.10010  0.91642  1.0000
  H   H1807     1.0  0.82570  0.09117  0.93668  1.0000
  C   C1075     1.0  0.74439  0.06738  0.94295  1.0000
  C   C1076     1.0  0.75954  0.06501  0.93029  1.0000
  C   C1077     1.0  0.76194  0.05325  0.91953  1.0000
  C   C1078     1.0  0.74896  0.04425  0.92115  1.0000
  C   C1079     1.0  0.73376  0.04694  0.93360  1.0000
  C   C1080     1.0  0.73152  0.05838  0.94448  1.0000
  H   H1808     1.0  0.76925  0.07235  0.92869  1.0000
  H   H1809     1.0  0.77368  0.05131  0.90989  1.0000
  H   H1810     1.0  0.72368  0.04007  0.93488  1.0000
  H   H1811     1.0  0.71973  0.06027  0.95414  1.0000
  C   C1081     1.0  0.77818  0.14602  0.90172  1.0000
  C   C1082     1.0  0.78292  0.14946  0.88365  1.0000
  C   C1083     1.0  0.77041  0.15739  0.87368  1.0000
  C   C1084     1.0  0.75319  0.16228  0.88173  1.0000
  C   C1085     1.0  0.74847  0.15920  0.89981  1.0000
  C   C1086     1.0  0.76095  0.15092  0.90981  1.0000
  H   H1812     1.0  0.79623  0.14585  0.87732  1.0000
  H   H1813     1.0  0.77411  0.15993  0.85974  1.0000
  H   H1814     1.0  0.73515  0.16305  0.90606  1.0000
  H   H1815     1.0  0.82284  0.19166  0.75615  1.0000
  N   N77       1.0  0.94729  0.09038  0.91221  1.0000
  C   C1087     1.0  0.69298  0.17955  0.76570  1.0000
  S   S316      1.0  0.75708  0.12269  0.95553  1.0000
  C   C1088     1.0  0.96750  0.17680  0.84461  1.0000
  C   C1089     1.0  0.94496  0.09295  0.89396  1.0000
  H   H1816     1.0  0.71151  0.12615  0.80145  1.0000
  C   C1090     1.0  0.81232  0.01968  0.93653  1.0000
  H   H1817     1.0  0.76843  0.01002  0.80187  1.0000
  C   C1091     1.0  0.95114  0.07725  0.88521  1.0000
  C   C1092     1.0  0.97920  0.09359  0.90184  1.0000
  H   H1818     1.0  0.82596  0.02031  0.93054  1.0000
  H   H1819     1.0  0.67670  0.13367  0.79833  1.0000
  H   H1820     1.0  0.70385  0.15408  0.76012  1.0000
  H   H1821     1.0  0.78493  0.18947  0.75835  1.0000
  C   C1093     1.0  0.70505  0.13271  0.79037  1.0000
  H   H1822     1.0  0.94084  0.06972  0.88819  1.0000
  H   H1823     1.0  0.95104  0.10351  0.88533  1.0000
  H   H1824     1.0  0.69044  0.17248  0.80183  1.0000
  S   S317      1.0  0.79738  0.00221  0.89690  1.0000
  H   H1825     1.0  0.96317  0.06873  0.88842  1.0000
  H   H1826     1.0  0.79519  0.99434  0.83304  1.0000
  C   C1094     1.0  0.82249  0.05280  0.92911  1.0000
  H   H1827     1.0  0.79303  0.99563  0.78502  1.0000
  H   H1828     1.0  0.83716  0.03414  0.96182  1.0000
  H   H1829     1.0  0.79648  0.15789  0.76496  1.0000
  H   H1830     1.0  0.96628  0.16392  0.84370  1.0000
  C   C1095     1.0  0.81372  0.02413  0.96542  1.0000
  H   H1831     1.0  0.97036  0.06993  0.91148  1.0000
  N   N78       1.0  0.79435  0.00622  0.80628  1.0000
  H   H1832     1.0  0.94526  0.10684  0.92999  1.0000
  H   H1833     1.0  0.78798  0.22098  0.78326  1.0000
  S   S318      1.0  0.81885  0.01249  0.85715  1.0000
  H   H1834     1.0  0.77356  0.20667  0.78909  1.0000
  H   H1835     1.0  0.77257  0.09534  0.85151  1.0000
  C   C1096     1.0  0.76642  0.02528  0.82041  1.0000
  H   H1836     1.0  0.79318  0.20260  0.81025  1.0000
  C   C1097     1.0  0.97254  0.13244  0.86879  1.0000
  H   H1837     1.0  0.79980  0.17758  0.79794  1.0000
  H   H1838     1.0  0.82329  0.04901  0.91681  1.0000
  H   H1839     1.0  0.79161  0.02597  0.78329  1.0000
  H   H1840     1.0  0.95282  0.05515  0.93440  1.0000
  H   H1841     1.0  0.98626  0.12888  0.86777  1.0000
  S   S319      1.0  0.97155  0.14968  0.89406  1.0000
  N   N79       1.0  0.72884  0.11267  0.90160  1.0000
  C   C1098     1.0  0.71187  0.12001  0.91240  1.0000
  C   C1099     1.0  0.73100  0.12481  0.88425  1.0000
  C   C1100     1.0  0.74288  0.11235  0.91063  1.0000
  C   C1101     1.0  0.72820  0.09473  0.90043  1.0000
  C   C1102     1.0  0.70810  0.11094  0.93163  1.0000
  C   C1103     1.0  0.71744  0.12658  0.87352  1.0000
  C   C1104     1.0  0.76154  0.10967  0.90022  1.0000
  C   C1105     1.0  0.74165  0.08626  0.88630  1.0000
  H   H1842     1.0  0.71101  0.13388  0.91217  1.0000
  H   H1843     1.0  0.70082  0.11965  0.90703  1.0000
  H   H1844     1.0  0.74376  0.12123  0.87590  1.0000
  H   H1845     1.0  0.73072  0.13793  0.88595  1.0000
  H   H1846     1.0  0.74060  0.12463  0.91516  1.0000
  H   H1847     1.0  0.74270  0.10205  0.92246  1.0000
  H   H1848     1.0  0.72954  0.08562  0.91289  1.0000
  H   H1849     1.0  0.71526  0.09415  0.89886  1.0000
  H   H1850     1.0  0.69476  0.11650  0.93777  1.0000
  H   H1851     1.0  0.70893  0.09692  0.93331  1.0000
  H   H1852     1.0  0.71681  0.11310  0.93893  1.0000
  H   H1853     1.0  0.72135  0.13448  0.86048  1.0000
  H   H1854     1.0  0.71651  0.11397  0.87157  1.0000
  H   H1855     1.0  0.70458  0.13345  0.87931  1.0000
  H   H1856     1.0  0.77035  0.10872  0.90889  1.0000
  H   H1857     1.0  0.76381  0.12083  0.88955  1.0000
  H   H1858     1.0  0.76531  0.09760  0.89539  1.0000
  H   H1859     1.0  0.75306  0.07817  0.89132  1.0000
  H   H1860     1.0  0.74585  0.09529  0.87430  1.0000
  H   H1861     1.0  0.73575  0.07762  0.88210  1.0000
  H   H1862     1.0  0.92105  0.12934  0.92213  1.0000
  H   H1863     1.0  0.77357  0.02692  0.82945  1.0000
  H   H1864     1.0  0.77824  0.10609  0.86478  1.0000
  N   N80       1.0  0.70239  0.15202  0.78749  1.0000
  N   N81       1.0  0.81505  0.09436  0.85364  1.0000
  C   C1106     1.0  0.83042  0.09521  0.83870  1.0000
  C   C1107     1.0  0.81152  0.11051  0.86071  1.0000
  C   C1108     1.0  0.79996  0.09415  0.84638  1.0000
  C   C1109     1.0  0.81925  0.07816  0.86687  1.0000
  C   C1110     1.0  0.83438  0.08160  0.82741  1.0000
  C   C1111     1.0  0.82642  0.11301  0.86751  1.0000
  C   C1112     1.0  0.78241  0.09457  0.85893  1.0000
  C   C1113     1.0  0.80888  0.07765  0.88570  1.0000
  H   H1865     1.0  0.82876  0.10799  0.82977  1.0000
  H   H1866     1.0  0.84246  0.09385  0.84331  1.0000
  H   H1867     1.0  0.80011  0.11131  0.87144  1.0000
  H   H1868     1.0  0.80822  0.12208  0.85063  1.0000
  H   H1869     1.0  0.79830  0.10524  0.83529  1.0000
  H   H1870     1.0  0.80226  0.08230  0.84114  1.0000
  H   H1871     1.0  0.81808  0.06671  0.86263  1.0000
  H   H1872     1.0  0.83297  0.07595  0.86779  1.0000
  H   H1873     1.0  0.83379  0.06849  0.83521  1.0000
  H   H1874     1.0  0.82540  0.08504  0.81837  1.0000
  H   H1875     1.0  0.84762  0.08123  0.81937  1.0000
  H   H1876     1.0  0.83072  0.10185  0.87741  1.0000
  H   H1877     1.0  0.83760  0.11545  0.85691  1.0000
  H   H1878     1.0  0.82210  0.12446  0.87361  1.0000
  H   H1879     1.0  0.78226  0.08254  0.86885  1.0000
  H   H1880     1.0  0.80643  0.06446  0.89141  1.0000
  H   H1881     1.0  0.79628  0.08657  0.88723  1.0000
  H   H1882     1.0  0.81671  0.07984  0.89390  1.0000
  N   N82       1.0  0.82836  0.16216  0.91724  1.0000
  C   C1114     1.0  0.82141  0.15479  0.93594  1.0000
  C   C1115     1.0  0.83822  0.14720  0.90875  1.0000
  C   C1116     1.0  0.81313  0.17193  0.90901  1.0000
  C   C1117     1.0  0.83985  0.17411  0.91674  1.0000
  C   C1118     1.0  0.80978  0.16791  0.94685  1.0000
  C   C1119     1.0  0.85396  0.13605  0.91611  1.0000
  C   C1120     1.0  0.81479  0.17217  0.88970  1.0000
  C   C1121     1.0  0.85022  0.18104  0.89881  1.0000
  H   H1883     1.0  0.81385  0.14493  0.93679  1.0000
  H   H1884     1.0  0.83203  0.14799  0.94288  1.0000
  H   H1885     1.0  0.84316  0.15155  0.89477  1.0000
  H   H1886     1.0  0.82952  0.13845  0.90947  1.0000
  H   H1887     1.0  0.80138  0.16653  0.91560  1.0000
  H   H1888     1.0  0.80949  0.18556  0.91061  1.0000
  H   H1889     1.0  0.83220  0.18563  0.92201  1.0000
  H   H1890     1.0  0.84924  0.16773  0.92528  1.0000
  H   H1891     1.0  0.80488  0.16080  0.96000  1.0000
  H   H1892     1.0  0.81705  0.17688  0.94853  1.0000
  H   H1893     1.0  0.79834  0.17530  0.94146  1.0000
  H   H1894     1.0  0.86079  0.12660  0.90778  1.0000
  H   H1895     1.0  0.86348  0.14360  0.91590  1.0000
  H   H1896     1.0  0.85017  0.12844  0.92928  1.0000
  H   H1897     1.0  0.82600  0.17727  0.88123  1.0000
  H   H1898     1.0  0.80305  0.18047  0.88537  1.0000
  H   H1899     1.0  0.81554  0.15913  0.88759  1.0000
  H   H1900     1.0  0.85900  0.17063  0.89251  1.0000
  H   H1901     1.0  0.85849  0.18918  0.90033  1.0000
  H   H1902     1.0  0.84167  0.18936  0.89016  1.0000
  H   H1903     1.0  0.79423  0.03359  0.80080  1.0000
  H   H1904     1.0  0.98636  0.16679  0.86080  1.0000
  H   H1905     1.0  0.68125  0.20947  0.80050  1.0000
  C   C1122     1.0  0.70285  0.22233  0.75951  1.0000
  H   H1906     1.0  0.77121  0.99799  0.82271  1.0000
  H   H1907     1.0  0.77964  0.03210  0.94558  1.0000
  N   N83       1.0  0.79851  0.19684  0.77418  1.0000
  C   C1123     1.0  0.77505  0.22241  0.76337  1.0000
  H   H1908     1.0  0.78741  0.14469  0.98441  1.0000
  H   H1909     1.0  0.93111  0.09755  0.89328  1.0000
  H   H1910     1.0  0.82013  0.18127  0.78576  1.0000
  C   C1124     1.0  0.78619  0.02949  0.95664  1.0000
  C   C1125     1.0  0.77538  0.04179  0.96882  1.0000
  C   C1126     1.0  0.62843  0.22823  0.66766  1.0000
  H   H1911     1.0  0.67611  0.15991  0.80153  1.0000
  H   H1912     1.0  0.93160  0.05285  0.93490  1.0000
  H   H1913     1.0  0.81251  0.16993  0.75266  1.0000
  C   C1127     1.0  0.81198  0.20261  0.75879  1.0000
  C   C1128     1.0  0.80654  0.18798  0.78978  1.0000
  C   C1129     1.0  0.61335  0.22776  0.65978  1.0000
  H   H1914     1.0  0.70531  0.14639  0.82225  1.0000
  H   H1915     1.0  0.80219  0.01412  0.82597  1.0000
  C   C1130     1.0  0.65725  0.23427  0.66304  1.0000
  H   H1916     1.0  0.82898  0.99219  0.80636  1.0000
  C   C1131     1.0  0.80386  0.16733  0.76552  1.0000
  C   C1132     1.0  0.79861  0.02251  0.79412  1.0000
  H   H1917     1.0  0.79539  0.05519  0.93502  1.0000
  H   H1918     1.0  0.91421  0.10925  0.92826  1.0000
  C   C1133     1.0  0.82029  0.21688  0.76030  1.0000
  C   C1134     1.0  0.79102  0.18386  0.76975  1.0000
  C   C1135     1.0  0.92301  0.11679  0.91833  1.0000
  H   H1919     1.0  0.62269  0.23080  0.68088  1.0000
  C   C1136     1.0  0.77497  0.00912  0.81256  1.0000
  H   H1920     1.0  0.81170  0.16097  0.77545  1.0000
  C   C1137     1.0  0.81177  0.00040  0.94259  1.0000
  H   H1921     1.0  0.80541  0.02486  0.92559  1.0000
  C   C1138     1.0  0.93558  0.07904  0.92462  1.0000
  H   H1922     1.0  0.82198  0.06689  0.92587  1.0000
  H   H1923     1.0  0.96503  0.18629  0.83272  1.0000
  H   H1924     1.0  0.80395  0.05648  0.95248  1.0000
  H   H1925     1.0  0.70514  0.18414  0.76336  1.0000
  H   H1926     1.0  0.67004  0.22652  0.68481  1.0000
  H   H1927     1.0  0.76182  0.03996  0.97237  1.0000
  H   H1928     1.0  0.94967  0.11703  0.90788  1.0000
  C   C1139     1.0  0.82157  0.99189  0.81974  1.0000
  C   C1140     1.0  0.96582  0.08321  0.91389  1.0000
  H   H1929     1.0  0.81158  0.21082  0.79630  1.0000
  H   H1930     1.0  0.72521  0.14937  0.79745  1.0000
  H   H1931     1.0  0.64901  0.22165  0.69037  1.0000
  C   C1141     1.0  0.68968  0.15895  0.80238  1.0000
  C   C1142     1.0  0.94218  0.10780  0.91722  1.0000
  H   H1932     1.0  0.80869  0.03314  0.97456  1.0000
  H   H1933     1.0  0.91913  0.11972  0.90569  1.0000
  H   H1934     1.0  0.93248  0.08188  0.93785  1.0000
  H   H1935     1.0  0.81887  0.03498  0.77701  1.0000
  C   C1143     1.0  0.73344  0.15335  0.76987  1.0000
  H   H1936     1.0  0.84030  0.01770  0.94955  1.0000
  H   H1937     1.0  0.60477  0.21977  0.66950  1.0000
  C   C1144     1.0  0.68891  0.22032  0.77344  1.0000
  C   C1145     1.0  0.69187  0.14878  0.82062  1.0000
  H   H1938     1.0  0.82401  0.01227  0.77862  1.0000
  H   H1939     1.0  0.76902  0.21485  0.75802  1.0000
  H   H1940     1.0  0.63598  0.21475  0.66960  1.0000
  H   H1941     1.0  0.72948  0.16098  0.75773  1.0000
  Fe  Fe159     1.0  0.79979  0.99550  0.87120  1.0000
  H   H1942     1.0  0.68976  0.11281  0.80188  1.0000
  H   H1943     1.0  0.68360  0.15630  0.83039  1.0000
  C   C1146     1.0  0.71947  0.15662  0.78610  1.0000
  H   H1944     1.0  0.96705  0.08204  0.92744  1.0000
  H   H1945     1.0  0.81328  0.98916  0.79061  1.0000
  C   C1147     1.0  0.80267  0.00209  0.82175  1.0000
  H   H1946     1.0  0.68774  0.13627  0.82364  1.0000
  H   H1947     1.0  0.92295  0.08178  0.92069  1.0000
  H   H1948     1.0  0.71778  0.17038  0.78653  1.0000
  H   H1949     1.0  0.71430  0.12790  0.77920  1.0000
  H   H1950     1.0  0.68268  0.15669  0.77262  1.0000
  H   H1951     1.0  0.82810  0.21225  0.77041  1.0000
  C   C1148     1.0  0.69550  0.15979  0.77120  1.0000
  H   H1952     1.0  0.95701  0.18059  0.85550  1.0000
  H   H1953     1.0  0.94663  0.05481  0.91476  1.0000
  C   C1149     1.0  0.81781  0.02250  0.78616  1.0000
  H   H1954     1.0  0.78471  0.01630  0.96387  1.0000
  H   H1955     1.0  0.97291  0.11886  0.84925  1.0000
  C   C1150     1.0  0.98499  0.17652  0.84867  1.0000
  H   H1956     1.0  0.74509  0.15764  0.77037  1.0000
  H   H1957     1.0  0.68830  0.18384  0.75338  1.0000
  C   C1151     1.0  0.68874  0.12545  0.79272  1.0000
  H   H1958     1.0  0.75317  0.02416  0.82775  1.0000
  H   H1959     1.0  0.85682  0.06249  0.97361  1.0000
  H   H1960     1.0  0.81455  0.19127  0.81196  1.0000
  S   S320      1.0  0.66742  0.22825  0.77091  1.0000
  H   H1961     1.0  0.76518  0.03712  0.81016  1.0000
  H   H1962     1.0  0.73745  0.13950  0.76932  1.0000
  H   H1963     1.0  0.95431  0.08191  0.87095  1.0000
  H   H1964     1.0  0.77489  0.05553  0.96252  1.0000
  H   H1965     1.0  0.82879  0.99732  0.82613  1.0000
  H   H1966     1.0  0.68303  0.18603  0.77537  1.0000
  H   H1967     1.0  0.97754  0.10638  0.90501  1.0000
  C   C1152     1.0  0.79934  0.99184  0.79638  1.0000
  H   H1968     1.0  0.77999  0.03909  0.98104  1.0000
  H   H1969     1.0  0.81838  0.99423  0.95352  1.0000
  H   H1970     1.0  0.76437  0.23249  0.76839  1.0000
  S   S321      1.0  0.77213  0.08780  0.98201  1.0000
  H   H1971     1.0  0.81869  0.99377  0.93169  1.0000
  C   C1153     1.0  0.65669  0.23138  0.68254  1.0000
  H   H1972     1.0  0.98350  0.18920  0.85206  1.0000
  H   H1973     1.0  0.84290  0.10608  0.98470  1.0000
  H   H1974     1.0  0.70055  0.22951  0.74695  1.0000
  H   H1975     1.0  0.82925  0.22058  0.74786  1.0000
  H   H1976     1.0  0.81066  0.22867  0.76277  1.0000
  S   S322      1.0  0.66326  0.23556  0.72203  1.0000
  H   H1977     1.0  0.66401  0.22188  0.65892  1.0000
  H   H1978     1.0  0.78402  0.22919  0.75283  1.0000
  H   H1979     1.0  0.99025  0.18483  0.81157  1.0000
  H   H1980     1.0  0.99032  0.15580  0.82583  1.0000
  H   H1981     1.0  0.67644  0.43112  0.29373  1.0000
  H   H1982     1.0  0.65097  0.44746  0.26898  1.0000
  C   C1154     1.0  0.59618  0.37002  0.27760  1.0000
  H   H1983     1.0  0.63730  0.46301  0.28096  1.0000
  H   H1984     1.0  0.59126  0.37228  0.30388  1.0000
  H   H1985     1.0  0.66081  0.32964  0.29633  1.0000
  S   S323      1.0  0.61691  0.28655  0.29336  1.0000
  S   S324      1.0  0.66507  0.28905  0.29039  1.0000
  C   C1155     1.0  0.56787  0.34447  0.29436  1.0000
  H   H1986     1.0  0.68748  0.24732  0.21227  1.0000
  H   H1987     1.0  0.67882  0.40235  0.30938  1.0000
  H   H1988     1.0  0.66717  0.42042  0.28356  1.0000
  H   H1989     1.0  0.64381  0.23922  0.21411  1.0000
  H   H1990     1.0  0.55363  0.34684  0.29885  1.0000
  C   C1156     1.0  0.62428  0.32908  0.28904  1.0000
  H   H1991     1.0  0.57176  0.33142  0.29130  1.0000
  H   H1992     1.0  0.62852  0.34126  0.28218  1.0000
  H   H1993     1.0  0.65684  0.40185  0.31124  1.0000
  H   H1994     1.0  0.67692  0.45528  0.27516  1.0000
  C   C1157     1.0  0.65610  0.33762  0.30596  1.0000
  H   H1995     1.0  0.58061  0.30103  0.30053  1.0000
  C   C1158     1.0  0.66558  0.41038  0.31084  1.0000
  C   C1159     1.0  0.65954  0.45097  0.31797  1.0000
  H   H1996     1.0  0.63024  0.32316  0.30046  1.0000
  H   H1997     1.0  0.59886  0.36031  0.26955  1.0000
  H   H1998     1.0  0.62934  0.31996  0.28005  1.0000
  H   H1999     1.0  0.61259  0.36309  0.29614  1.0000
  C   C1160     1.0  0.61609  0.44227  0.29675  1.0000
  H   H2000     1.0  0.67174  0.45064  0.30828  1.0000
  S   S325      1.0  0.62728  0.38510  0.30979  1.0000
  C   C1161     1.0  0.66489  0.42578  0.29540  1.0000
  H   H2001     1.0  0.63728  0.42325  0.28685  1.0000
  C   C1162     1.0  0.59991  0.27988  0.30974  1.0000
  C   C1163     1.0  0.64946  0.45311  0.28048  1.0000
  H   H2002     1.0  0.60636  0.43405  0.29984  1.0000
  H   H2003     1.0  0.63207  0.42075  0.30963  1.0000
  H   H2004     1.0  0.59999  0.33391  0.28180  1.0000
  N   N84       1.0  0.64846  0.43930  0.29670  1.0000
  H   H2005     1.0  0.64420  0.35955  0.28890  1.0000
  Fe  Fe160     1.0  0.66609  0.29023  0.31725  1.0000
  H   H2006     1.0  0.58284  0.37765  0.27780  1.0000
  C   C1164     1.0  0.59918  0.36255  0.29614  1.0000
  S   S326      1.0  0.70255  0.25213  0.27691  1.0000
  H   H2007     1.0  0.67372  0.24123  0.24233  1.0000
  Fe  Fe161     1.0  0.64152  0.27773  0.30314  1.0000
  H   H2008     1.0  0.71910  0.24216  0.20674  1.0000
  H   H2009     1.0  0.61553  0.45012  0.28360  1.0000
  H   H2010     1.0  0.57068  0.35417  0.28246  1.0000
  C   C1165     1.0  0.58314  0.28971  0.31042  1.0000
  C   C1166     1.0  0.63401  0.43053  0.29749  1.0000
  H   H2011     1.0  0.52080  0.27001  0.31660  1.0000
  H   H2012     1.0  0.60533  0.37872  0.27075  1.0000
  C   C1167     1.0  0.60449  0.33151  0.29403  1.0000
  C   C1168     1.0  0.64674  0.35450  0.30178  1.0000
  C   C1169     1.0  0.66381  0.46344  0.27652  1.0000
  C   C1170     1.0  0.64436  0.44702  0.31259  1.0000
  C   C1171     1.0  0.65437  0.23970  0.22011  1.0000
  H   H2013     1.0  0.63445  0.45916  0.31121  1.0000
  N   N85       1.0  0.59530  0.34496  0.30470  1.0000
  Fe  Fe162     1.0  0.67929  0.26156  0.29657  1.0000
  H   H2014     1.0  0.66336  0.47255  0.26391  1.0000
  C   C1172     1.0  0.64053  0.36474  0.31431  1.0000
  H   H2015     1.0  0.60136  0.31883  0.30116  1.0000
  C   C1173     1.0  0.57613  0.34548  0.30897  1.0000
  S   S327      1.0  0.65555  0.25019  0.30751  1.0000
  H   H2016     1.0  0.64839  0.24127  0.23359  1.0000
  H   H2017     1.0  0.71009  0.23905  0.22930  1.0000
  H   H2018     1.0  0.66165  0.47148  0.28624  1.0000
  H   H2019     1.0  0.61205  0.45068  0.30636  1.0000
  H   H2020     1.0  0.65963  0.25125  0.21276  1.0000
  H   H2021     1.0  0.72477  0.24109  0.30343  1.0000
  H   H2022     1.0  0.56897  0.35739  0.31371  1.0000
  Fe  Fe163     1.0  0.66119  0.29964  0.59743  1.0000
  S   S328      1.0  0.63510  0.29988  0.61479  1.0000
  S   S329      1.0  0.68559  0.29433  0.60733  1.0000
  Fe  Fe164     1.0  0.64671  0.30962  0.56424  1.0000
  S   S330      1.0  0.61962  0.31057  0.57931  1.0000
  S   S331      1.0  0.64904  0.31812  0.53539  1.0000
  Fe  Fe165     1.0  0.62705  0.32418  0.59606  1.0000
  S   S332      1.0  0.60952  0.34820  0.60390  1.0000
  Fe  Fe166     1.0  0.63090  0.28633  0.59599  1.0000
  S   S333      1.0  0.62154  0.26172  0.60197  1.0000
  S   S334      1.0  0.65350  0.32484  0.57985  1.0000
  S   S335      1.0  0.65763  0.28439  0.57980  1.0000
  Fe  Fe167     1.0  0.59933  0.26913  0.45485  1.0000
  S   S336      1.0  0.60741  0.29006  0.43295  1.0000
  S   S337      1.0  0.58027  0.25610  0.45039  1.0000
  Fe  Fe168     1.0  0.62206  0.27433  0.47657  1.0000
  S   S338      1.0  0.63181  0.29578  0.45620  1.0000
  S   S339      1.0  0.63100  0.26481  0.50192  1.0000
  Fe  Fe169     1.0  0.60422  0.30464  0.45359  1.0000
  S   S340      1.0  0.58914  0.33168  0.44969  1.0000
  Fe  Fe170     1.0  0.63396  0.27881  0.43772  1.0000
  S   S341      1.0  0.65628  0.27690  0.41504  1.0000
  S   S342      1.0  0.59410  0.28458  0.47537  1.0000
  S   S343      1.0  0.62636  0.25652  0.45818  1.0000
  C   C1174     1.0  0.60696  0.25572  0.55193  1.0000
  C   C1175     1.0  0.70465  0.26991  0.64991  1.0000
  S   S344      1.0  0.65689  0.47946  0.37029  1.0000
  S   S345      1.0  0.63323  0.37950  0.39203  1.0000
  H   H2023     1.0  0.53305  0.34429  0.36921  1.0000
  C   C1176     1.0  0.59335  0.24808  0.61848  1.0000
  H   H2024     1.0  0.56864  0.36434  0.62682  1.0000
  H   H2025     1.0  0.59827  0.31430  0.54455  1.0000
  S   S346      1.0  0.54439  0.30858  0.36541  1.0000
  N   N86       1.0  0.67467  0.32379  0.39704  1.0000
  S   S347      1.0  0.59389  0.41203  0.37663  1.0000
  S   S348      1.0  0.59080  0.41437  0.33661  1.0000
  H   H2026     1.0  0.68888  0.29807  0.39435  1.0000
  C   C1177     1.0  0.62933  0.44941  0.36092  1.0000
  C   C1178     1.0  0.59132  0.30427  0.55326  1.0000
  Fe  Fe171     1.0  0.63291  0.40683  0.64443  1.0000
  H   H2027     1.0  0.50796  0.35149  0.40998  1.0000
  Fe  Fe172     1.0  0.52240  0.30781  0.38822  1.0000
  S   S349      1.0  0.52633  0.31285  0.41260  1.0000
  C   C1179     1.0  0.51244  0.36069  0.41492  1.0000
  H   H2028     1.0  0.53770  0.40303  0.58074  1.0000
  C   C1180     1.0  0.63425  0.48335  0.34917  1.0000
  H   H2029     1.0  0.64827  0.44630  0.37619  1.0000
  S   S350      1.0  0.64428  0.40293  0.61726  1.0000
  H   H2030     1.0  0.65786  0.34885  0.39578  1.0000
  H   H2031     1.0  0.61545  0.34019  0.31924  1.0000
  H   H2032     1.0  0.64026  0.36646  0.34025  1.0000
  H   H2033     1.0  0.52545  0.24904  0.37435  1.0000
  H   H2034     1.0  0.66828  0.30321  0.38932  1.0000
  H   H2035     1.0  0.59932  0.29088  0.34326  1.0000
  H   H2036     1.0  0.65713  0.33704  0.34738  1.0000
  H   H2037     1.0  0.54693  0.40146  0.62411  1.0000
  C   C1181     1.0  0.55251  0.38453  0.34516  1.0000
  C   C1182     1.0  0.64354  0.24062  0.63851  1.0000
  H   H2038     1.0  0.62196  0.28025  0.37965  1.0000
  C   C1183     1.0  0.64447  0.35845  0.33069  1.0000
  H   H2039     1.0  0.50879  0.37037  0.62630  1.0000
  H   H2040     1.0  0.64953  0.32464  0.37722  1.0000
  H   H2041     1.0  0.57283  0.33458  0.31976  1.0000
  S   S351      1.0  0.60382  0.45462  0.34274  1.0000
  H   H2042     1.0  0.55878  0.39284  0.41130  1.0000
  C   C1184     1.0  0.66250  0.33844  0.38828  1.0000
  H   H2043     1.0  0.55776  0.35967  0.58314  1.0000
  H   H2044     1.0  0.59196  0.24848  0.34541  1.0000
  H   H2045     1.0  0.62738  0.43633  0.36565  1.0000
  C   C1185     1.0  0.62906  0.30435  0.36763  1.0000
  H   H2046     1.0  0.59860  0.31311  0.35638  1.0000
  C   C1186     1.0  0.56460  0.27154  0.44054  1.0000
  C   C1187     1.0  0.56178  0.28876  0.44180  1.0000
  C   C1188     1.0  0.54987  0.30123  0.43331  1.0000
  C   C1189     1.0  0.54092  0.29668  0.42325  1.0000
  C   C1190     1.0  0.54378  0.27948  0.42184  1.0000
  C   C1191     1.0  0.55541  0.26686  0.43073  1.0000
  H   H2047     1.0  0.56879  0.29249  0.44934  1.0000
  H   H2048     1.0  0.54796  0.31449  0.43414  1.0000
  H   H2049     1.0  0.53691  0.27586  0.41410  1.0000
  N   N87       1.0  0.51170  0.24360  0.35767  1.0000
  C   C1192     1.0  0.60160  0.34480  0.43380  1.0000
  C   C1193     1.0  0.61821  0.34511  0.43512  1.0000
  C   C1194     1.0  0.62777  0.35621  0.42253  1.0000
  C   C1195     1.0  0.62090  0.36656  0.40843  1.0000
  C   C1196     1.0  0.60435  0.36611  0.40713  1.0000
  C   C1197     1.0  0.59474  0.35523  0.41979  1.0000
  H   H2050     1.0  0.62348  0.33712  0.44605  1.0000
  H   H2051     1.0  0.64041  0.35684  0.42375  1.0000
  H   H2052     1.0  0.59886  0.37419  0.39642  1.0000
  H   H2053     1.0  0.58210  0.35472  0.41856  1.0000
  C   C1198     1.0  0.65472  0.26562  0.40004  1.0000
  C   C1199     1.0  0.66494  0.26830  0.38337  1.0000
  C   C1200     1.0  0.66346  0.26018  0.37083  1.0000
  C   C1201     1.0  0.65224  0.24876  0.37501  1.0000
  H   H2054     1.0  0.50816  0.36169  0.64882  1.0000
  C   C1202     1.0  0.64340  0.25424  0.40431  1.0000
  H   H2055     1.0  0.67390  0.27685  0.37999  1.0000
  H   H2056     1.0  0.67120  0.26267  0.35798  1.0000
  H   H2057     1.0  0.57543  0.35712  0.59398  1.0000
  H   H2058     1.0  0.63558  0.25196  0.41724  1.0000
  C   C1203     1.0  0.60083  0.26249  0.61476  1.0000
  H   H2059     1.0  0.51447  0.38357  0.43559  1.0000
  C   C1204     1.0  0.50604  0.36341  0.45642  1.0000
  H   H2060     1.0  0.69975  0.32961  0.64601  1.0000
  C   C1205     1.0  0.54614  0.37594  0.33604  1.0000
  C   C1206     1.0  0.59157  0.27741  0.62077  1.0000
  H   H2061     1.0  0.68218  0.36241  0.63172  1.0000
  H   H2062     1.0  0.67370  0.33962  0.62387  1.0000
  C   C1207     1.0  0.54443  0.36425  0.37154  1.0000
  H   H2063     1.0  0.59731  0.28862  0.61780  1.0000
  C   C1208     1.0  0.61960  0.36312  0.60761  1.0000
  C   C1209     1.0  0.60959  0.37594  0.61657  1.0000
  C   C1210     1.0  0.61718  0.38803  0.61976  1.0000
  C   C1211     1.0  0.63474  0.38784  0.61328  1.0000
  C   C1212     1.0  0.64478  0.37526  0.60399  1.0000
  C   C1213     1.0  0.63729  0.36269  0.60150  1.0000
  H   H2064     1.0  0.70204  0.33624  0.62305  1.0000
  Fe  Fe173     1.0  0.61522  0.39436  0.33467  1.0000
  H   H2065     1.0  0.65843  0.37500  0.59911  1.0000
  H   H2066     1.0  0.64521  0.35291  0.59466  1.0000
  C   C1214     1.0  0.68667  0.28386  0.62883  1.0000
  C   C1215     1.0  0.70297  0.27734  0.63285  1.0000
  H   H2067     1.0  0.56627  0.29202  0.57711  1.0000
  H   H2068     1.0  0.56797  0.33899  0.59303  1.0000
  H   H2069     1.0  0.55771  0.39590  0.33854  1.0000
  H   H2070     1.0  0.50113  0.36691  0.42358  1.0000
  H   H2071     1.0  0.71442  0.27818  0.62272  1.0000
  H   H2072     1.0  0.59476  0.26563  0.52149  1.0000
  H   H2073     1.0  0.66941  0.24710  0.62825  1.0000
  H   H2074     1.0  0.55762  0.25355  0.42969  1.0000
  C   C1216     1.0  0.64468  0.30322  0.52569  1.0000
  C   C1217     1.0  0.63790  0.30905  0.51064  1.0000
  C   C1218     1.0  0.63389  0.29735  0.50305  1.0000
  C   C1219     1.0  0.63705  0.27972  0.51024  1.0000
  C   C1220     1.0  0.64425  0.27388  0.52503  1.0000
  C   C1221     1.0  0.64779  0.28561  0.53291  1.0000
  H   H2075     1.0  0.63548  0.32265  0.50498  1.0000
  H   H2076     1.0  0.62821  0.30200  0.49174  1.0000
  H   H2077     1.0  0.64692  0.26025  0.53053  1.0000
  H   H2078     1.0  0.65319  0.28097  0.54440  1.0000
  Fe  Fe174     1.0  0.60413  0.42619  0.35013  1.0000
  H   H2079     1.0  0.59437  0.27013  0.58261  1.0000
  C   C1222     1.0  0.57281  0.27012  0.33663  1.0000
  H   H2080     1.0  0.52862  0.37982  0.64003  1.0000
  H   H2081     1.0  0.65600  0.25245  0.61289  1.0000
  H   H2082     1.0  0.53911  0.34934  0.60986  1.0000
  H   H2083     1.0  0.62832  0.25840  0.56256  1.0000
  S   S352      1.0  0.62918  0.40730  0.34625  1.0000
  C   C1223     1.0  0.56756  0.27794  0.58142  1.0000
  H   H2084     1.0  0.60937  0.39766  0.62704  1.0000
  H   H2085     1.0  0.66208  0.44212  0.33024  1.0000
  H   H2086     1.0  0.49443  0.25668  0.39039  1.0000
  H   H2087     1.0  0.64277  0.29849  0.36813  1.0000
  H   H2088     1.0  0.53758  0.34418  0.41489  1.0000
  H   H2089     1.0  0.50653  0.35003  0.45571  1.0000
  C   C1224     1.0  0.59270  0.45853  0.39398  1.0000
  S   S353      1.0  0.51806  0.30426  0.34282  1.0000
  C   C1225     1.0  0.52192  0.25361  0.34196  1.0000
  H   H2090     1.0  0.62692  0.31776  0.36926  1.0000
  H   H2091     1.0  0.68011  0.32291  0.36097  1.0000
  C   C1226     1.0  0.69626  0.32748  0.63467  1.0000
  C   C1227     1.0  0.67192  0.28288  0.64209  1.0000
  Fe  Fe175     1.0  0.53586  0.28714  0.35988  1.0000
  H   H2092     1.0  0.61225  0.28420  0.55951  1.0000
  S   S354      1.0  0.64115  0.28165  0.32932  1.0000
  H   H2093     1.0  0.51666  0.37042  0.40347  1.0000
  C   C1228     1.0  0.62230  0.47778  0.34336  1.0000
  H   H2094     1.0  0.63818  0.34580  0.37965  1.0000
  H   H2095     1.0  0.63812  0.32883  0.39835  1.0000
  S   S355      1.0  0.60633  0.37699  0.35969  1.0000
  N   N88       1.0  0.63627  0.36881  0.54189  1.0000
  C   C1229     1.0  0.63598  0.36553  0.52450  1.0000
  C   C1230     1.0  0.62511  0.35783  0.55563  1.0000
  C   C1231     1.0  0.65426  0.36232  0.54536  1.0000
  C   C1232     1.0  0.63002  0.38755  0.54297  1.0000
  C   C1233     1.0  0.63780  0.38057  0.50878  1.0000
  C   C1234     1.0  0.60544  0.36446  0.55766  1.0000
  C   C1235     1.0  0.66853  0.37069  0.53230  1.0000
  C   C1236     1.0  0.62998  0.39212  0.56021  1.0000
  H   H2096     1.0  0.64619  0.35427  0.52120  1.0000
  H   H2097     1.0  0.62392  0.36154  0.52470  1.0000
  H   H2098     1.0  0.62807  0.35591  0.56860  1.0000
  H   H2099     1.0  0.62804  0.34454  0.55312  1.0000
  H   H2100     1.0  0.65468  0.36373  0.55845  1.0000
  H   H2101     1.0  0.65832  0.34820  0.54561  1.0000
  H   H2102     1.0  0.63806  0.39573  0.53286  1.0000
  H   H2103     1.0  0.61696  0.39265  0.53992  1.0000
  H   H2104     1.0  0.64939  0.38589  0.50714  1.0000
  H   H2105     1.0  0.63903  0.37583  0.49682  1.0000
  H   H2106     1.0  0.62614  0.39102  0.50967  1.0000
  H   H2107     1.0  0.60124  0.36832  0.54514  1.0000
  H   H2108     1.0  0.59882  0.35401  0.56586  1.0000
  H   H2109     1.0  0.60105  0.37543  0.56445  1.0000
  H   H2110     1.0  0.66593  0.38484  0.53108  1.0000
  H   H2111     1.0  0.67082  0.36730  0.51948  1.0000
  H   H2112     1.0  0.68081  0.36544  0.53695  1.0000
  H   H2113     1.0  0.64284  0.39413  0.56039  1.0000
  H   H2114     1.0  0.62615  0.38225  0.57164  1.0000
  H   H2115     1.0  0.62019  0.40403  0.56205  1.0000
  C   C1237     1.0  0.59193  0.34983  0.33570  1.0000
  H   H2116     1.0  0.65577  0.46410  0.32092  1.0000
  H   H2117     1.0  0.61079  0.27824  0.35910  1.0000
  H   H2118     1.0  0.66890  0.30169  0.44043  1.0000
  C   C1238     1.0  0.57655  0.24854  0.62824  1.0000
  Fe  Fe176     1.0  0.65724  0.25513  0.33283  1.0000
  H   H2119     1.0  0.59310  0.28828  0.52076  1.0000
  Fe  Fe177     1.0  0.52484  0.32577  0.35066  1.0000
  S   S356      1.0  0.50323  0.32668  0.37389  1.0000
  C   C1239     1.0  0.61742  0.29357  0.38196  1.0000
  H   H2120     1.0  0.58801  0.27864  0.36258  1.0000
  H   H2121     1.0  0.58889  0.30610  0.56675  1.0000
  H   H2122     1.0  0.57378  0.26277  0.54947  1.0000
  S   S357      1.0  0.53179  0.31230  0.64879  1.0000
  C   C1240     1.0  0.64116  0.45506  0.36688  1.0000
  H   H2123     1.0  0.61588  0.26688  0.64216  1.0000
  H   H2124     1.0  0.56933  0.28514  0.54838  1.0000
  C   C1241     1.0  0.53308  0.36776  0.63488  1.0000
  C   C1242     1.0  0.61965  0.46089  0.34941  1.0000
  C   C1243     1.0  0.67967  0.30876  0.38807  1.0000
  C   C1244     1.0  0.55143  0.37879  0.36300  1.0000
  H   H2125     1.0  0.65931  0.28833  0.63915  1.0000
  H   H2126     1.0  0.55146  0.40387  0.59407  1.0000
  H   H2127     1.0  0.67449  0.31779  0.63384  1.0000
  H   H2128     1.0  0.64708  0.32483  0.63044  1.0000
  C   C1245     1.0  0.56074  0.37548  0.61948  1.0000
  N   N89       1.0  0.66452  0.33513  0.65165  1.0000
  C   C1246     1.0  0.51644  0.36172  0.63567  1.0000
  C   C1247     1.0  0.62069  0.24877  0.56326  1.0000
  H   H2129     1.0  0.71843  0.24203  0.32573  1.0000
  S   S358      1.0  0.53221  0.34990  0.33307  1.0000
  H   H2130     1.0  0.55588  0.34317  0.62160  1.0000
  H   H2131     1.0  0.57190  0.47716  0.38420  1.0000
  H   H2132     1.0  0.70114  0.31543  0.36657  1.0000
  H   H2133     1.0  0.56967  0.37869  0.60694  1.0000
  H   H2134     1.0  0.66261  0.41452  0.32336  1.0000
  C   C1248     1.0  0.68820  0.31247  0.36868  1.0000
  N   N90       1.0  0.54500  0.37052  0.61731  1.0000
  C   C1249     1.0  0.58537  0.47686  0.38495  1.0000
  H   H2135     1.0  0.62636  0.33646  0.63855  1.0000
  C   C1250     1.0  0.49499  0.25567  0.36359  1.0000
  C   C1251     1.0  0.64663  0.34189  0.64781  1.0000
  H   H2136     1.0  0.59598  0.37632  0.62138  1.0000
  C   C1252     1.0  0.51326  0.26095  0.32620  1.0000
  H   H2137     1.0  0.70276  0.31416  0.63302  1.0000
  H   H2138     1.0  0.58584  0.45505  0.40754  1.0000
  H   H2139     1.0  0.53458  0.24567  0.33708  1.0000
  H   H2140     1.0  0.67597  0.37451  0.64849  1.0000
  H   H2141     1.0  0.53997  0.35822  0.64448  1.0000
  H   H2142     1.0  0.55690  0.38698  0.58200  1.0000
  C   C1253     1.0  0.65971  0.33124  0.32250  1.0000
  H   H2143     1.0  0.55771  0.27363  0.57732  1.0000
  H   H2144     1.0  0.57900  0.30683  0.54903  1.0000
  H   H2145     1.0  0.65995  0.37248  0.63855  1.0000
  S   S359      1.0  0.55777  0.39008  0.37509  1.0000
  S   S360      1.0  0.65063  0.23856  0.35913  1.0000
  C   C1254     1.0  0.56364  0.35267  0.59439  1.0000
  C   C1255     1.0  0.61315  0.48061  0.40653  1.0000
  H   H2146     1.0  0.60693  0.46989  0.41437  1.0000
  C   C1256     1.0  0.64235  0.24560  0.39186  1.0000
  H   H2147     1.0  0.55333  0.38649  0.64289  1.0000
  C   C1257     1.0  0.58634  0.27733  0.52581  1.0000
  N   N91       1.0  0.59360  0.27144  0.55606  1.0000
  S   S361      1.0  0.54648  0.26361  0.64696  1.0000
  H   H2148     1.0  0.68220  0.29249  0.42282  1.0000
  H   H2149     1.0  0.65171  0.26557  0.62847  1.0000
  H   H2150     1.0  0.57836  0.34822  0.34051  1.0000
  C   C1258     1.0  0.60259  0.28643  0.55137  1.0000
  C   C1259     1.0  0.58585  0.26782  0.57521  1.0000
  H   H2151     1.0  0.51325  0.25064  0.31964  1.0000
  C   C1260     1.0  0.65591  0.25215  0.62659  1.0000
  H   H2152     1.0  0.67991  0.35641  0.40102  1.0000
  H   H2153     1.0  0.52683  0.37679  0.45185  1.0000
  H   H2154     1.0  0.56770  0.28926  0.63555  1.0000
  N   N92       1.0  0.59821  0.29974  0.38305  1.0000
  C   C1261     1.0  0.59322  0.31692  0.38857  1.0000
  C   C1262     1.0  0.52237  0.23771  0.37146  1.0000
  C   C1263     1.0  0.58821  0.28745  0.39659  1.0000
  C   C1264     1.0  0.59344  0.30235  0.36585  1.0000
  C   C1265     1.0  0.57385  0.32540  0.39111  1.0000
  C   C1266     1.0  0.59643  0.26807  0.39896  1.0000
  C   C1267     1.0  0.66571  0.31802  0.41549  1.0000
  H   H2155     1.0  0.59729  0.31569  0.40093  1.0000
  H   H2156     1.0  0.59990  0.32664  0.37896  1.0000
  H   H2157     1.0  0.62072  0.29289  0.39455  1.0000
  C   C1268     1.0  0.58947  0.25999  0.33565  1.0000
  H   H2158     1.0  0.58582  0.29049  0.40962  1.0000
  H   H2159     1.0  0.57512  0.28891  0.39408  1.0000
  H   H2160     1.0  0.57928  0.30668  0.36707  1.0000
  H   H2161     1.0  0.57164  0.33678  0.39703  1.0000
  H   H2162     1.0  0.56960  0.33020  0.37859  1.0000
  H   H2163     1.0  0.56552  0.31669  0.39987  1.0000
  H   H2164     1.0  0.60073  0.26333  0.38672  1.0000
  H   H2165     1.0  0.58684  0.26053  0.40748  1.0000
  H   H2166     1.0  0.60736  0.26510  0.40563  1.0000
  H   H2167     1.0  0.55460  0.35585  0.44722  1.0000
  C   C1269     1.0  0.67667  0.32998  0.63564  1.0000
  C   C1270     1.0  0.65414  0.34180  0.33472  1.0000
  H   H2168     1.0  0.68282  0.34035  0.42043  1.0000
  H   H2169     1.0  0.61503  0.48664  0.33425  1.0000
  H   H2170     1.0  0.62756  0.30436  0.35454  1.0000
  H   H2171     1.0  0.60065  0.24484  0.55297  1.0000
  H   H2172     1.0  0.66920  0.34456  0.37536  1.0000
  H   H2173     1.0  0.58496  0.25399  0.57991  1.0000
  H   H2174     1.0  0.59651  0.35046  0.64592  1.0000
  H   H2175     1.0  0.69005  0.30078  0.36335  1.0000
  C   C1271     1.0  0.67703  0.30482  0.42733  1.0000
  C   C1272     1.0  0.64622  0.33393  0.38587  1.0000
  Fe  Fe178     1.0  0.49800  0.30358  0.36755  1.0000
  C   C1273     1.0  0.68818  0.34429  0.40645  1.0000
  H   H2176     1.0  0.70093  0.34734  0.40536  1.0000
  H   H2177     1.0  0.61053  0.28764  0.53805  1.0000
  H   H2178     1.0  0.54373  0.35969  0.38525  1.0000
  C   C1274     1.0  0.56734  0.26332  0.63452  1.0000
  H   H2179     1.0  0.56450  0.27522  0.59581  1.0000
  H   H2180     1.0  0.59111  0.44923  0.38698  1.0000
  C   C1275     1.0  0.64336  0.47216  0.36133  1.0000
  C   C1276     1.0  0.60164  0.33942  0.32148  1.0000
  H   H2181     1.0  0.65483  0.31201  0.41593  1.0000
  C   C1277     1.0  0.69071  0.32999  0.39630  1.0000
  H   H2182     1.0  0.65957  0.32917  0.42189  1.0000
  H   H2183     1.0  0.69649  0.33535  0.38269  1.0000
  S   S362      1.0  0.55609  0.26413  0.35373  1.0000
  H   H2184     1.0  0.57506  0.28053  0.51959  1.0000
  C   C1278     1.0  0.55221  0.38514  0.42332  1.0000
  Fe  Fe179     1.0  0.61786  0.39203  0.37155  1.0000
  H   H2185     1.0  0.56227  0.37863  0.43094  1.0000
  C   C1279     1.0  0.53929  0.36125  0.34462  1.0000
  C   C1280     1.0  0.53849  0.35544  0.36239  1.0000
  H   H2186     1.0  0.61424  0.25826  0.53834  1.0000
  H   H2187     1.0  0.53328  0.34343  0.46976  1.0000
  H   H2188     1.0  0.60676  0.45655  0.39314  1.0000
  C   C1281     1.0  0.54417  0.37251  0.41815  1.0000
  H   H2189     1.0  0.63154  0.24450  0.63348  1.0000
  H   H2190     1.0  0.55471  0.36480  0.40985  1.0000
  N   N93       1.0  0.53441  0.36086  0.43272  1.0000
  S   S363      1.0  0.51538  0.28467  0.38413  1.0000
  H   H2191     1.0  0.70085  0.31909  0.40082  1.0000
  C   C1282     1.0  0.54732  0.34872  0.44274  1.0000
  C   C1283     1.0  0.53537  0.38419  0.60496  1.0000
  C   C1284     1.0  0.55711  0.39075  0.62866  1.0000
  H   H2192     1.0  0.55720  0.34069  0.43422  1.0000
  H   H2193     1.0  0.55132  0.32710  0.46398  1.0000
  C   C1285     1.0  0.54023  0.33640  0.45924  1.0000
  C   C1286     1.0  0.52715  0.35057  0.42440  1.0000
  Fe  Fe180     1.0  0.58306  0.39816  0.36280  1.0000
  H   H2194     1.0  0.51914  0.34832  0.63377  1.0000
  H   H2195     1.0  0.64639  0.35346  0.63722  1.0000
  H   H2196     1.0  0.53565  0.38085  0.40940  1.0000
  S   S364      1.0  0.56937  0.33293  0.65174  1.0000
  H   H2197     1.0  0.59834  0.34503  0.34693  1.0000
  C   C1287     1.0  0.57484  0.27776  0.63082  1.0000
  C   C1288     1.0  0.54619  0.39492  0.58965  1.0000
  C   C1289     1.0  0.59814  0.28651  0.35746  1.0000
  H   H2198     1.0  0.68772  0.30986  0.42892  1.0000
  H   H2199     1.0  0.53203  0.32860  0.45715  1.0000
  C   C1290     1.0  0.52074  0.37184  0.44388  1.0000
  H   H2200     1.0  0.52229  0.33962  0.43374  1.0000
  H   H2201     1.0  0.52765  0.37839  0.59942  1.0000
  C   C1291     1.0  0.67194  0.36543  0.64299  1.0000
  C   C1292     1.0  0.58002  0.27417  0.54566  1.0000
  H   H2202     1.0  0.59232  0.36371  0.33140  1.0000
  C   C1293     1.0  0.55039  0.35349  0.61151  1.0000
  S   S365      1.0  0.67161  0.31039  0.32813  1.0000
  H   H2203     1.0  0.52572  0.39378  0.61190  1.0000
  H   H2204     1.0  0.54230  0.39445  0.43023  1.0000
  H   H2205     1.0  0.49994  0.26824  0.32961  1.0000
  S   S366      1.0  0.68240  0.26382  0.32236  1.0000
  H   H2206     1.0  0.61498  0.24391  0.57697  1.0000
  H   H2207     1.0  0.62647  0.47470  0.40064  1.0000
  H   H2208     1.0  0.49678  0.26926  0.36025  1.0000
  C   C1294     1.0  0.60308  0.26506  0.32243  1.0000
  H   H2209     1.0  0.55681  0.29290  0.32473  1.0000
  H   H2210     1.0  0.56903  0.39584  0.62621  1.0000
  C   C1295     1.0  0.63884  0.32943  0.64212  1.0000
  H   H2211     1.0  0.50610  0.36345  0.47000  1.0000
  H   H2212     1.0  0.62999  0.23769  0.55845  1.0000
  H   H2213     1.0  0.63825  0.43831  0.32404  1.0000
  H   H2214     1.0  0.57947  0.47760  0.41936  1.0000
  H   H2215     1.0  0.52493  0.26468  0.34537  1.0000
  H   H2216     1.0  0.59287  0.47814  0.37143  1.0000
  H   H2217     1.0  0.61600  0.25742  0.32202  1.0000
  H   H2218     1.0  0.60108  0.32566  0.32718  1.0000
  H   H2219     1.0  0.54648  0.38071  0.32236  1.0000
  H   H2220     1.0  0.49333  0.37108  0.45389  1.0000
  C   C1296     1.0  0.56967  0.28507  0.32407  1.0000
  C   C1297     1.0  0.64857  0.45577  0.68298  1.0000
  S   S367      1.0  0.52739  0.32148  0.68701  1.0000
  H   H2221     1.0  0.57045  0.30042  0.73088  1.0000
  H   H2222     1.0  0.64150  0.36486  0.75211  1.0000
  S   S368      1.0  0.51805  0.28530  0.68494  1.0000
  Fe  Fe181     1.0  0.51139  0.31337  0.67301  1.0000
  H   H2223     1.0  0.68976  0.30408  0.66316  1.0000
  Fe  Fe182     1.0  0.53632  0.29309  0.69643  1.0000
  S   S369      1.0  0.54196  0.28268  0.72315  1.0000
  H   H2224     1.0  0.57111  0.30193  0.70283  1.0000
  C   C1298     1.0  0.61862  0.43292  0.72494  1.0000
  Fe  Fe183     1.0  0.63626  0.25058  0.72186  1.0000
  S   S370      1.0  0.63315  0.25842  0.74696  1.0000
  H   H2225     1.0  0.73417  0.46834  0.75235  1.0000
  Fe  Fe184     1.0  0.67093  0.26054  0.70744  1.0000
  S   S371      1.0  0.67127  0.26921  0.73141  1.0000
  H   H2226     1.0  0.59312  0.31843  0.74255  1.0000
  C   C1299     1.0  0.68025  0.31066  0.67297  1.0000
  Fe  Fe185     1.0  0.64361  0.28149  0.73069  1.0000
  S   S372      1.0  0.62983  0.30753  0.73640  1.0000
  H   H2227     1.0  0.65885  0.35370  0.66797  1.0000
  S   S373      1.0  0.64413  0.27490  0.70552  1.0000
  S   S374      1.0  0.61515  0.40743  0.69298  1.0000
  Fe  Fe186     1.0  0.63988  0.39213  0.68026  1.0000
  S   S375      1.0  0.66011  0.37270  0.69282  1.0000
  S   S376      1.0  0.57708  0.39280  0.68333  1.0000
  C   C1300     1.0  0.63089  0.46290  0.68546  1.0000
  C   C1301     1.0  0.66347  0.31996  0.66664  1.0000
  S   S377      1.0  0.62727  0.38323  0.66392  1.0000
  C   C1302     1.0  0.63866  0.32535  0.72412  1.0000
  C   C1303     1.0  0.65603  0.32350  0.71573  1.0000
  C   C1304     1.0  0.66273  0.33814  0.70637  1.0000
  C   C1305     1.0  0.65187  0.35445  0.70472  1.0000
  C   C1306     1.0  0.63443  0.35619  0.71267  1.0000
  C   C1307     1.0  0.62798  0.34176  0.72281  1.0000
  H   H2228     1.0  0.66437  0.31087  0.71686  1.0000
  H   H2229     1.0  0.67627  0.33679  0.70034  1.0000
  H   H2230     1.0  0.61462  0.34332  0.72952  1.0000
  H   H2231     1.0  0.56655  0.27253  0.74548  1.0000
  C   C1308     1.0  0.55706  0.35725  0.67241  1.0000
  C   C1309     1.0  0.55889  0.37080  0.67906  1.0000
  C   C1310     1.0  0.57444  0.37677  0.67399  1.0000
  H   H2232     1.0  0.65387  0.32399  0.67805  1.0000
  C   C1311     1.0  0.65941  0.46179  0.68997  1.0000
  H   H2233     1.0  0.54513  0.35260  0.67647  1.0000
  H   H2234     1.0  0.54841  0.37646  0.68837  1.0000
  H   H2235     1.0  0.55076  0.32679  0.70541  1.0000
  C   C1312     1.0  0.56205  0.26825  0.72220  1.0000
  C   C1313     1.0  0.57196  0.26643  0.73444  1.0000
  C   C1314     1.0  0.58920  0.25745  0.73198  1.0000
  C   C1315     1.0  0.59624  0.24955  0.71771  1.0000
  C   C1316     1.0  0.58584  0.25010  0.70633  1.0000
  C   C1317     1.0  0.56882  0.25952  0.70851  1.0000
  H   H2236     1.0  0.65552  0.43786  0.72464  1.0000
  H   H2237     1.0  0.64271  0.43808  0.74622  1.0000
  H   H2238     1.0  0.64615  0.40780  0.70268  1.0000
  H   H2239     1.0  0.56094  0.25998  0.69959  1.0000
  H   H2240     1.0  0.62501  0.38341  0.75503  1.0000
  H   H2241     1.0  0.68082  0.34493  0.66274  1.0000
  Fe  Fe187     1.0  0.66104  0.24540  0.74591  1.0000
  Fe  Fe188     1.0  0.54846  0.31785  0.66379  1.0000
  H   H2242     1.0  0.63728  0.34621  0.65922  1.0000
  H   H2243     1.0  0.60677  0.34443  0.68876  1.0000
  H   H2244     1.0  0.59107  0.24367  0.69551  1.0000
  S   S378      1.0  0.69318  0.26057  0.68454  1.0000
  H   H2245     1.0  0.61341  0.30746  0.70821  1.0000
  H   H2246     1.0  0.62545  0.44230  0.72640  1.0000
  C   C1318     1.0  0.65269  0.47525  0.69910  1.0000
  H   H2247     1.0  0.59331  0.28496  0.68587  1.0000
  C   C1319     1.0  0.61610  0.26851  0.65508  1.0000
  H   H2248     1.0  0.67719  0.30033  0.68440  1.0000
  H   H2249     1.0  0.62336  0.32611  0.68360  1.0000
  H   H2250     1.0  0.64536  0.38054  0.76152  1.0000
  H   H2251     1.0  0.65181  0.24357  0.68734  1.0000
  H   H2252     1.0  0.60911  0.29725  0.68396  1.0000
  S   S379      1.0  0.61808  0.23946  0.71340  1.0000
  H   H2253     1.0  0.58081  0.30305  0.75571  1.0000
  C   C1320     1.0  0.67171  0.40782  0.70510  1.0000
  H   H2254     1.0  0.70632  0.47810  0.75221  1.0000
  C   C1321     1.0  0.62525  0.41422  0.73376  1.0000
  H   H2255     1.0  0.66232  0.27503  0.66960  1.0000
  C   C1322     1.0  0.57327  0.33347  0.71011  1.0000
  H   H2256     1.0  0.60477  0.43696  0.73075  1.0000
  C   C1323     1.0  0.58783  0.36955  0.66182  1.0000
  H   H2257     1.0  0.59705  0.25669  0.74106  1.0000
  H   H2258     1.0  0.58066  0.31652  0.68558  1.0000
  H   H2259     1.0  0.60435  0.26518  0.66446  1.0000
  H   H2260     1.0  0.65390  0.44573  0.67554  1.0000
  H   H2261     1.0  0.61932  0.43385  0.71101  1.0000
  Fe  Fe189     1.0  0.62192  0.42939  0.67128  1.0000
  H   H2262     1.0  0.60507  0.32674  0.71554  1.0000
  C   C1324     1.0  0.55401  0.33257  0.71471  1.0000
  H   H2263     1.0  0.75412  0.47538  0.74450  1.0000
  H   H2264     1.0  0.66593  0.43208  0.74212  1.0000
  H   H2265     1.0  0.60197  0.28346  0.70429  1.0000
  H   H2266     1.0  0.57568  0.34164  0.69703  1.0000
  H   H2267     1.0  0.62595  0.36873  0.71138  1.0000
  H   H2268     1.0  0.64868  0.42697  0.70655  1.0000
  H   H2269     1.0  0.66103  0.38159  0.73085  1.0000
  C   C1325     1.0  0.57079  0.34973  0.66066  1.0000
  S   S380      1.0  0.61687  0.45641  0.67633  1.0000
  C   C1326     1.0  0.59782  0.29243  0.69281  1.0000
  H   H2270     1.0  0.59304  0.29325  0.72913  1.0000
  H   H2271     1.0  0.57550  0.34093  0.71869  1.0000
  H   H2272     1.0  0.67645  0.39370  0.70702  1.0000
  C   C1327     1.0  0.58161  0.31319  0.74373  1.0000
  N   N94       1.0  0.58565  0.31640  0.71058  1.0000
  N   N95       1.0  0.64448  0.40712  0.72971  1.0000
  H   H2273     1.0  0.67307  0.45629  0.68796  1.0000
  H   H2274     1.0  0.66680  0.40413  0.74079  1.0000
  S   S381      1.0  0.64762  0.41450  0.65996  1.0000
  C   C1328     1.0  0.60935  0.33056  0.68822  1.0000
  C   C1329     1.0  0.65421  0.43107  0.73831  1.0000
  C   C1330     1.0  0.65193  0.41287  0.71077  1.0000
  H   H2275     1.0  0.56987  0.32338  0.74570  1.0000
  H   H2276     1.0  0.60303  0.32924  0.67834  1.0000
  H   H2277     1.0  0.66600  0.24349  0.65669  1.0000
  H   H2278     1.0  0.67852  0.41355  0.71161  1.0000
  C   C1331     1.0  0.60367  0.31966  0.70631  1.0000
  H   H2279     1.0  0.62043  0.41338  0.74795  1.0000
  H   H2280     1.0  0.64700  0.40836  0.75505  1.0000
  C   C1332     1.0  0.65344  0.41189  0.74125  1.0000
  C   C1333     1.0  0.58302  0.30737  0.69776  1.0000
  H   H2281     1.0  0.54614  0.34584  0.71393  1.0000
  H   H2282     1.0  0.55007  0.32528  0.72800  1.0000
  H   H2283     1.0  0.61807  0.40630  0.73004  1.0000
  H   H2284     1.0  0.62917  0.25757  0.67583  1.0000
  C   C1334     1.0  0.58267  0.30504  0.72830  1.0000
  H   H2285     1.0  0.67539  0.41293  0.69098  1.0000
  Fe  Fe190     1.0  0.60307  0.40056  0.67451  1.0000
  C   C1335     1.0  0.62418  0.47614  0.69480  1.0000
  C   C1336     1.0  0.64711  0.38773  0.73321  1.0000
  S   S382      1.0  0.55843  0.29016  0.67398  1.0000
  H   H2286     1.0  0.68614  0.31909  0.67734  1.0000
  H   H2287     1.0  0.64153  0.38372  0.72415  1.0000
  C   C1337     1.0  0.63919  0.37894  0.75161  1.0000
  C   C1338     1.0  0.63258  0.25835  0.66159  1.0000
  Fe  Fe191     1.0  0.53957  0.28482  0.66157  1.0000
  C   C1339     1.0  0.69005  0.26905  0.66324  1.0000
  C   C1340     1.0  0.67362  0.27549  0.65933  1.0000
  H   H2288     1.0  0.59961  0.37435  0.65740  1.0000
  H   H2289     1.0  0.65892  0.30976  0.66343  1.0000
  H   H2290     1.0  0.70955  0.47699  0.73008  1.0000
  C   C1341     1.0  0.73991  0.47998  0.74774  1.0000
  H   H2291     1.0  0.67912  0.48049  0.74431  1.0000
  C   C1342     1.0  0.63501  0.48230  0.70159  1.0000
  H   H2292     1.0  0.61051  0.48167  0.69681  1.0000
  H   H2293     1.0  0.60525  0.24057  0.65616  1.0000
  C   C1343     1.0  0.66912  0.34932  0.65718  1.0000
  N   N96       1.0  0.64007  0.24064  0.65756  1.0000
  H   H2294     1.0  0.64226  0.26669  0.65707  1.0000
  H   H2295     1.0  0.49370  0.29438  0.66020  1.0000
  S   S383      1.0  0.66644  0.48314  0.70733  1.0000
  C   C1344     1.0  0.58602  0.35606  0.65526  1.0000
  H   H2296     1.0  0.73713  0.48356  0.72139  1.0000
  C   C1345     1.0  0.70479  0.48603  0.73924  1.0000
  H   H2297     1.0  0.61547  0.28251  0.65344  1.0000
  H   H2298     1.0  0.73722  0.48708  0.75834  1.0000
  H   H2299     1.0  0.71737  0.26503  0.65284  1.0000
  S   S384      1.0  0.60773  0.42376  0.65372  1.0000
  H   H2300     1.0  0.63587  0.31838  0.65264  1.0000
  C   C1346     1.0  0.64541  0.61590  0.30629  1.0000
  H   H2301     1.0  0.64443  0.58162  0.29055  1.0000
  H   H2302     1.0  0.75580  0.72072  0.16024  1.0000
  H   H2303     1.0  0.58735  0.61751  0.30985  1.0000
  C   C1347     1.0  0.77309  0.71107  0.27912  1.0000
  H   H2304     1.0  0.74705  0.70938  0.29116  1.0000
  C   C1348     1.0  0.68770  0.71394  0.29299  1.0000
  H   H2305     1.0  0.84940  0.72574  0.17411  1.0000
  H   H2306     1.0  0.72731  0.71766  0.23595  1.0000
  H   H2307     1.0  0.83457  0.72586  0.20485  1.0000
  H   H2308     1.0  0.81737  0.71609  0.18591  1.0000
  H   H2309     1.0  0.73789  0.68452  0.22094  1.0000
  H   H2310     1.0  0.64385  0.61287  0.28138  1.0000
  H   H2311     1.0  0.60378  0.66326  0.30381  1.0000
  H   H2312     1.0  0.78138  0.73681  0.06044  1.0000
  H   H2313     1.0  0.56028  0.63439  0.31111  1.0000
  S   S385      1.0  0.64510  0.63803  0.29904  1.0000
  S   S386      1.0  0.76530  0.72796  0.18863  1.0000
  H   H2314     1.0  0.67519  0.73212  0.24812  1.0000
  H   H2315     1.0  0.72843  0.73275  0.20703  1.0000
  H   H2316     1.0  0.67652  0.71304  0.24078  1.0000
  H   H2317     1.0  0.74614  0.68770  0.23794  1.0000
  C   C1349     1.0  0.64590  0.58040  0.31677  1.0000
  C   C1350     1.0  0.73855  0.72844  0.31615  1.0000
  H   H2318     1.0  0.82889  0.71979  0.16412  1.0000
  H   H2319     1.0  0.77801  0.73546  0.29126  1.0000
  C   C1351     1.0  0.74018  0.69444  0.22662  1.0000
  C   C1352     1.0  0.68993  0.72974  0.28173  1.0000
  H   H2320     1.0  0.61044  0.64199  0.28811  1.0000
  C   C1353     1.0  0.71991  0.71757  0.27163  1.0000
  H   H2321     1.0  0.77314  0.72418  0.31308  1.0000
  C   C1354     1.0  0.85363  0.73641  0.16376  1.0000
  C   C1355     1.0  0.70170  0.70002  0.29373  1.0000
  H   H2322     1.0  0.73238  0.71876  0.26354  1.0000
  H   H2323     1.0  0.71681  0.70028  0.24512  1.0000
  H   H2324     1.0  0.76133  0.70261  0.30573  1.0000
  C   C1356     1.0  0.72237  0.72277  0.31496  1.0000
  C   C1357     1.0  0.64455  0.60651  0.29459  1.0000
  C   C1358     1.0  0.81673  0.72421  0.17285  1.0000
  H   H2325     1.0  0.69741  0.68790  0.24283  1.0000
  C   C1359     1.0  0.75778  0.71291  0.29461  1.0000
  H   H2326     1.0  0.77423  0.69882  0.27503  1.0000
  H   H2327     1.0  0.76914  0.73189  0.08235  1.0000
  H   H2328     1.0  0.73979  0.73205  0.08478  1.0000
  H   H2329     1.0  0.78552  0.71039  0.28258  1.0000
  H   H2330     1.0  0.68949  0.68175  0.22754  1.0000
  C   C1360     1.0  0.59731  0.63900  0.29210  1.0000
  H   H2331     1.0  0.58756  0.65110  0.29132  1.0000
  H   H2332     1.0  0.80594  0.72121  0.16896  1.0000
  H   H2333     1.0  0.77131  0.72160  0.26781  1.0000
  N   N97       1.0  0.71180  0.71442  0.21976  1.0000
  C   C1361     1.0  0.72224  0.72376  0.20367  1.0000
  C   C1362     1.0  0.72342  0.70704  0.23261  1.0000
  C   C1363     1.0  0.71776  0.70190  0.28296  1.0000
  C   C1364     1.0  0.70549  0.70085  0.21492  1.0000
  H   H2334     1.0  0.71142  0.67396  0.22879  1.0000
  C   C1365     1.0  0.81563  0.73566  0.22574  1.0000
  H   H2335     1.0  0.74979  0.70141  0.21718  1.0000
  C   C1366     1.0  0.70085  0.68549  0.22955  1.0000
  C   C1367     1.0  0.70605  0.73161  0.27101  1.0000
  H   H2336     1.0  0.70297  0.59955  0.31786  1.0000
  H   H2337     1.0  0.67528  0.71263  0.30132  1.0000
  H   H2338     1.0  0.73304  0.71454  0.19740  1.0000
  C   C1368     1.0  0.64488  0.58884  0.29978  1.0000
  H   H2339     1.0  0.70480  0.72673  0.18593  1.0000
  H   H2340     1.0  0.69400  0.70682  0.20899  1.0000
  H   H2341     1.0  0.71554  0.69503  0.20475  1.0000
  H   H2342     1.0  0.72861  0.69115  0.28350  1.0000
  H   H2343     1.0  0.59565  0.63256  0.28238  1.0000
  S   S387      1.0  0.75700  0.73349  0.23676  1.0000
  C   C1369     1.0  0.68437  0.72091  0.24344  1.0000
  H   H2344     1.0  0.85684  0.73303  0.15085  1.0000
  H   H2345     1.0  0.69085  0.71366  0.25420  1.0000
  H   H2346     1.0  0.73096  0.58264  0.31832  1.0000
  C   C1370     1.0  0.60186  0.66217  0.31788  1.0000
  C   C1371     1.0  0.69691  0.72759  0.22692  1.0000
  C   C1372     1.0  0.75799  0.73375  0.15660  1.0000
  H   H2347     1.0  0.68861  0.73407  0.21736  1.0000
  H   H2348     1.0  0.80533  0.73094  0.22358  1.0000
  C   C1373     1.0  0.71245  0.73429  0.18933  1.0000
  S   S388      1.0  0.86558  0.73705  0.20320  1.0000
  H   H2349     1.0  0.57254  0.65894  0.31462  1.0000
  Fe  Fe192     1.0  0.65125  0.65055  0.31745  1.0000
  H   H2350     1.0  0.71687  0.73045  0.30366  1.0000
  H   H2351     1.0  0.72510  0.70889  0.31454  1.0000
  C   C1374     1.0  0.76758  0.73462  0.30310  1.0000
  C   C1375     1.0  0.83214  0.73281  0.21512  1.0000
  N   N98       1.0  0.75208  0.73033  0.29964  1.0000
  S   S389      1.0  0.65029  0.67899  0.31156  1.0000
  C   C1376     1.0  0.59513  0.62681  0.30997  1.0000
  S   S390      1.0  0.70017  0.68039  0.30850  1.0000
  H   H2352     1.0  0.60815  0.61859  0.31049  1.0000
  S   S391      1.0  0.54683  0.59883  0.35621  1.0000
  C   C1377     1.0  0.49513  0.69408  0.36737  1.0000
  C   C1378     1.0  0.57386  0.67026  0.36103  1.0000
  Fe  Fe193     1.0  0.62036  0.53501  0.38400  1.0000
  S   S392      1.0  0.64100  0.51658  0.39642  1.0000
  S   S393      1.0  0.59367  0.53982  0.39958  1.0000
  Fe  Fe194     1.0  0.64464  0.54427  0.34991  1.0000
  S   S394      1.0  0.66751  0.52661  0.35948  1.0000
  C   C1379     1.0  0.62901  0.49639  0.62824  1.0000
  Fe  Fe195     1.0  0.64982  0.50783  0.37102  1.0000
  C   C1380     1.0  0.68855  0.61346  0.63651  1.0000
  Fe  Fe196     1.0  0.65628  0.53724  0.38380  1.0000
  S   S395      1.0  0.67141  0.54759  0.39697  1.0000
  S   S396      1.0  0.62771  0.52479  0.35973  1.0000
  S   S397      1.0  0.63479  0.55639  0.37307  1.0000
  H   H2353     1.0  0.68045  0.56173  0.36019  1.0000
  N   N99       1.0  0.69936  0.57791  0.35329  1.0000
  S   S398      1.0  0.66606  0.62267  0.37369  1.0000
  Fe  Fe197     1.0  0.64718  0.66480  0.58421  1.0000
  S   S399      1.0  0.62011  0.66779  0.59967  1.0000
  S   S400      1.0  0.65264  0.66467  0.55563  1.0000
  Fe  Fe198     1.0  0.66204  0.66508  0.61487  1.0000
  S   S401      1.0  0.63629  0.66808  0.63273  1.0000
  S   S402      1.0  0.68669  0.66138  0.62403  1.0000
  Fe  Fe199     1.0  0.63152  0.64865  0.62062  1.0000
  H   H2354     1.0  0.65514  0.62578  0.64877  1.0000
  Fe  Fe200     1.0  0.62714  0.68701  0.61030  1.0000
  S   S403      1.0  0.60725  0.71072  0.61458  1.0000
  S   S404      1.0  0.65819  0.64375  0.60442  1.0000
  S   S405      1.0  0.65346  0.68592  0.59313  1.0000
  Fe  Fe201     1.0  0.60628  0.63458  0.46849  1.0000
  S   S406      1.0  0.62710  0.62167  0.44947  1.0000
  S   S407      1.0  0.58500  0.65366  0.45693  1.0000
  Fe  Fe202     1.0  0.62552  0.61850  0.49806  1.0000
  S   S408      1.0  0.64815  0.60443  0.48109  1.0000
  S   S409      1.0  0.62441  0.61469  0.52687  1.0000
  Fe  Fe203     1.0  0.64509  0.62915  0.46143  1.0000
  S   S410      1.0  0.66587  0.64221  0.44331  1.0000
  Fe  Fe204     1.0  0.62819  0.59818  0.47057  1.0000
  S   S411      1.0  0.62831  0.57199  0.46621  1.0000
  S   S412      1.0  0.62423  0.64378  0.47916  1.0000
  S   S413      1.0  0.60561  0.61043  0.48892  1.0000
  C   C1381     1.0  0.58930  0.60762  0.40272  1.0000
  C   C1382     1.0  0.64648  0.58979  0.32870  1.0000
  H   H2355     1.0  0.63043  0.67597  0.44716  1.0000
  H   H2356     1.0  0.69003  0.63023  0.65190  1.0000
  C   C1383     1.0  0.60130  0.60714  0.34561  1.0000
  C   C1384     1.0  0.59278  0.57106  0.42612  1.0000
  H   H2357     1.0  0.59679  0.61755  0.43631  1.0000
  C   C1385     1.0  0.69561  0.57892  0.37220  1.0000
  C   C1386     1.0  0.68757  0.66883  0.64218  1.0000
  C   C1387     1.0  0.64623  0.60759  0.32344  1.0000
  H   H2358     1.0  0.62376  0.65924  0.44193  1.0000
  H   H2359     1.0  0.56674  0.50087  0.43392  1.0000
  C   C1388     1.0  0.57180  0.64846  0.62231  1.0000
  C   C1389     1.0  0.64318  0.60347  0.62914  1.0000
  H   H2360     1.0  0.54823  0.64987  0.41984  1.0000
  H   H2361     1.0  0.61589  0.59528  0.37840  1.0000
  H   H2362     1.0  0.50196  0.67581  0.34179  1.0000
  H   H2363     1.0  0.64661  0.61228  0.61713  1.0000
  Fe  Fe205     1.0  0.50038  0.63854  0.39055  1.0000
  H   H2364     1.0  0.71773  0.58722  0.37599  1.0000
  H   H2365     1.0  0.56793  0.66032  0.61281  1.0000
  S   S414      1.0  0.67681  0.64350  0.32503  1.0000
  H   H2366     1.0  0.62461  0.68102  0.37957  1.0000
  S   S415      1.0  0.66132  0.67280  0.34922  1.0000
  H   H2367     1.0  0.58255  0.65074  0.62697  1.0000
  H   H2368     1.0  0.67423  0.59346  0.35030  1.0000
  H   H2369     1.0  0.61365  0.65193  0.42079  1.0000
  C   C1390     1.0  0.64289  0.65175  0.54836  1.0000
  C   C1391     1.0  0.64184  0.65545  0.53087  1.0000
  C   C1392     1.0  0.63559  0.64452  0.52427  1.0000
  C   C1393     1.0  0.63053  0.62968  0.53509  1.0000
  C   C1394     1.0  0.63124  0.62614  0.55268  1.0000
  C   C1395     1.0  0.63740  0.63715  0.55931  1.0000
  H   H2370     1.0  0.64605  0.66674  0.52235  1.0000
  H   H2371     1.0  0.63497  0.64743  0.51075  1.0000
  H   H2372     1.0  0.62738  0.61466  0.56110  1.0000
  H   H2373     1.0  0.63833  0.63411  0.57277  1.0000
  C   C1396     1.0  0.66888  0.63616  0.42350  1.0000
  C   C1397     1.0  0.67198  0.64796  0.40785  1.0000
  C   C1398     1.0  0.67153  0.64384  0.39230  1.0000
  C   C1399     1.0  0.66834  0.62780  0.39244  1.0000
  C   C1400     1.0  0.66632  0.61571  0.40795  1.0000
  C   C1401     1.0  0.66647  0.61992  0.42344  1.0000
  H   H2374     1.0  0.67401  0.66049  0.40785  1.0000
  H   H2375     1.0  0.67350  0.65308  0.38030  1.0000
  H   H2376     1.0  0.66420  0.60321  0.40811  1.0000
  H   H2377     1.0  0.66444  0.61065  0.43546  1.0000
  C   C1402     1.0  0.65961  0.55417  0.41637  1.0000
  C   C1403     1.0  0.64494  0.54769  0.42572  1.0000
  C   C1404     1.0  0.63563  0.55307  0.44112  1.0000
  C   C1405     1.0  0.64059  0.56536  0.44701  1.0000
  C   C1406     1.0  0.65508  0.57211  0.43749  1.0000
  C   C1407     1.0  0.66472  0.56632  0.42234  1.0000
  H   H2378     1.0  0.64088  0.53833  0.42126  1.0000
  H   H2379     1.0  0.62445  0.54780  0.44843  1.0000
  H   H2380     1.0  0.65903  0.58151  0.44201  1.0000
  H   H2381     1.0  0.67606  0.57138  0.41518  1.0000
  H   H2382     1.0  0.64300  0.67961  0.38758  1.0000
  H   H2383     1.0  0.68058  0.60768  0.32046  1.0000
  H   H2384     1.0  0.58540  0.60468  0.39185  1.0000
  H   H2385     1.0  0.58631  0.50636  0.42046  1.0000
  C   C1408     1.0  0.70367  0.59196  0.37668  1.0000
  H   H2386     1.0  0.69776  0.59341  0.39024  1.0000
  H   H2387     1.0  0.70029  0.56638  0.38034  1.0000
  H   H2388     1.0  0.64732  0.58331  0.34183  1.0000
  H   H2389     1.0  0.49542  0.71890  0.64469  1.0000
  H   H2390     1.0  0.63179  0.70978  0.39288  1.0000
  H   H2391     1.0  0.64265  0.67687  0.41708  1.0000
  H   H2392     1.0  0.71530  0.66414  0.63569  1.0000
  H   H2393     1.0  0.63615  0.65241  0.38403  1.0000
  H   H2394     1.0  0.57013  0.60464  0.60316  1.0000
  C   C1409     1.0  0.55980  0.58217  0.36808  1.0000
  C   C1410     1.0  0.57450  0.57219  0.35959  1.0000
  C   C1411     1.0  0.58514  0.55924  0.36924  1.0000
  C   C1412     1.0  0.58074  0.55599  0.38733  1.0000
  C   C1413     1.0  0.56602  0.56587  0.39577  1.0000
  C   C1414     1.0  0.55573  0.57911  0.38615  1.0000
  H   H2395     1.0  0.57778  0.57462  0.34560  1.0000
  H   H2396     1.0  0.59659  0.55170  0.36265  1.0000
  H   H2397     1.0  0.56266  0.56346  0.40977  1.0000
  Fe  Fe206     1.0  0.66149  0.64487  0.35175  1.0000
  C   C1415     1.0  0.56826  0.62762  0.46018  1.0000
  H   H2398     1.0  0.55203  0.62877  0.61641  1.0000
  C   C1416     1.0  0.60416  0.49257  0.39202  1.0000
  H   H2399     1.0  0.55635  0.60659  0.46149  1.0000
  H   H2400     1.0  0.57395  0.62127  0.47131  1.0000
  H   H2401     1.0  0.64639  0.59342  0.37608  1.0000
  H   H2402     1.0  0.57178  0.65739  0.36696  1.0000
  H   H2403     1.0  0.72612  0.56897  0.35507  1.0000
  H   H2404     1.0  0.72104  0.59065  0.34422  1.0000
  C   C1417     1.0  0.62990  0.53586  0.64563  1.0000
  H   H2405     1.0  0.55242  0.70999  0.34472  1.0000
  C   C1418     1.0  0.62879  0.68469  0.38973  1.0000
  C   C1419     1.0  0.62465  0.64992  0.39424  1.0000
  C   C1420     1.0  0.58866  0.62721  0.39879  1.0000
  H   H2406     1.0  0.69273  0.56184  0.33930  1.0000
  H   H2407     1.0  0.62578  0.69527  0.41944  1.0000
  C   C1421     1.0  0.60476  0.57763  0.40909  1.0000
  H   H2408     1.0  0.68141  0.58189  0.37743  1.0000
  H   H2409     1.0  0.58723  0.66936  0.40276  1.0000
  N   N100      1.0  0.60638  0.59621  0.40559  1.0000
  H   H2410     1.0  0.57278  0.73044  0.62127  1.0000
  H   H2411     1.0  0.61251  0.49009  0.37949  1.0000
  C   C1422     1.0  0.71826  0.57765  0.34577  1.0000
  C   C1423     1.0  0.68813  0.59359  0.34454  1.0000
  H   H2412     1.0  0.59927  0.67795  0.63407  1.0000
  H   H2413     1.0  0.68054  0.64943  0.52662  1.0000
  C   C1424     1.0  0.58520  0.62061  0.34127  1.0000
  S   S416      1.0  0.61666  0.62959  0.63867  1.0000
  H   H2414     1.0  0.71904  0.54350  0.35179  1.0000
  H   H2415     1.0  0.58007  0.52495  0.35665  1.0000
  C   C1425     1.0  0.57241  0.68339  0.64620  1.0000
  H   H2416     1.0  0.55918  0.63736  0.64880  1.0000
  C   C1426     1.0  0.55376  0.64368  0.43110  1.0000
  H   H2417     1.0  0.64078  0.51865  0.62094  1.0000
  H   H2418     1.0  0.59718  0.59767  0.35745  1.0000
  H   H2419     1.0  0.57876  0.61950  0.58413  1.0000
  S   S417      1.0  0.54084  0.61538  0.43212  1.0000
  H   H2420     1.0  0.61293  0.66632  0.31995  1.0000
  H   H2421     1.0  0.57830  0.69216  0.40042  1.0000
  H   H2422     1.0  0.68531  0.63624  0.54635  1.0000
  C   C1427     1.0  0.55659  0.64029  0.32266  1.0000
  C   C1428     1.0  0.57922  0.70371  0.34614  1.0000
  H   H2423     1.0  0.71663  0.63067  0.49959  1.0000
  S   S418      1.0  0.53940  0.67934  0.35838  1.0000
  H   H2424     1.0  0.68716  0.60982  0.53777  1.0000
  H   H2425     1.0  0.54447  0.58673  0.39281  1.0000
  Fe  Fe207     1.0  0.53168  0.62714  0.40722  1.0000
  C   C1429     1.0  0.58784  0.70474  0.62643  1.0000
  H   H2426     1.0  0.70188  0.63635  0.52732  1.0000
  C   C1430     1.0  0.57491  0.48981  0.41079  1.0000
  H   H2427     1.0  0.56577  0.51669  0.41451  1.0000
  C   C1431     1.0  0.68177  0.62174  0.52910  1.0000
  H   H2428     1.0  0.61803  0.52358  0.62300  1.0000
  C   C1432     1.0  0.56295  0.69990  0.34855  1.0000
  H   H2429     1.0  0.57875  0.62602  0.35305  1.0000
  H   H2430     1.0  0.61956  0.61333  0.38418  1.0000
  H   H2431     1.0  0.60451  0.65088  0.57625  1.0000
  H   H2432     1.0  0.60876  0.67928  0.44462  1.0000
  H   H2433     1.0  0.69031  0.60559  0.34681  1.0000
  H   H2434     1.0  0.61742  0.56878  0.40952  1.0000
  C   C1433     1.0  0.63838  0.59083  0.38932  1.0000
  C   C1434     1.0  0.59189  0.65081  0.58542  1.0000
  C   C1435     1.0  0.69382  0.56195  0.35249  1.0000
  C   C1436     1.0  0.62230  0.67337  0.43951  1.0000
  C   C1437     1.0  0.62359  0.65739  0.41011  1.0000
  H   H2435     1.0  0.59488  0.63187  0.38520  1.0000
  H   H2436     1.0  0.64351  0.59622  0.39763  1.0000
  H   H2437     1.0  0.59962  0.62381  0.59453  1.0000
  N   N101      1.0  0.62020  0.67682  0.40769  1.0000
  H   H2438     1.0  0.70499  0.54193  0.37291  1.0000
  C   C1438     1.0  0.61938  0.59941  0.38881  1.0000
  H   H2439     1.0  0.60434  0.59681  0.44786  1.0000
  H   H2440     1.0  0.61920  0.61090  0.41495  1.0000
  H   H2441     1.0  0.57500  0.63410  0.40040  1.0000
  H   H2442     1.0  0.70149  0.60492  0.36837  1.0000
  C   C1439     1.0  0.64864  0.57532  0.64769  1.0000
  H   H2443     1.0  0.64041  0.57675  0.39371  1.0000
  H   H2444     1.0  0.59438  0.63111  0.40771  1.0000
  H   H2445     1.0  0.58682  0.59981  0.43785  1.0000
  H   H2446     1.0  0.57861  0.60505  0.41387  1.0000
  H   H2447     1.0  0.60024  0.57516  0.39836  1.0000
  H   H2448     1.0  0.61688  0.55102  0.62436  1.0000
  H   H2449     1.0  0.63642  0.49630  0.34420  1.0000
  C   C1440     1.0  0.62834  0.68114  0.42025  1.0000
  H   H2450     1.0  0.62291  0.58868  0.42411  1.0000
  C   C1441     1.0  0.59918  0.60367  0.43613  1.0000
  H   H2451     1.0  0.59926  0.50926  0.35938  1.0000
  C   C1442     1.0  0.61276  0.59969  0.41987  1.0000
  H   H2452     1.0  0.51186  0.70706  0.37398  1.0000
  H   H2453     1.0  0.55294  0.66010  0.64241  1.0000
  H   H2454     1.0  0.63605  0.65138  0.41426  1.0000
  C   C1443     1.0  0.62577  0.70452  0.38519  1.0000
  C   C1444     1.0  0.58502  0.51131  0.36242  1.0000
  N   N102      1.0  0.57775  0.63280  0.61409  1.0000
  H   H2455     1.0  0.60479  0.50588  0.39231  1.0000
  H   H2456     1.0  0.62637  0.63574  0.39812  1.0000
  H   H2457     1.0  0.57926  0.57827  0.42712  1.0000
  H   H2458     1.0  0.61292  0.65483  0.38876  1.0000
  C   C1445     1.0  0.59392  0.63522  0.60058  1.0000
  H   H2459     1.0  0.63196  0.70854  0.37140  1.0000
  H   H2460     1.0  0.59825  0.69771  0.41301  1.0000
  C   C1446     1.0  0.55623  0.64786  0.63773  1.0000
  H   H2461     1.0  0.55644  0.61880  0.58959  1.0000
  H   H2462     1.0  0.59246  0.55747  0.42670  1.0000
  C   C1447     1.0  0.56015  0.68323  0.35604  1.0000
  C   C1448     1.0  0.55142  0.62712  0.43982  1.0000
  C   C1449     1.0  0.59038  0.67401  0.35816  1.0000
  H   H2463     1.0  0.60091  0.66406  0.36208  1.0000
  H   H2464     1.0  0.59600  0.59104  0.63447  1.0000
  S   S419      1.0  0.63598  0.64938  0.34449  1.0000
  C   C1450     1.0  0.60109  0.68402  0.41174  1.0000
  H   H2465     1.0  0.59691  0.68513  0.38571  1.0000
  C   C1451     1.0  0.59047  0.68232  0.39944  1.0000
  H   H2466     1.0  0.66763  0.62421  0.53433  1.0000
  H   H2467     1.0  0.59511  0.67743  0.42476  1.0000
  C   C1452     1.0  0.55827  0.61933  0.45463  1.0000
  C   C1453     1.0  0.59305  0.69080  0.35069  1.0000
  C   C1454     1.0  0.70547  0.54458  0.35883  1.0000
  C   C1455     1.0  0.56775  0.61777  0.59519  1.0000
  H   H2468     1.0  0.60408  0.63649  0.60672  1.0000
  H   H2469     1.0  0.59872  0.52465  0.64921  1.0000
  C   C1456     1.0  0.70385  0.66847  0.64486  1.0000
  H   H2470     1.0  0.66159  0.50168  0.63515  1.0000
  H   H2471     1.0  0.59780  0.57090  0.43755  1.0000
  C   C1457     1.0  0.56351  0.65212  0.43686  1.0000
  S   S420      1.0  0.55043  0.63014  0.38180  1.0000
  H   H2472     1.0  0.54449  0.64677  0.63411  1.0000
  H   H2473     1.0  0.68136  0.60360  0.63690  1.0000
  H   H2474     1.0  0.58113  0.71672  0.34055  1.0000
  H   H2475     1.0  0.64683  0.61483  0.33257  1.0000
  H   H2476     1.0  0.56342  0.50862  0.38375  1.0000
  H   H2477     1.0  0.59423  0.73639  0.64538  1.0000
  S   S421      1.0  0.61312  0.69647  0.34780  1.0000
  H   H2478     1.0  0.57838  0.51944  0.38652  1.0000
  C   C1458     1.0  0.57129  0.64743  0.32508  1.0000
  C   C1459     1.0  0.57115  0.64389  0.45113  1.0000
  C   C1460     1.0  0.56347  0.63158  0.60621  1.0000
  H   H2479     1.0  0.61188  0.71050  0.38642  1.0000
  H   H2480     1.0  0.58265  0.65010  0.57794  1.0000
  H   H2481     1.0  0.62088  0.56334  0.63749  1.0000
  H   H2482     1.0  0.56539  0.66487  0.43008  1.0000
  C   C1461     1.0  0.68795  0.63678  0.53219  1.0000
  Fe  Fe208     1.0  0.53351  0.61790  0.37315  1.0000
  C   C1462     1.0  0.57265  0.71728  0.62807  1.0000
  C   C1463     1.0  0.57350  0.50434  0.42025  1.0000
  Fe  Fe209     1.0  0.53199  0.65464  0.37453  1.0000
  H   H2483     1.0  0.70214  0.60853  0.63053  1.0000
  S   S422      1.0  0.51619  0.61266  0.39920  1.0000
  S   S423      1.0  0.51644  0.64268  0.36366  1.0000
  H   H2484     1.0  0.64252  0.48933  0.62491  1.0000
  C   C1464     1.0  0.50093  0.68231  0.64784  1.0000
  H   H2485     1.0  0.69094  0.64481  0.49903  1.0000
  H   H2486     1.0  0.72240  0.61390  0.51758  1.0000
  C   C1465     1.0  0.49784  0.70703  0.37672  1.0000
  H   H2487     1.0  0.70510  0.59626  0.51575  1.0000
  H   H2488     1.0  0.66929  0.64345  0.50206  1.0000
  C   C1466     1.0  0.71877  0.61667  0.50480  1.0000
  H   H2489     1.0  0.66411  0.59633  0.53653  1.0000
  C   C1467     1.0  0.62877  0.60863  0.64163  1.0000
  H   H2490     1.0  0.59399  0.59710  0.61233  1.0000
  S   S424      1.0  0.64676  0.55811  0.32222  1.0000
  H   H2491     1.0  0.58085  0.50318  0.35592  1.0000
  N   N103      1.0  0.68553  0.61911  0.51073  1.0000
  C   C1468     1.0  0.68274  0.63624  0.49838  1.0000
  H   H2492     1.0  0.56657  0.65265  0.33719  1.0000
  H   H2493     1.0  0.49389  0.70321  0.39097  1.0000
  H   H2494     1.0  0.55889  0.64417  0.59797  1.0000
  H   H2495     1.0  0.60868  0.60533  0.61960  1.0000
  H   H2496     1.0  0.66146  0.58657  0.52057  1.0000
  C   C1469     1.0  0.65309  0.58674  0.63213  1.0000
  Fe  Fe210     1.0  0.67479  0.67201  0.32154  1.0000
  C   C1470     1.0  0.70337  0.60851  0.50606  1.0000
  H   H2497     1.0  0.62297  0.49668  0.61742  1.0000
  H   H2498     1.0  0.74418  0.71884  0.32665  1.0000
  H   H2499     1.0  0.73003  0.61113  0.49550  1.0000
  H   H2500     1.0  0.68259  0.58353  0.52453  1.0000
  C   C1471     1.0  0.67037  0.59302  0.52370  1.0000
  H   H2501     1.0  0.65978  0.61763  0.50950  1.0000
  C   C1472     1.0  0.67280  0.60921  0.50944  1.0000
  H   H2502     1.0  0.70080  0.53397  0.35650  1.0000
  C   C1473     1.0  0.59581  0.60186  0.62308  1.0000
  H   H2503     1.0  0.66442  0.58282  0.62262  1.0000
  H   H2504     1.0  0.68804  0.58543  0.32057  1.0000
  H   H2505     1.0  0.60364  0.55202  0.64579  1.0000
  H   H2506     1.0  0.56956  0.61197  0.63476  1.0000
  C   C1474     1.0  0.58146  0.61712  0.62820  1.0000
  H   H2507     1.0  0.70526  0.60404  0.49378  1.0000
  Fe  Fe211     1.0  0.63690  0.67721  0.33952  1.0000
  H   H2508     1.0  0.60754  0.59965  0.33529  1.0000
  C   C1475     1.0  0.58763  0.68773  0.63528  1.0000
  H   H2509     1.0  0.57637  0.61313  0.33964  1.0000
  S   S425      1.0  0.51437  0.65286  0.40080  1.0000
  C   C1476     1.0  0.68583  0.63539  0.47915  1.0000
  H   H2510     1.0  0.67654  0.60477  0.49695  1.0000
  C   C1477     1.0  0.60131  0.64365  0.32828  1.0000
  H   H2511     1.0  0.50826  0.69231  0.64652  1.0000
  H   H2512     1.0  0.67660  0.62887  0.47678  1.0000
  H   H2513     1.0  0.69925  0.62911  0.47414  1.0000
  H   H2514     1.0  0.58826  0.66329  0.58966  1.0000
  H   H2515     1.0  0.71220  0.72451  0.32673  1.0000
  C   C1478     1.0  0.55727  0.69597  0.64796  1.0000
  C   C1479     1.0  0.62860  0.51510  0.62930  1.0000
  H   H2516     1.0  0.58548  0.62056  0.63872  1.0000
  H   H2517     1.0  0.61087  0.61295  0.34838  1.0000
  H   H2518     1.0  0.68364  0.64871  0.47136  1.0000
  H   H2519     1.0  0.50269  0.69677  0.35399  1.0000
  H   H2520     1.0  0.62198  0.48888  0.63998  1.0000
  C   C1480     1.0  0.57749  0.50802  0.38208  1.0000
  H   H2521     1.0  0.68349  0.62550  0.62788  1.0000
  C   C1481     1.0  0.55736  0.71286  0.63871  1.0000
  C   C1482     1.0  0.61692  0.55123  0.63786  1.0000
  N   N104      1.0  0.62648  0.51822  0.64722  1.0000
  H   H2522     1.0  0.73696  0.56100  0.32932  1.0000
  H   H2523     1.0  0.59903  0.64452  0.34211  1.0000
  H   H2524     1.0  0.61472  0.48826  0.41527  1.0000
  H   H2525     1.0  0.66256  0.51595  0.64850  1.0000
  H   H2526     1.0  0.55196  0.63098  0.33431  1.0000
  H   H2527     1.0  0.64277  0.53718  0.63727  1.0000
  C   C1483     1.0  0.65834  0.50413  0.64845  1.0000
  H   H2528     1.0  0.50186  0.68105  0.37305  1.0000
  C   C1484     1.0  0.72585  0.57200  0.32814  1.0000
  H   H2529     1.0  0.56153  0.48923  0.41057  1.0000
  H   H2530     1.0  0.71671  0.56804  0.32282  1.0000
  C   C1485     1.0  0.69032  0.59632  0.32478  1.0000
  N   N105      1.0  0.58828  0.63489  0.32569  1.0000
  H   H2531     1.0  0.54566  0.72262  0.64001  1.0000
  H   H2532     1.0  0.50286  0.67948  0.63480  1.0000
  H   H2533     1.0  0.61307  0.72019  0.64644  1.0000
  N   N106      1.0  0.58584  0.49153  0.39272  1.0000
  H   H2534     1.0  0.59016  0.67150  0.32247  1.0000
  H   H2535     1.0  0.54538  0.65106  0.32088  1.0000
  H   H2536     1.0  0.61455  0.63587  0.32536  1.0000
  Fe  Fe212     1.0  0.54961  0.62635  0.68617  1.0000
  S   S426      1.0  0.53852  0.62367  0.71458  1.0000
  S   S427      1.0  0.56189  0.60359  0.67340  1.0000
  Fe  Fe213     1.0  0.54082  0.66538  0.68007  1.0000
  S   S428      1.0  0.52932  0.66556  0.70811  1.0000
  H   H2537     1.0  0.71936  0.52568  0.76025  1.0000
  Fe  Fe214     1.0  0.55235  0.64468  0.71283  1.0000
  S   S429      1.0  0.56946  0.64035  0.73186  1.0000
  C   C1486     1.0  0.72454  0.72692  0.72204  1.0000
  S   S430      1.0  0.56484  0.64606  0.68483  1.0000
  S   S431      1.0  0.52686  0.64585  0.67838  1.0000
  H   H2538     1.0  0.70190  0.70587  0.73470  1.0000
  Fe  Fe215     1.0  0.66487  0.54384  0.71534  1.0000
  S   S432      1.0  0.64515  0.56187  0.70137  1.0000
  S   S433      1.0  0.68128  0.55175  0.72919  1.0000
  Fe  Fe216     1.0  0.65816  0.51172  0.70710  1.0000
  S   S434      1.0  0.63772  0.52740  0.69279  1.0000
  H   H2539     1.0  0.66347  0.64578  0.68262  1.0000
  Fe  Fe217     1.0  0.65581  0.54552  0.68123  1.0000
  Fe  Fe218     1.0  0.62907  0.54186  0.71430  1.0000
  S   S435      1.0  0.60131  0.54878  0.72692  1.0000
  S   S436      1.0  0.67705  0.52901  0.69403  1.0000
  S   S437      1.0  0.64806  0.52474  0.72989  1.0000
  Fe  Fe219     1.0  0.67809  0.67884  0.71497  1.0000
  S   S438      1.0  0.65940  0.66130  0.72140  1.0000
  S   S439      1.0  0.69380  0.68698  0.68848  1.0000
  Fe  Fe220     1.0  0.67324  0.68400  0.75208  1.0000
  S   S440      1.0  0.65372  0.66661  0.76181  1.0000
  S   S441      1.0  0.67862  0.70013  0.76914  1.0000
  Fe  Fe221     1.0  0.67149  0.64911  0.74442  1.0000
  S   S442      1.0  0.67808  0.62021  0.75435  1.0000
  Fe  Fe222     1.0  0.64282  0.67975  0.73808  1.0000
  S   S443      1.0  0.61437  0.68989  0.73833  1.0000
  S   S444      1.0  0.69192  0.66526  0.73667  1.0000
  S   S445      1.0  0.66058  0.69851  0.72962  1.0000
  C   C1487     1.0  0.69010  0.72050  0.78444  1.0000
  C   C1488     1.0  0.84378  0.73135  0.89527  1.0000
  H   H2540     1.0  0.58272  0.68252  0.67849  1.0000
  C   C1489     1.0  0.69087  0.67944  0.67124  1.0000
  S   S446      1.0  0.75681  0.73235  0.94039  1.0000
  C   C1490     1.0  0.69505  0.70767  0.77442  1.0000
  C   C1491     1.0  0.71271  0.70115  0.76925  1.0000
  C   C1492     1.0  0.72510  0.70740  0.77398  1.0000
  C   C1493     1.0  0.72015  0.72019  0.78408  1.0000
  H   H2541     1.0  0.63751  0.50726  0.66994  1.0000
  H   H2542     1.0  0.66308  0.68403  0.67804  1.0000
  H   H2543     1.0  0.71680  0.69107  0.76185  1.0000
  H   H2544     1.0  0.63456  0.66738  0.67331  1.0000
  C   C1494     1.0  0.67886  0.57153  0.73553  1.0000
  C   C1495     1.0  0.66963  0.58739  0.72791  1.0000
  C   C1496     1.0  0.66923  0.60275  0.73321  1.0000
  C   C1497     1.0  0.67788  0.60211  0.74628  1.0000
  C   C1498     1.0  0.68668  0.58617  0.75391  1.0000
  C   C1499     1.0  0.68730  0.57112  0.74851  1.0000
  H   H2545     1.0  0.66305  0.58780  0.71788  1.0000
  H   H2546     1.0  0.66221  0.61500  0.72740  1.0000
  H   H2547     1.0  0.69327  0.58549  0.76406  1.0000
  H   H2548     1.0  0.69437  0.55904  0.75456  1.0000
  C   C1500     1.0  0.73389  0.49156  0.73142  1.0000
  H   H2549     1.0  0.57103  0.59661  0.76858  1.0000
  C   C1501     1.0  0.60291  0.52221  0.67481  1.0000
  H   H2550     1.0  0.74244  0.50102  0.72621  1.0000
  C   C1502     1.0  0.70249  0.72675  0.78920  1.0000
  H   H2551     1.0  0.55941  0.68814  0.70413  1.0000
  H   H2552     1.0  0.62482  0.67558  0.69261  1.0000
  C   C1503     1.0  0.72400  0.52232  0.70578  1.0000
  C   C1504     1.0  0.63897  0.62915  0.67336  1.0000
  H   H2553     1.0  0.72281  0.67230  0.80336  1.0000
  H   H2554     1.0  0.85266  0.71872  0.89489  1.0000
  H   H2555     1.0  0.75211  0.71510  0.71477  1.0000
  H   H2556     1.0  0.67413  0.72583  0.73669  1.0000
  H   H2557     1.0  0.83761  0.67956  0.92796  1.0000
  H   H2558     1.0  0.57902  0.72357  0.67367  1.0000
  H   H2559     1.0  0.69479  0.67078  0.87010  1.0000
  H   H2560     1.0  0.67652  0.72571  0.78856  1.0000
  S   S447      1.0  0.76510  0.73372  0.81830  1.0000
  H   H2561     1.0  0.63446  0.61686  0.67633  1.0000
  H   H2562     1.0  0.61407  0.66295  0.68515  1.0000
  C   C1505     1.0  0.57191  0.58676  0.68796  1.0000
  C   C1506     1.0  0.58813  0.57699  0.68217  1.0000
  C   C1507     1.0  0.59699  0.56489  0.69411  1.0000
  C   C1508     1.0  0.58953  0.56233  0.71177  1.0000
  C   C1509     1.0  0.57285  0.57123  0.71741  1.0000
  C   C1510     1.0  0.56408  0.58347  0.70552  1.0000
  H   H2563     1.0  0.59409  0.57924  0.66857  1.0000
  H   H2564     1.0  0.60965  0.55767  0.68971  1.0000
  H   H2565     1.0  0.56686  0.56902  0.73101  1.0000
  H   H2566     1.0  0.55121  0.59026  0.70995  1.0000
  C   C1511     1.0  0.58184  0.65541  0.73087  1.0000
  C   C1512     1.0  0.59992  0.65074  0.72713  1.0000
  C   C1513     1.0  0.61002  0.66107  0.72962  1.0000
  C   C1514     1.0  0.60211  0.67630  0.73562  1.0000
  C   C1515     1.0  0.58407  0.68137  0.73861  1.0000
  C   C1516     1.0  0.57396  0.67087  0.73642  1.0000
  H   H2567     1.0  0.60615  0.63900  0.72254  1.0000
  H   H2568     1.0  0.62389  0.65720  0.72699  1.0000
  H   H2569     1.0  0.57789  0.69322  0.74310  1.0000
  H   H2570     1.0  0.56003  0.67442  0.73967  1.0000
  H   H2571     1.0  0.68670  0.63974  0.67558  1.0000
  C   C1517     1.0  0.60243  0.70681  0.69310  1.0000
  H   H2572     1.0  0.85355  0.69012  0.91304  1.0000
  S   S448      1.0  0.53811  0.69104  0.66177  1.0000
  H   H2573     1.0  0.80175  0.73740  0.89140  1.0000
  H   H2574     1.0  0.61060  0.51363  0.68416  1.0000
  H   H2575     1.0  0.72076  0.69841  0.69899  1.0000
  C   C1518     1.0  0.80008  0.71315  0.88680  1.0000
  C   C1519     1.0  0.74641  0.71490  0.90313  1.0000
  C   C1520     1.0  0.56702  0.69808  0.69662  1.0000
  H   H2576     1.0  0.69832  0.73665  0.79682  1.0000
  H   H2577     1.0  0.63647  0.49183  0.65898  1.0000
  H   H2578     1.0  0.63060  0.53790  0.65835  1.0000
  H   H2579     1.0  0.49493  0.68650  0.70745  1.0000
  H   H2580     1.0  0.68484  0.60873  0.68875  1.0000
  H   H2581     1.0  0.66605  0.49327  0.65630  1.0000
  H   H2582     1.0  0.60277  0.69659  0.70491  1.0000
  C   C1521     1.0  0.68265  0.58214  0.67352  1.0000
  H   H2583     1.0  0.58965  0.67848  0.69827  1.0000
  H   H2584     1.0  0.70575  0.72191  0.85357  1.0000
  H   H2585     1.0  0.69197  0.67960  0.84869  1.0000
  C   C1522     1.0  0.69953  0.71537  0.72270  1.0000
  H   H2586     1.0  0.72324  0.68031  0.72531  1.0000
  Fe  Fe223     1.0  0.51668  0.64466  0.70674  1.0000
  C   C1523     1.0  0.73287  0.68873  0.72061  1.0000
  H   H2587     1.0  0.73413  0.52018  0.74174  1.0000
  H   H2588     1.0  0.49795  0.57784  0.67039  1.0000
  H   H2589     1.0  0.55961  0.70643  0.68687  1.0000
  H   H2590     1.0  0.63036  0.57149  0.67172  1.0000
  H   H2591     1.0  0.82101  0.72608  0.87995  1.0000
  H   H2592     1.0  0.65690  0.59536  0.68220  1.0000
  H   H2593     1.0  0.81034  0.69690  0.94344  1.0000
  C   C1524     1.0  0.61342  0.68935  0.66978  1.0000
  H   H2594     1.0  0.66236  0.59605  0.65988  1.0000
  C   C1525     1.0  0.63396  0.58036  0.65988  1.0000
  H   H2595     1.0  0.66220  0.61463  0.69517  1.0000
  H   H2596     1.0  0.69609  0.51782  0.74844  1.0000
  H   H2597     1.0  0.74091  0.70430  0.90287  1.0000
  C   C1526     1.0  0.67516  0.63591  0.68488  1.0000
  C   C1527     1.0  0.65679  0.62829  0.66097  1.0000
  H   H2598     1.0  0.67806  0.56994  0.67597  1.0000
  C   C1528     1.0  0.67445  0.67959  0.66884  1.0000
  H   H2599     1.0  0.70541  0.65867  0.85347  1.0000
  H   H2600     1.0  0.81889  0.69034  0.91008  1.0000
  H   H2601     1.0  0.76215  0.69633  0.84162  1.0000
  H   H2602     1.0  0.75977  0.68449  0.82718  1.0000
  H   H2603     1.0  0.67694  0.63593  0.69791  1.0000
  H   H2604     1.0  0.75293  0.67773  0.85050  1.0000
  H   H2605     1.0  0.79273  0.70950  0.92153  1.0000
  C   C1529     1.0  0.61992  0.71259  0.68875  1.0000
  H   H2606     1.0  0.68645  0.72625  0.84570  1.0000
  C   C1530     1.0  0.66747  0.59742  0.67067  1.0000
  H   H2607     1.0  0.71658  0.68493  0.86509  1.0000
  N   N107      1.0  0.81683  0.71756  0.90791  1.0000
  C   C1531     1.0  0.81021  0.72440  0.89129  1.0000
  H   H2608     1.0  0.57250  0.67033  0.65323  1.0000
  C   C1532     1.0  0.80127  0.71755  0.92262  1.0000
  C   C1533     1.0  0.82749  0.69965  0.90760  1.0000
  C   C1534     1.0  0.70959  0.51049  0.74805  1.0000
  H   H2609     1.0  0.50184  0.68980  0.67664  1.0000
  C   C1535     1.0  0.80464  0.71085  0.94109  1.0000
  H   H2610     1.0  0.83900  0.70033  0.92970  1.0000
  H   H2611     1.0  0.71501  0.53662  0.73934  1.0000
  N   N108      1.0  0.59806  0.70028  0.67938  1.0000
  H   H2612     1.0  0.70969  0.50308  0.70856  1.0000
  N   N109      1.0  0.71506  0.50015  0.73396  1.0000
  H   H2613     1.0  0.71818  0.53119  0.69508  1.0000
  C   C1536     1.0  0.63906  0.50496  0.65682  1.0000
  H   H2614     1.0  0.50022  0.71737  0.66562  1.0000
  S   S449      1.0  0.74842  0.72240  0.86852  1.0000
  H   H2615     1.0  0.69374  0.70867  0.71606  1.0000
  C   C1537     1.0  0.83997  0.69235  0.92032  1.0000
  H   H2616     1.0  0.74416  0.70816  0.93070  1.0000
  H   H2617     1.0  0.79203  0.71238  0.95038  1.0000
  C   C1538     1.0  0.59001  0.71502  0.66677  1.0000
  C   C1539     1.0  0.67329  0.61775  0.68461  1.0000
  H   H2618     1.0  0.79618  0.71965  0.87428  1.0000
  C   C1540     1.0  0.68515  0.49198  0.74029  1.0000
  H   H2619     1.0  0.70884  0.50202  0.76114  1.0000
  H   H2620     1.0  0.62946  0.70257  0.69527  1.0000
  H   H2621     1.0  0.70642  0.68991  0.80878  1.0000
  S   S450      1.0  0.73655  0.72689  0.79036  1.0000
  C   C1541     1.0  0.62206  0.67293  0.68105  1.0000
  H   H2622     1.0  0.83056  0.72744  0.92170  1.0000
  N   N110      1.0  0.67134  0.61510  0.66766  1.0000
  H   H2623     1.0  0.70857  0.66931  0.82380  1.0000
  N   N111      1.0  0.61062  0.58996  0.74842  1.0000
  C   C1542     1.0  0.62599  0.58030  0.75636  1.0000
  C   C1543     1.0  0.60715  0.60828  0.75072  1.0000
  C   C1544     1.0  0.61566  0.58958  0.72938  1.0000
  C   C1545     1.0  0.59559  0.58116  0.75721  1.0000
  C   C1546     1.0  0.63352  0.56180  0.75327  1.0000
  C   C1547     1.0  0.60364  0.61069  0.76952  1.0000
  C   C1548     1.0  0.60264  0.59999  0.71803  1.0000
  C   C1549     1.0  0.57725  0.59203  0.75633  1.0000
  H   H2624     1.0  0.63675  0.58747  0.75157  1.0000
  H   H2625     1.0  0.62272  0.57917  0.77065  1.0000
  H   H2626     1.0  0.59600  0.61626  0.74535  1.0000
  H   H2627     1.0  0.61824  0.61448  0.74333  1.0000
  H   H2628     1.0  0.62802  0.59412  0.72352  1.0000
  H   H2629     1.0  0.61796  0.57620  0.72744  1.0000
  H   H2630     1.0  0.59693  0.56947  0.75202  1.0000
  H   H2631     1.0  0.59563  0.57643  0.77125  1.0000
  H   H2632     1.0  0.62349  0.55396  0.75644  1.0000
  H   H2633     1.0  0.64072  0.56187  0.73976  1.0000
  H   H2634     1.0  0.64302  0.55530  0.76163  1.0000
  H   H2635     1.0  0.61571  0.60696  0.77456  1.0000
  H   H2636     1.0  0.59854  0.62458  0.76980  1.0000
  H   H2637     1.0  0.59392  0.60347  0.77826  1.0000
  H   H2638     1.0  0.60852  0.59906  0.70434  1.0000
  H   H2639     1.0  0.72723  0.53047  0.71288  1.0000
  H   H2640     1.0  0.59092  0.59448  0.72132  1.0000
  H   H2641     1.0  0.58928  0.52104  0.68042  1.0000
  H   H2642     1.0  0.57640  0.60308  0.74537  1.0000
  H   H2643     1.0  0.59917  0.61384  0.71841  1.0000
  H   H2644     1.0  0.69149  0.70672  0.86086  1.0000
  H   H2645     1.0  0.83553  0.69908  0.89438  1.0000
  H   H2646     1.0  0.69830  0.52008  0.71946  1.0000
  C   C1550     1.0  0.75141  0.72630  0.88777  1.0000
  C   C1551     1.0  0.58491  0.68902  0.68796  1.0000
  H   H2647     1.0  0.56903  0.58367  0.75513  1.0000
  C   C1552     1.0  0.74826  0.71708  0.91893  1.0000
  H   H2648     1.0  0.72359  0.71943  0.73555  1.0000
  H   H2649     1.0  0.49377  0.63952  0.68356  1.0000
  H   H2650     1.0  0.56792  0.70554  0.70582  1.0000
  H   H2651     1.0  0.59209  0.71764  0.69719  1.0000
  N   N112      1.0  0.72173  0.69258  0.83707  1.0000
  C   C1553     1.0  0.73570  0.70078  0.83865  1.0000
  C   C1554     1.0  0.70646  0.70699  0.83411  1.0000
  C   C1555     1.0  0.72863  0.68407  0.82158  1.0000
  C   C1556     1.0  0.71776  0.67954  0.85350  1.0000
  C   C1557     1.0  0.75353  0.68888  0.83952  1.0000
  C   C1558     1.0  0.69722  0.71579  0.84959  1.0000
  C   C1559     1.0  0.71560  0.67871  0.81433  1.0000
  C   C1560     1.0  0.70163  0.67183  0.85633  1.0000
  H   H2652     1.0  0.73789  0.71169  0.82754  1.0000
  H   H2653     1.0  0.73185  0.70642  0.85043  1.0000
  H   H2654     1.0  0.69634  0.70279  0.83043  1.0000
  H   H2655     1.0  0.71046  0.71718  0.82289  1.0000
  H   H2656     1.0  0.73542  0.69271  0.81054  1.0000
  H   H2657     1.0  0.73850  0.67221  0.82451  1.0000
  H   H2658     1.0  0.72878  0.66838  0.85438  1.0000
  H   H2659     1.0  0.62373  0.69654  0.66268  1.0000
  H   H2660     1.0  0.61816  0.72409  0.69434  1.0000
  H   H2661     1.0  0.79331  0.73083  0.92219  1.0000
  H   H2662     1.0  0.71816  0.67399  0.66079  1.0000
  H   H2663     1.0  0.70988  0.71817  0.67838  1.0000
  H   H2664     1.0  0.74559  0.68095  0.71563  1.0000
  H   H2665     1.0  0.78799  0.71154  0.89637  1.0000
  H   H2666     1.0  0.74559  0.73588  0.70127  1.0000
  C   C1561     1.0  0.62396  0.59697  0.65682  1.0000
  C   C1562     1.0  0.71099  0.51119  0.71708  1.0000
  H   H2667     1.0  0.62562  0.71611  0.67486  1.0000
  H   H2668     1.0  0.73867  0.70209  0.76999  1.0000
  H   H2669     1.0  0.63882  0.63288  0.68553  1.0000
  C   C1563     1.0  0.72020  0.52395  0.74698  1.0000
  H   H2670     1.0  0.73925  0.70656  0.69620  1.0000
  H   H2671     1.0  0.67890  0.50020  0.74998  1.0000
  H   H2672     1.0  0.62935  0.63908  0.66690  1.0000
  C   C1564     1.0  0.72750  0.70378  0.70599  1.0000
  H   H2673     1.0  0.73452  0.69292  0.73180  1.0000
  C   C1565     1.0  0.75526  0.73066  0.91972  1.0000
  H   H2674     1.0  0.61269  0.60091  0.66640  1.0000
  H   H2675     1.0  0.81248  0.71824  0.94443  1.0000
  N   N113      1.0  0.71620  0.71984  0.71163  1.0000
  H   H2676     1.0  0.68772  0.58193  0.68493  1.0000
  H   H2677     1.0  0.62962  0.49242  0.70891  1.0000
  H   H2678     1.0  0.73597  0.51428  0.69965  1.0000
  C   C1566     1.0  0.74363  0.72804  0.71457  1.0000
  H   H2679     1.0  0.68208  0.49875  0.72754  1.0000
  C   C1567     1.0  0.70547  0.67400  0.65912  1.0000
  H   H2680     1.0  0.80807  0.70036  0.88499  1.0000
  H   H2681     1.0  0.60349  0.53577  0.67395  1.0000
  H   H2682     1.0  0.69321  0.58199  0.66188  1.0000
  C   C1568     1.0  0.82694  0.73014  0.90901  1.0000
  H   H2683     1.0  0.72561  0.73572  0.68711  1.0000
  H   H2684     1.0  0.60960  0.68530  0.65950  1.0000
  H   H2685     1.0  0.65982  0.64141  0.65724  1.0000
  H   H2686     1.0  0.58442  0.71001  0.65852  1.0000
  H   H2687     1.0  0.50671  0.67036  0.65603  1.0000
  H   H2688     1.0  0.74793  0.73436  0.72280  1.0000
  H   H2689     1.0  0.69936  0.60889  0.65943  1.0000
  C   C1569     1.0  0.60172  0.72703  0.65458  1.0000
  C   C1570     1.0  0.71314  0.73338  0.69574  1.0000
  H   H2690     1.0  0.60646  0.50342  0.65961  1.0000
  C   C1571     1.0  0.68779  0.61690  0.65448  1.0000
  C   C1572     1.0  0.70284  0.72939  0.68435  1.0000
  H   H2691     1.0  0.84133  0.73744  0.88217  1.0000
  C   C1573     1.0  0.68572  0.73066  0.72854  1.0000
  H   H2692     1.0  0.68980  0.72733  0.69145  1.0000
  C   C1574     1.0  0.60838  0.51688  0.65704  1.0000
  C   C1575     1.0  0.67279  0.67450  0.65415  1.0000
  H   H2693     1.0  0.69016  0.73686  0.73671  1.0000
  H   H2694     1.0  0.60561  0.73473  0.66173  1.0000
  S   S451      1.0  0.66205  0.55528  0.65261  1.0000
  H   H2695     1.0  0.66018  0.67497  0.65206  1.0000
  C   C1576     1.0  0.76717  0.96340  0.21063  1.0000
  C   C1577     1.0  0.81564  0.98080  0.17617  1.0000
  H   H2696     1.0  0.90497  0.83596  0.18402  1.0000
  H   H2697     1.0  0.87223  0.82117  0.11614  1.0000
  N   N114      1.0  0.80414  0.81836  0.23047  1.0000
  S   S452      1.0  0.95653  0.83136  0.20294  1.0000
  H   H2698     1.0  0.89451  0.83652  0.20594  1.0000
  Fe  Fe224     1.0  0.86530  0.79729  0.17590  1.0000
  S   S453      1.0  0.85467  0.78448  0.20267  1.0000
  S   S454      1.0  0.84511  0.81402  0.16149  1.0000
  Fe  Fe225     1.0  0.90239  0.78341  0.18021  1.0000
  S   S455      1.0  0.89478  0.76878  0.20735  1.0000
  H   H2699     1.0  0.78685  0.89662  0.11048  1.0000
  Fe  Fe226     1.0  0.87518  0.76170  0.19693  1.0000
  C   C1578     1.0  0.77991  0.97058  0.21641  1.0000
  Fe  Fe227     1.0  0.87486  0.79283  0.21055  1.0000
  S   S456      1.0  0.86871  0.80461  0.23389  1.0000
  H   H2700     1.0  0.75718  0.89857  0.12285  1.0000
  S   S457      1.0  0.88378  0.80796  0.18418  1.0000
  Fe  Fe228     1.0  0.79619  0.91874  0.17577  1.0000
  S   S458      1.0  0.79200  0.90512  0.20353  1.0000
  S   S459      1.0  0.79142  0.94756  0.16696  1.0000
  Fe  Fe229     1.0  0.81026  0.88573  0.16236  1.0000
  S   S460      1.0  0.80797  0.86903  0.18885  1.0000
  S   S461      1.0  0.82216  0.87505  0.13817  1.0000
  Fe  Fe230     1.0  0.78216  0.88634  0.19472  1.0000
  S   S462      1.0  0.75996  0.87470  0.21190  1.0000
  Fe  Fe231     1.0  0.81798  0.88887  0.19573  1.0000
  S   S463      1.0  0.83592  0.88326  0.21393  1.0000
  S   S464      1.0  0.78349  0.90173  0.16757  1.0000
  S   S465      1.0  0.82307  0.90388  0.16857  1.0000
  H   H2701     1.0  0.79942  0.92449  0.07947  1.0000
  S   S466      1.0  0.74871  0.77419  0.24124  1.0000
  H   H2702     1.0  0.82842  0.90454  0.08200  1.0000
  H   H2703     1.0  0.73118  0.78564  0.05477  1.0000
  S   S467      1.0  0.73613  0.76453  0.21054  1.0000
  C   C1579     1.0  0.91209  0.88241  0.20264  1.0000
  Fe  Fe232     1.0  0.75321  0.78123  0.21230  1.0000
  S   S468      1.0  0.75502  0.80613  0.19325  1.0000
  H   H2704     1.0  0.76193  0.98168  0.24410  1.0000
  C   C1580     1.0  0.76568  0.75750  0.16342  1.0000
  H   H2705     1.0  0.72181  0.75314  0.05649  1.0000
  H   H2706     1.0  0.76016  0.80393  0.15682  1.0000
  Fe  Fe233     1.0  0.78522  0.81293  0.06691  1.0000
  S   S469      1.0  0.76150  0.81847  0.08749  1.0000
  S   S470      1.0  0.78174  0.82079  0.03908  1.0000
  Fe  Fe234     1.0  0.80814  0.79943  0.09348  1.0000
  S   S471      1.0  0.78619  0.80353  0.11595  1.0000
  S   S472      1.0  0.83467  0.78821  0.09904  1.0000
  Fe  Fe235     1.0  0.77197  0.79269  0.10263  1.0000
  S   S473      1.0  0.75516  0.77310  0.11525  1.0000
  Fe  Fe236     1.0  0.77810  0.82881  0.09868  1.0000
  S   S474      1.0  0.76808  0.85282  0.10979  1.0000
  S   S475      1.0  0.79462  0.78634  0.08135  1.0000
  S   S476      1.0  0.80104  0.82553  0.07699  1.0000
  H   H2707     1.0  0.82314  0.91502  0.12382  1.0000
  S   S477      1.0  0.76967  0.76622  0.00304  1.0000
  C   C1581     1.0  0.78062  0.80567  0.02756  1.0000
  C   C1582     1.0  0.78789  0.78820  0.03208  1.0000
  C   C1583     1.0  0.78537  0.77623  0.02374  1.0000
  C   C1584     1.0  0.77581  0.78169  0.01061  1.0000
  C   C1585     1.0  0.76943  0.79929  0.00539  1.0000
  C   C1586     1.0  0.77182  0.81122  0.01385  1.0000
  H   H2708     1.0  0.79524  0.78392  0.04219  1.0000
  H   H2709     1.0  0.79055  0.76266  0.02769  1.0000
  H   H2710     1.0  0.79245  0.96801  0.20727  1.0000
  H   H2711     1.0  0.76638  0.82476  0.01010  1.0000
  H   H2712     1.0  0.79749  0.98204  0.16061  1.0000
  C   C1587     1.0  0.97284  0.78698  0.21960  1.0000
  C   C1588     1.0  0.76421  0.76721  0.14682  1.0000
  H   H2713     1.0  0.82064  0.89839  0.10476  1.0000
  H   H2714     1.0  0.75280  0.78394  0.04328  1.0000
  H   H2715     1.0  0.77766  0.82018  0.22961  1.0000
  H   H2716     1.0  0.72175  0.76544  0.07853  1.0000
  H   H2717     1.0  0.76710  0.77989  0.14290  1.0000
  H   H2718     1.0  0.78657  0.86079  0.23653  1.0000
  C   C1589     1.0  0.77827  0.94062  0.10381  1.0000
  H   H2719     1.0  0.67911  0.74054  0.28134  1.0000
  H   H2720     1.0  0.74324  0.80842  0.05779  1.0000
  Fe  Fe237     1.0  0.98490  0.83216  0.19662  1.0000
  H   H2721     1.0  0.80089  0.78467  0.23427  1.0000
  H   H2722     1.0  0.81176  0.78644  0.25628  1.0000
  C   C1590     1.0  0.81184  0.92591  0.12354  1.0000
  H   H2723     1.0  0.86393  0.90446  0.19967  1.0000
  H   H2724     1.0  0.76444  0.97041  0.19780  1.0000
  H   H2725     1.0  0.77699  0.75280  0.31163  1.0000
  C   C1591     1.0  0.80752  0.86721  0.13129  1.0000
  C   C1592     1.0  0.81287  0.86015  0.11639  1.0000
  C   C1593     1.0  0.80092  0.85510  0.11005  1.0000
  C   C1594     1.0  0.78354  0.85744  0.11841  1.0000
  C   C1595     1.0  0.77827  0.86430  0.13342  1.0000
  C   C1596     1.0  0.79027  0.86895  0.13997  1.0000
  H   H2726     1.0  0.82621  0.85866  0.10966  1.0000
  H   H2727     1.0  0.80510  0.84978  0.09847  1.0000
  H   H2728     1.0  0.76492  0.86601  0.14002  1.0000
  H   H2729     1.0  0.78609  0.87408  0.15161  1.0000
  C   C1597     1.0  0.75869  0.85550  0.20693  1.0000
  C   C1598     1.0  0.76744  0.85132  0.19097  1.0000
  C   C1599     1.0  0.76630  0.83604  0.18702  1.0000
  C   C1600     1.0  0.75685  0.82460  0.19919  1.0000
  C   C1601     1.0  0.74826  0.82863  0.21527  1.0000
  C   C1602     1.0  0.74903  0.84420  0.21905  1.0000
  H   H2730     1.0  0.77494  0.85995  0.18160  1.0000
  H   H2731     1.0  0.77299  0.83297  0.17455  1.0000
  H   H2732     1.0  0.74075  0.81996  0.22461  1.0000
  H   H2733     1.0  0.74223  0.84745  0.23141  1.0000
  H   H2734     1.0  0.81508  0.93664  0.11286  1.0000
  C   C1603     1.0  0.80523  0.95612  0.17430  1.0000
  C   C1604     1.0  0.81564  0.94547  0.18558  1.0000
  C   C1605     1.0  0.82584  0.95248  0.19228  1.0000
  H   H2735     1.0  0.81559  0.93186  0.18948  1.0000
  H   H2736     1.0  0.83355  0.94419  0.20131  1.0000
  C   C1606     1.0  0.85903  0.82633  0.22863  1.0000
  C   C1607     1.0  0.85676  0.83720  0.24009  1.0000
  C   C1608     1.0  0.84937  0.85471  0.23565  1.0000
  C   C1609     1.0  0.84407  0.86125  0.21988  1.0000
  C   C1610     1.0  0.84596  0.85030  0.20864  1.0000
  C   C1611     1.0  0.85344  0.83286  0.21301  1.0000
  H   H2737     1.0  0.86094  0.83213  0.25225  1.0000
  H   H2738     1.0  0.84786  0.86320  0.24439  1.0000
  H   H2739     1.0  0.84187  0.85529  0.19648  1.0000
  H   H2740     1.0  0.85468  0.82446  0.20434  1.0000
  C   C1612     1.0  0.84300  0.80748  0.14341  1.0000
  C   C1613     1.0  0.82891  0.81576  0.13563  1.0000
  C   C1614     1.0  0.82662  0.81033  0.12155  1.0000
  C   C1615     1.0  0.83839  0.79653  0.11526  1.0000
  C   C1616     1.0  0.85285  0.78871  0.12262  1.0000
  C   C1617     1.0  0.85515  0.79418  0.13667  1.0000
  H   H2741     1.0  0.81959  0.82624  0.14065  1.0000
  H   H2742     1.0  0.81568  0.81676  0.11568  1.0000
  H   H2743     1.0  0.86209  0.77816  0.11767  1.0000
  H   H2744     1.0  0.86626  0.78800  0.14231  1.0000
  H   H2745     1.0  0.79795  0.95675  0.09142  1.0000
  C   C1618     1.0  0.78646  0.95610  0.10207  1.0000
  S   S478      1.0  0.88470  0.77397  0.16931  1.0000
  H   H2746     1.0  0.70974  0.82281  0.16035  1.0000
  H   H2747     1.0  0.95422  0.76635  0.21469  1.0000
  C   C1619     1.0  0.74708  0.79534  0.06554  1.0000
  H   H2748     1.0  0.81191  0.84301  0.22044  1.0000
  C   C1620     1.0  0.77912  0.90993  0.10802  1.0000
  C   C1621     1.0  0.73483  0.76057  0.08156  1.0000
  S   S479      1.0  0.77755  0.76148  0.20810  1.0000
  C   C1622     1.0  0.94935  0.81895  0.19257  1.0000
  C   C1623     1.0  0.93414  0.81283  0.20063  1.0000
  C   C1624     1.0  0.92812  0.80275  0.19286  1.0000
  C   C1625     1.0  0.93728  0.79869  0.17694  1.0000
  C   C1626     1.0  0.95259  0.80466  0.16891  1.0000
  C   C1627     1.0  0.95860  0.81485  0.17669  1.0000
  H   H2749     1.0  0.92706  0.81565  0.21306  1.0000
  H   H2750     1.0  0.91642  0.79804  0.19927  1.0000
  N   N115      1.0  0.78967  0.92300  0.10697  1.0000
  H   H2751     1.0  0.97031  0.81958  0.17034  1.0000
  C   C1628     1.0  0.78749  0.81188  0.23698  1.0000
  H   H2752     1.0  0.98533  0.74249  0.22863  1.0000
  H   H2753     1.0  0.91260  0.82728  0.12617  1.0000
  H   H2754     1.0  0.81000  0.93055  0.13569  1.0000
  H   H2755     1.0  0.82613  0.81948  0.23984  1.0000
  H   H2756     1.0  0.90168  0.83885  0.24117  1.0000
  C   C1629     1.0  0.81467  0.81264  0.21407  1.0000
  C   C1630     1.0  0.79993  0.83781  0.22638  1.0000
  H   H2757     1.0  0.80006  0.77504  0.15918  1.0000
  H   H2758     1.0  0.83062  0.79179  0.25868  1.0000
  H   H2759     1.0  0.83897  0.75538  0.17821  1.0000
  H   H2760     1.0  0.93365  0.86377  0.21318  1.0000
  H   H2761     1.0  0.78004  0.78700  0.24774  1.0000
  H   H2762     1.0  0.73074  0.87862  0.15797  1.0000
  H   H2763     1.0  0.80422  0.83216  0.19314  1.0000
  H   H2764     1.0  0.82685  0.81761  0.20986  1.0000
  H   H2765     1.0  0.79152  0.84267  0.21675  1.0000
  S   S480      1.0  0.92957  0.78630  0.16701  1.0000
  H   H2766     1.0  0.78489  0.92518  0.13374  1.0000
  Fe  Fe238     1.0  0.77183  0.75297  0.23685  1.0000
  H   H2767     1.0  0.76928  0.76299  0.17236  1.0000
  H   H2768     1.0  0.77502  0.76716  0.06042  1.0000
  C   C1631     1.0  0.82218  0.79358  0.24940  1.0000
  H   H2769     1.0  0.80743  0.81701  0.25633  1.0000
  H   H2770     1.0  0.82395  0.75626  0.25300  1.0000
  C   C1632     1.0  0.78803  0.79320  0.23573  1.0000
  N   N116      1.0  0.87671  0.84912  0.12974  1.0000
  C   C1633     1.0  0.86916  0.86173  0.14173  1.0000
  C   C1634     1.0  0.88976  0.85684  0.11508  1.0000
  C   C1635     1.0  0.88546  0.83247  0.13986  1.0000
  C   C1636     1.0  0.86207  0.84646  0.12331  1.0000
  C   C1637     1.0  0.85785  0.85509  0.15933  1.0000
  C   C1638     1.0  0.88294  0.87444  0.10418  1.0000
  C   C1639     1.0  0.90109  0.82129  0.12988  1.0000
  C   C1640     1.0  0.86690  0.83455  0.11025  1.0000
  H   H2771     1.0  0.87960  0.86628  0.14468  1.0000
  H   H2772     1.0  0.86082  0.87343  0.13555  1.0000
  H   H2773     1.0  0.89590  0.84814  0.10580  1.0000
  H   H2774     1.0  0.90051  0.85844  0.12020  1.0000
  H   H2775     1.0  0.89066  0.83505  0.15009  1.0000
  H   H2776     1.0  0.87603  0.82414  0.14682  1.0000
  H   H2777     1.0  0.85239  0.84110  0.13417  1.0000
  H   H2778     1.0  0.85477  0.85898  0.11733  1.0000
  H   H2779     1.0  0.84657  0.85088  0.15791  1.0000
  H   H2780     1.0  0.86520  0.84449  0.16769  1.0000
  H   H2781     1.0  0.85262  0.86584  0.16640  1.0000
  H   H2782     1.0  0.87277  0.87380  0.09779  1.0000
  H   H2783     1.0  0.87820  0.88470  0.11187  1.0000
  H   H2784     1.0  0.89372  0.87843  0.09370  1.0000
  H   H2785     1.0  0.89865  0.81865  0.11822  1.0000
  H   H2786     1.0  0.90454  0.80864  0.13855  1.0000
  H   H2787     1.0  0.87585  0.83924  0.09827  1.0000
  H   H2788     1.0  0.85498  0.83409  0.10641  1.0000
  C   C1641     1.0  0.81657  0.90352  0.09222  1.0000
  H   H2789     1.0  0.75235  0.92140  0.11940  1.0000
  H   H2790     1.0  0.81269  0.93081  0.08947  1.0000
  H   H2791     1.0  0.79819  0.90547  0.12912  1.0000
  H   H2792     1.0  0.76493  0.76452  0.08249  1.0000
  C   C1642     1.0  0.96192  0.75378  0.21980  1.0000
  C   C1643     1.0  0.79548  0.91956  0.12385  1.0000
  C   C1644     1.0  0.80444  0.92138  0.09159  1.0000
  H   H2793     1.0  0.73515  0.74582  0.03761  1.0000
  H   H2794     1.0  0.88755  0.88671  0.18329  1.0000
  H   H2795     1.0  0.76201  0.80365  0.99533  1.0000
  H   H2796     1.0  0.69780  0.84826  0.13397  1.0000
  H   H2797     1.0  0.70071  0.84464  0.16192  1.0000
  H   H2798     1.0  0.80585  0.96949  0.23240  1.0000
  H   H2799     1.0  0.80263  0.76801  0.13358  1.0000
  C   C1645     1.0  0.90789  0.84896  0.23160  1.0000
  H   H2800     1.0  0.75516  0.96265  0.22059  1.0000
  H   H2801     1.0  0.76176  0.76291  0.29829  1.0000
  H   H2802     1.0  0.73493  0.76861  0.09064  1.0000
  C   C1646     1.0  0.72992  0.86480  0.16195  1.0000
  H   H2803     1.0  0.81945  0.78233  0.14878  1.0000
  H   H2804     1.0  0.76508  0.90870  0.13528  1.0000
  H   H2805     1.0  0.76687  0.94193  0.11463  1.0000
  H   H2806     1.0  0.95973  0.80154  0.15660  1.0000
  H   H2807     1.0  0.71819  0.81574  0.18605  1.0000
  H   H2808     1.0  0.70895  0.84354  0.11326  1.0000
  H   H2809     1.0  0.73293  0.76333  0.30165  1.0000
  C   C1647     1.0  0.76254  0.90991  0.12228  1.0000
  H   H2810     1.0  0.77532  0.91153  0.09545  1.0000
  H   H2811     1.0  0.77308  0.94262  0.09194  1.0000
  H   H2812     1.0  0.93826  0.88421  0.20210  1.0000
  C   C1648     1.0  0.88423  0.88166  0.19750  1.0000
  H   H2813     1.0  0.78196  0.79319  0.22504  1.0000
  C   C1649     1.0  0.87492  0.89733  0.20597  1.0000
  H   H2814     1.0  0.87425  0.87396  0.19943  1.0000
  H   H2815     1.0  0.88330  0.90661  0.20420  1.0000
  C   C1650     1.0  0.89740  0.84474  0.19289  1.0000
  H   H2816     1.0  0.91177  0.86457  0.17880  1.0000
  H   H2817     1.0  0.83049  0.78783  0.23843  1.0000
  H   H2818     1.0  0.86926  0.89338  0.21989  1.0000
  H   H2819     1.0  0.88528  0.85097  0.18827  1.0000
  H   H2820     1.0  0.91184  0.89261  0.19065  1.0000
  N   N117      1.0  0.90002  0.87067  0.20403  1.0000
  C   C1651     1.0  0.90828  0.85777  0.19249  1.0000
  H   H2821     1.0  0.73897  0.79493  0.07873  1.0000
  H   H2822     1.0  0.91826  0.84189  0.22287  1.0000
  H   H2823     1.0  0.91374  0.85529  0.23852  1.0000
  C   C1652     1.0  0.89419  0.86213  0.22257  1.0000
  H   H2824     1.0  0.88333  0.85575  0.22396  1.0000
  H   H2825     1.0  0.90778  0.88932  0.21361  1.0000
  H   H2826     1.0  0.92069  0.84995  0.19554  1.0000
  H   H2827     1.0  0.88855  0.87191  0.23082  1.0000
  H   H2828     1.0  0.93755  0.86948  0.18978  1.0000
  H   H2829     1.0  0.79314  0.81425  0.20175  1.0000
  C   C1653     1.0  0.81366  0.77349  0.16033  1.0000
  H   H2830     1.0  0.76075  0.79399  0.06604  1.0000
  C   C1654     1.0  0.93136  0.87422  0.20196  1.0000
  H   H2831     1.0  0.96484  0.78858  0.21007  1.0000
  H   H2832     1.0  0.80935  0.77197  0.18859  1.0000
  H   H2833     1.0  0.74732  0.83113  0.16405  1.0000
  H   H2834     1.0  0.84710  0.76385  0.15614  1.0000
  H   H2835     1.0  0.81889  0.79851  0.21595  1.0000
  C   C1655     1.0  0.73318  0.75523  0.04599  1.0000
  C   C1656     1.0  0.74481  0.82973  0.15193  1.0000
  C   C1657     1.0  0.74782  0.81028  0.15258  1.0000
  H   H2836     1.0  0.75541  0.83462  0.14186  1.0000
  H   H2837     1.0  0.74923  0.80759  0.13960  1.0000
  H   H2838     1.0  0.73752  0.80426  0.16192  1.0000
  H   H2839     1.0  0.72480  0.83560  0.18411  1.0000
  H   H2840     1.0  0.73711  0.86313  0.13506  1.0000
  H   H2841     1.0  0.71879  0.86390  0.17302  1.0000
  N   N118      1.0  0.72750  0.84004  0.14865  1.0000
  C   C1658     1.0  0.72718  0.85895  0.14653  1.0000
  C   C1659     1.0  0.71509  0.82994  0.18154  1.0000
  H   H2842     1.0  0.73747  0.83920  0.12142  1.0000
  H   H2843     1.0  0.97665  0.76945  0.18920  1.0000
  H   H2844     1.0  0.74213  0.85790  0.16608  1.0000
  C   C1660     1.0  0.71007  0.84852  0.12429  1.0000
  H   H2845     1.0  0.70267  0.83444  0.19011  1.0000
  C   C1661     1.0  0.80541  0.97377  0.16943  1.0000
  H   H2846     1.0  0.81399  0.81173  0.18797  1.0000
  C   C1662     1.0  0.72575  0.83721  0.13163  1.0000
  C   C1663     1.0  0.71265  0.83454  0.16259  1.0000
  H   H2847     1.0  0.71458  0.86689  0.14394  1.0000
  C   C1664     1.0  0.84057  0.75351  0.16480  1.0000
  C   C1665     1.0  0.81278  0.78090  0.17618  1.0000
  H   H2848     1.0  0.72476  0.82366  0.13272  1.0000
  C   C1666     1.0  0.80574  0.81815  0.19853  1.0000
  H   H2849     1.0  0.83399  0.76071  0.13302  1.0000
  H   H2850     1.0  0.82523  0.78432  0.17556  1.0000
  H   H2851     1.0  0.71183  0.86199  0.11900  1.0000
  C   C1667     1.0  0.79047  0.84677  0.24169  1.0000
  H   H2852     1.0  0.80279  0.79295  0.17612  1.0000
  C   C1668     1.0  0.75878  0.76055  0.13543  1.0000
  C   C1669     1.0  0.81494  0.81295  0.24410  1.0000
  Fe  Fe239     1.0  0.73407  0.75517  0.23922  1.0000
  N   N119      1.0  0.74887  0.76323  0.06564  1.0000
  H   H2853     1.0  0.79903  0.84557  0.25066  1.0000
  C   C1670     1.0  0.74475  0.78187  0.05657  1.0000
  H   H2854     1.0  0.78203  0.81307  0.25070  1.0000
  C   C1671     1.0  0.82566  0.97018  0.18784  1.0000
  H   H2855     1.0  0.73055  0.76818  0.03762  1.0000
  H   H2856     1.0  0.77851  0.84210  0.24877  1.0000
  H   H2857     1.0  0.78952  0.95631  0.11448  1.0000
  H   H2858     1.0  0.95101  0.80316  0.23329  1.0000
  H   H2859     1.0  0.77689  0.96815  0.09901  1.0000
  H   H2860     1.0  0.73556  0.77122  0.27908  1.0000
  C   C1672     1.0  0.79888  0.98218  0.23559  1.0000
  S   S481      1.0  0.83708  0.97861  0.19818  1.0000
  C   C1673     1.0  0.80935  0.75433  0.13582  1.0000
  N   N120      1.0  0.82330  0.75509  0.16051  1.0000
  H   H2861     1.0  0.95226  0.78084  0.24242  1.0000
  H   H2862     1.0  0.85269  0.75260  0.23327  1.0000
  C   C1674     1.0  0.82595  0.75195  0.14248  1.0000
  C   C1675     1.0  0.74967  0.75231  0.05300  1.0000
  H   H2863     1.0  0.71927  0.75931  0.28947  1.0000
  C   C1676     1.0  0.73265  0.76001  0.28947  1.0000
  H   H2864     1.0  0.70411  0.74637  0.19287  1.0000
  H   H2865     1.0  0.96761  0.74645  0.20925  1.0000
  H   H2866     1.0  0.81282  0.75045  0.12308  1.0000
  H   H2867     1.0  0.78188  0.96217  0.22907  1.0000
  H   H2868     1.0  0.81052  0.89406  0.08952  1.0000
  C   C1677     1.0  0.76620  0.75982  0.07052  1.0000
  C   C1678     1.0  0.96015  0.79081  0.23642  1.0000
  H   H2869     1.0  0.76034  0.75458  0.04158  1.0000
  H   H2870     1.0  0.77319  0.94993  0.20912  1.0000
  S   S482      1.0  0.70845  0.75156  0.25698  1.0000
  C   C1679     1.0  0.76474  0.75179  0.30884  1.0000
  H   H2871     1.0  0.98560  0.78850  0.18451  1.0000
  S   S483      1.0  0.79196  0.74817  0.25255  1.0000
  C   C1680     1.0  0.76283  0.74063  0.16822  1.0000
  C   C1681     1.0  0.97593  0.75494  0.22875  1.0000
  H   H2872     1.0  0.96683  0.79257  0.24586  1.0000
  C   C1682     1.0  0.84239  0.74784  0.23116  1.0000
  H   H2873     1.0  0.75646  0.74763  0.27472  1.0000
  H   H2874     1.0  0.78920  0.98041  0.24785  1.0000
  H   H2875     1.0  0.97015  0.75435  0.24277  1.0000
  H   H2876     1.0  0.79880  0.74812  0.17379  1.0000
  H   H2877     1.0  0.95229  0.74698  0.22948  1.0000
  H   H2878     1.0  0.80044  0.74622  0.14466  1.0000
  C   C1683     1.0  0.82612  0.74995  0.24229  1.0000
  H   H2879     1.0  0.98016  0.79759  0.21437  1.0000
  H   H2880     1.0  0.83332  0.73890  0.14113  1.0000
  C   C1684     1.0  0.73561  0.74219  0.09252  1.0000
  N   N121      1.0  0.98513  0.76979  0.22120  1.0000
  H   H2881     1.0  0.78801  0.74054  0.07807  1.0000
  C   C1685     1.0  0.81274  0.74342  0.17406  1.0000
  H   H2882     1.0  0.81369  0.74397  0.18723  1.0000
  Fe  Fe240     1.0  0.76027  0.74433  0.20827  1.0000
  C   C1686     1.0  0.81262  0.74423  0.23936  1.0000
  C   C1687     1.0  0.77649  0.74109  0.07299  1.0000
  C   C1688     1.0  0.74549  0.74352  0.28492  1.0000
  C   C1689     1.0  0.75556  0.74383  0.14042  1.0000
  H   H2883     1.0  0.98861  0.77009  0.24664  1.0000
  C   C1690     1.0  0.98848  0.77424  0.18779  1.0000
  H   H2884     1.0  0.72199  0.73827  0.17745  1.0000
  C   C1691     1.0  0.84543  0.73926  0.21755  1.0000
  H   H2885     1.0  0.75140  0.73858  0.13167  1.0000
  H   H2886     1.0  0.75294  0.73836  0.05847  1.0000
  H   H2887     1.0  0.74406  0.73971  0.10193  1.0000
  H   H2888     1.0  0.72241  0.74079  0.09983  1.0000
  H   H2889     1.0  0.86593  0.73779  0.16612  1.0000
  H   H2890     1.0  0.70180  0.73797  0.22959  1.0000
  H   H2891     1.0  0.73872  0.73767  0.27845  1.0000
  H   H2892     1.0  0.75482  0.75274  0.32086  1.0000
  H   H2893     1.0  0.73394  0.74041  0.32128  1.0000
  C   C1692     1.0  0.93399  0.81964  0.79990  1.0000
  S   S484      1.0  0.77998  0.77105  0.92471  1.0000
  H   H2894     1.0  0.68530  0.78417  0.92716  1.0000
  S   S485      1.0  0.78469  0.78961  0.95437  1.0000
  Fe  Fe241     1.0  0.76441  0.79141  0.93952  1.0000
  S   S486      1.0  0.74941  0.81439  0.92416  1.0000
  Fe  Fe242     1.0  0.79863  0.76724  0.94169  1.0000
  H   H2895     1.0  0.98933  0.78439  0.90427  1.0000
  S   S487      1.0  0.74968  0.77370  0.96038  1.0000
  H   H2896     1.0  0.86454  0.87058  0.82538  1.0000
  H   H2897     1.0  0.91659  0.80422  0.78540  1.0000
  H   H2898     1.0  0.86417  0.88982  0.84006  1.0000
  S   S488      1.0  0.97187  0.81339  0.85651  1.0000
  Fe  Fe243     1.0  0.87073  0.80028  0.85146  1.0000
  S   S489      1.0  0.85693  0.81585  0.87164  1.0000
  Fe  Fe244     1.0  0.87914  0.80182  0.81295  1.0000
  S   S490      1.0  0.89103  0.77363  0.81579  1.0000
  S   S491      1.0  0.87785  0.81929  0.78712  1.0000
  Fe  Fe245     1.0  0.86837  0.77006  0.83786  1.0000
  C   C1693     1.0  0.82461  0.79206  0.91127  1.0000
  Fe  Fe246     1.0  0.90345  0.77852  0.83527  1.0000
  S   S492      1.0  0.93167  0.76761  0.83577  1.0000
  S   S493      1.0  0.85570  0.79783  0.83327  1.0000
  S   S494      1.0  0.89309  0.80705  0.83065  1.0000
  S   S495      1.0  0.80649  0.96786  0.86758  1.0000
  Fe  Fe247     1.0  0.78655  0.87455  0.84838  1.0000
  S   S496      1.0  0.75985  0.89044  0.85085  1.0000
  S   S497      1.0  0.79729  0.86255  0.87220  1.0000
  Fe  Fe248     1.0  0.79296  0.88168  0.80957  1.0000
  S   S498      1.0  0.76673  0.89853  0.80897  1.0000
  S   S499      1.0  0.81042  0.87737  0.78424  1.0000
  Fe  Fe249     1.0  0.77181  0.90958  0.82933  1.0000
  S   S500      1.0  0.76389  0.93763  0.83167  1.0000
  Fe  Fe250     1.0  0.75761  0.87760  0.83056  1.0000
  S   S501      1.0  0.73277  0.86921  0.83302  1.0000
  S   S502      1.0  0.79887  0.89436  0.82808  1.0000
  S   S503      1.0  0.78346  0.86006  0.82984  1.0000
  H   H2899     1.0  0.67937  0.77826  0.91035  1.0000
  S   S504      1.0  0.75477  0.76735  0.83697  1.0000
  S   S505      1.0  0.74674  0.77074  0.79796  1.0000
  H   H2900     1.0  0.69882  0.76691  0.91761  1.0000
  Fe  Fe251     1.0  0.73219  0.77558  0.82418  1.0000
  S   S506      1.0  0.71361  0.80021  0.82871  1.0000
  C   C1694     1.0  0.87591  0.86674  0.87392  1.0000
  C   C1695     1.0  0.81409  0.77409  0.87971  1.0000
  H   H2901     1.0  0.83086  0.84614  0.88223  1.0000
  C   C1696     1.0  0.72891  0.84937  0.83168  1.0000
  C   C1697     1.0  0.74187  0.83453  0.82999  1.0000
  C   C1698     1.0  0.73759  0.81923  0.82876  1.0000
  C   C1699     1.0  0.72035  0.81879  0.82953  1.0000
  C   C1700     1.0  0.70760  0.83354  0.83149  1.0000
  C   C1701     1.0  0.71185  0.84868  0.83249  1.0000
  H   H2902     1.0  0.75504  0.83493  0.82956  1.0000
  H   H2903     1.0  0.74750  0.80785  0.82724  1.0000
  H   H2904     1.0  0.69429  0.83333  0.83213  1.0000
  H   H2905     1.0  0.70176  0.86001  0.83385  1.0000
  C   C1702     1.0  0.79413  0.95963  0.85805  1.0000
  C   C1703     1.0  0.77783  0.96859  0.85514  1.0000
  C   C1704     1.0  0.76859  0.96167  0.84715  1.0000
  C   C1705     1.0  0.77556  0.94575  0.84209  1.0000
  C   C1706     1.0  0.79179  0.93676  0.84514  1.0000
  C   C1707     1.0  0.80100  0.94365  0.85314  1.0000
  H   H2906     1.0  0.75600  0.96866  0.84486  1.0000
  H   H2907     1.0  0.79734  0.92460  0.84118  1.0000
  H   H2908     1.0  0.81361  0.93670  0.85535  1.0000
  C   C1708     1.0  0.85890  0.83525  0.78683  1.0000
  C   C1709     1.0  0.84728  0.83848  0.80215  1.0000
  C   C1710     1.0  0.83226  0.85137  0.80149  1.0000
  C   C1711     1.0  0.82899  0.86118  0.78554  1.0000
  C   C1712     1.0  0.84057  0.85794  0.77027  1.0000
  C   C1713     1.0  0.85547  0.84503  0.77092  1.0000
  H   H2909     1.0  0.85001  0.83134  0.81449  1.0000
  H   H2910     1.0  0.82336  0.85393  0.81328  1.0000
  H   H2911     1.0  0.83805  0.86550  0.75791  1.0000
  H   H2912     1.0  0.86440  0.84264  0.75905  1.0000
  H   H2913     1.0  0.82205  0.97832  0.82679  1.0000
  Fe  Fe252     1.0  0.74867  0.74117  0.84296  1.0000
  H   H2914     1.0  0.92998  0.81304  0.81356  1.0000
  H   H2915     1.0  0.97170  0.82085  0.76139  1.0000
  C   C1714     1.0  0.96119  0.80023  0.85080  1.0000
  C   C1715     1.0  0.94349  0.80581  0.85107  1.0000
  C   C1716     1.0  0.93428  0.79559  0.84706  1.0000
  C   C1717     1.0  0.94278  0.77993  0.84224  1.0000
  C   C1718     1.0  0.96052  0.77429  0.84197  1.0000
  C   C1719     1.0  0.96972  0.78437  0.84635  1.0000
  H   H2916     1.0  0.93681  0.81799  0.85467  1.0000
  H   H2917     1.0  0.92059  0.79986  0.84777  1.0000
  C   C1720     1.0  0.83702  0.90057  0.84192  1.0000
  H   H2918     1.0  0.77971  0.78244  0.88188  1.0000
  C   C1721     1.0  0.76259  0.82812  0.91020  1.0000
  C   C1722     1.0  0.77862  0.82806  0.91329  1.0000
  C   C1723     1.0  0.78911  0.83897  0.90178  1.0000
  C   C1724     1.0  0.78387  0.84943  0.88687  1.0000
  C   C1725     1.0  0.76792  0.84933  0.88371  1.0000
  C   C1726     1.0  0.75717  0.83892  0.89552  1.0000
  H   H2919     1.0  0.78285  0.81980  0.92466  1.0000
  H   H2920     1.0  0.80134  0.83915  0.90440  1.0000
  H   H2921     1.0  0.76382  0.85719  0.87216  1.0000
  H   H2922     1.0  0.74476  0.83904  0.89312  1.0000
  C   C1727     1.0  0.83531  0.77627  0.91644  1.0000
  C   C1728     1.0  0.85282  0.77325  0.90870  1.0000
  C   C1729     1.0  0.85960  0.78582  0.89546  1.0000
  C   C1730     1.0  0.84889  0.80140  0.88991  1.0000
  C   C1731     1.0  0.95971  0.80522  0.90423  1.0000
  H   H2923     1.0  0.87317  0.78343  0.88955  1.0000
  H   H2924     1.0  0.72788  0.76092  0.92079  1.0000
  H   H2925     1.0  0.87739  0.86093  0.84937  1.0000
  N   N122      1.0  0.94150  0.80652  0.78851  1.0000
  H   H2926     1.0  0.87810  0.88006  0.86878  1.0000
  H   H2927     1.0  0.97491  0.81471  0.91713  1.0000
  Fe  Fe253     1.0  0.76917  0.76094  0.81134  1.0000
  C   C1732     1.0  0.98551  0.76042  0.92150  1.0000
  C   C1733     1.0  0.80730  0.75377  0.82789  1.0000
  C   C1734     1.0  0.93366  0.78015  0.78245  1.0000
  H   H2928     1.0  0.92238  0.77406  0.78477  1.0000
  H   H2929     1.0  0.92732  0.80201  0.93742  1.0000
  H   H2930     1.0  0.92653  0.79931  0.91641  1.0000
  H   H2931     1.0  0.98338  0.77996  0.84613  1.0000
  H   H2932     1.0  0.71145  0.77765  0.86234  1.0000
  C   C1735     1.0  0.86787  0.86081  0.86187  1.0000
  C   C1736     1.0  0.83472  0.75682  0.83207  1.0000
  H   H2933     1.0  0.98911  0.75379  0.91042  1.0000
  C   C1737     1.0  0.91841  0.83349  0.79489  1.0000
  H   H2934     1.0  0.94363  0.77025  0.78841  1.0000
  H   H2935     1.0  0.80566  0.77834  0.89147  1.0000
  C   C1738     1.0  0.94361  0.78086  0.89238  1.0000
  H   H2936     1.0  0.95310  0.78420  0.80561  1.0000
  H   H2937     1.0  0.96376  0.80632  0.81230  1.0000
  C   C1739     1.0  0.82009  0.74933  0.83778  1.0000
  C   C1740     1.0  0.92996  0.79256  0.92896  1.0000
  H   H2938     1.0  0.80885  0.76493  0.87563  1.0000
  H   H2939     1.0  0.70640  0.74604  0.69921  1.0000
  S   S507      1.0  0.82701  0.75983  0.93205  1.0000
  H   H2940     1.0  0.90717  0.82794  0.79576  1.0000
  H   H2941     1.0  0.86802  0.86569  0.88725  1.0000
  H   H2942     1.0  0.77233  0.98082  0.85906  1.0000
  N   N123      1.0  0.96168  0.78614  0.91165  1.0000
  H   H2943     1.0  0.94786  0.76800  0.93067  1.0000
  C   C1741     1.0  0.95803  0.82760  0.76446  1.0000
  H   H2944     1.0  0.86113  0.76111  0.91281  1.0000
  H   H2945     1.0  0.96488  0.78710  0.78399  1.0000
  S   S508      1.0  0.72437  0.74975  0.83246  1.0000
  H   H2946     1.0  0.95691  0.83011  0.91063  1.0000
  C   C1742     1.0  0.96097  0.77707  0.89799  1.0000
  H   H2947     1.0  0.96717  0.76214  0.83830  1.0000
  H   H2948     1.0  0.85070  0.73977  0.89851  1.0000
  H   H2949     1.0  0.69489  0.77357  0.88149  1.0000
  H   H2950     1.0  0.98061  0.78584  0.92617  1.0000
  C   C1743     1.0  0.92789  0.79619  0.79079  1.0000
  H   H2951     1.0  0.97582  0.75455  0.93196  1.0000
  H   H2952     1.0  0.78066  0.97501  0.80954  1.0000
  H   H2953     1.0  0.98108  0.79161  0.80247  1.0000
  N   N124      1.0  0.80259  0.80088  0.85791  1.0000
  C   C1744     1.0  0.80896  0.81588  0.84499  1.0000
  C   C1745     1.0  0.79659  0.79107  0.84802  1.0000
  C   C1746     1.0  0.81778  0.78945  0.86506  1.0000
  C   C1747     1.0  0.78852  0.80777  0.87196  1.0000
  C   C1748     1.0  0.81732  0.82692  0.85194  1.0000
  C   C1749     1.0  0.78119  0.80091  0.83948  1.0000
  C   C1750     1.0  0.77538  0.79628  0.88215  1.0000
  H   H2954     1.0  0.81847  0.81148  0.83370  1.0000
  H   H2955     1.0  0.79819  0.82493  0.83961  1.0000
  H   H2956     1.0  0.79323  0.77884  0.85607  1.0000
  H   H2957     1.0  0.80734  0.78693  0.83747  1.0000
  H   H2958     1.0  0.82774  0.78414  0.85459  1.0000
  H   H2959     1.0  0.82416  0.79676  0.87038  1.0000
  H   H2960     1.0  0.79424  0.81071  0.88160  1.0000
  H   H2961     1.0  0.78072  0.82024  0.86638  1.0000
  H   H2962     1.0  0.83096  0.82097  0.85230  1.0000
  H   H2963     1.0  0.81726  0.83972  0.84321  1.0000
  H   H2964     1.0  0.81054  0.82907  0.86500  1.0000
  H   H2965     1.0  0.76967  0.80572  0.84882  1.0000
  H   H2966     1.0  0.78449  0.81178  0.82896  1.0000
  H   H2967     1.0  0.77761  0.79201  0.83339  1.0000
  H   H2968     1.0  0.77236  0.79734  0.89591  1.0000
  H   H2969     1.0  0.97100  0.78007  0.88612  1.0000
  H   H2970     1.0  0.76288  0.80133  0.87800  1.0000
  H   H2971     1.0  0.96387  0.76287  0.90243  1.0000
  H   H2972     1.0  0.95501  0.83721  0.75277  1.0000
  H   H2973     1.0  0.96976  0.80759  0.89227  1.0000
  H   H2974     1.0  0.92276  0.79155  0.80478  1.0000
  H   H2975     1.0  0.94359  0.82679  0.80038  1.0000
  H   H2976     1.0  0.82441  0.90038  0.85099  1.0000
  H   H2977     1.0  0.93357  0.77566  0.90297  1.0000
  N   N125      1.0  0.75995  0.90540  0.89847  1.0000
  C   C1751     1.0  0.76447  0.88843  0.91065  1.0000
  C   C1752     1.0  0.77475  0.90615  0.88303  1.0000
  C   C1753     1.0  0.74388  0.90518  0.89281  1.0000
  C   C1754     1.0  0.75693  0.91992  0.90787  1.0000
  C   C1755     1.0  0.75020  0.88371  0.92647  1.0000
  C   C1756     1.0  0.79249  0.90485  0.88703  1.0000
  C   C1757     1.0  0.73725  0.92087  0.87948  1.0000
  C   C1758     1.0  0.75910  0.93788  0.89660  1.0000
  H   H2978     1.0  0.76841  0.87757  0.90361  1.0000
  H   H2979     1.0  0.77577  0.88810  0.91600  1.0000
  H   H2980     1.0  0.77246  0.91798  0.87312  1.0000
  H   H2981     1.0  0.77614  0.89558  0.87622  1.0000
  H   H2982     1.0  0.74581  0.89347  0.88740  1.0000
  H   H2983     1.0  0.73282  0.90435  0.90402  1.0000
  H   H2984     1.0  0.74380  0.92144  0.91631  1.0000
  H   H2985     1.0  0.76609  0.91671  0.91676  1.0000
  H   H2986     1.0  0.74452  0.89430  0.93367  1.0000
  H   H2987     1.0  0.73993  0.87974  0.92269  1.0000
  H   H2988     1.0  0.75588  0.87237  0.93552  1.0000
  H   H2989     1.0  0.80170  0.90817  0.87471  1.0000
  H   H2990     1.0  0.79206  0.91385  0.89527  1.0000
  H   H2991     1.0  0.79781  0.89149  0.89315  1.0000
  H   H2992     1.0  0.74697  0.92336  0.86741  1.0000
  H   H2993     1.0  0.73217  0.93256  0.88514  1.0000
  H   H2994     1.0  0.72625  0.91827  0.87562  1.0000
  H   H2995     1.0  0.74941  0.94797  0.90272  1.0000
  H   H2996     1.0  0.75733  0.94021  0.88320  1.0000
  H   H2997     1.0  0.77184  0.94050  0.89635  1.0000
  C   C1759     1.0  0.83146  0.80470  0.89804  1.0000
  H   H2998     1.0  0.76624  0.75252  0.90476  1.0000
  H   H2999     1.0  0.93818  0.78343  0.76825  1.0000
  C   C1760     1.0  0.95713  0.79426  0.79428  1.0000
  N   N126      1.0  0.78613  0.83477  0.77855  1.0000
  C   C1761     1.0  0.80511  0.82971  0.77904  1.0000
  C   C1762     1.0  0.78496  0.84117  0.75979  1.0000
  C   C1763     1.0  0.77853  0.81879  0.78594  1.0000
  C   C1764     1.0  0.77780  0.84832  0.78935  1.0000
  C   C1765     1.0  0.80955  0.82119  0.79691  1.0000
  C   C1766     1.0  0.79234  0.85751  0.75059  1.0000
  C   C1767     1.0  0.76117  0.81908  0.78171  1.0000
  C   C1768     1.0  0.75955  0.85870  0.78750  1.0000
  H   H3000     1.0  0.81209  0.82065  0.77018  1.0000
  H   H3001     1.0  0.81130  0.84111  0.77438  1.0000
  H   H3002     1.0  0.77151  0.84397  0.75799  1.0000
  H   H3003     1.0  0.79179  0.83089  0.75229  1.0000
  H   H3004     1.0  0.78762  0.80742  0.78134  1.0000
  H   H3005     1.0  0.77666  0.81557  0.80029  1.0000
  H   H3006     1.0  0.77682  0.84246  0.80332  1.0000
  H   H3007     1.0  0.78609  0.85781  0.78718  1.0000
  H   H3008     1.0  0.80518  0.80881  0.80227  1.0000
  H   H3009     1.0  0.82381  0.81817  0.79544  1.0000
  H   H3010     1.0  0.80432  0.82999  0.80615  1.0000
  H   H3011     1.0  0.78690  0.86817  0.75774  1.0000
  H   H3012     1.0  0.80662  0.85483  0.74839  1.0000
  H   H3013     1.0  0.78897  0.86216  0.73763  1.0000
  H   H3014     1.0  0.75116  0.83043  0.78458  1.0000
  H   H3015     1.0  0.75619  0.80755  0.78979  1.0000
  H   H3016     1.0  0.76280  0.81817  0.76803  1.0000
  H   H3017     1.0  0.74942  0.85239  0.79676  1.0000
  H   H3018     1.0  0.75702  0.86145  0.77435  1.0000
  H   H3019     1.0  0.75795  0.87161  0.79043  1.0000
  H   H3020     1.0  0.84674  0.86583  0.82031  1.0000
  C   C1769     1.0  0.97950  0.78003  0.91568  1.0000
  H   H3021     1.0  0.93909  0.79471  0.88734  1.0000
  H   H3022     1.0  0.83676  0.89639  0.83010  1.0000
  H   H3023     1.0  0.95211  0.80475  0.76173  1.0000
  C   C1770     1.0  0.94582  0.81475  0.76962  1.0000
  H   H3024     1.0  0.82596  0.85651  0.90001  1.0000
  H   H3025     1.0  0.84785  0.77444  0.81181  1.0000
  H   H3026     1.0  0.83864  0.91417  0.83786  1.0000
  N   N127      1.0  0.85045  0.87123  0.85905  1.0000
  N   N128      1.0  0.71795  0.78767  0.89216  1.0000
  C   C1771     1.0  0.72209  0.80092  0.87584  1.0000
  C   C1772     1.0  0.72089  0.77074  0.88663  1.0000
  C   C1773     1.0  0.73057  0.78623  0.90330  1.0000
  C   C1774     1.0  0.69963  0.79357  0.90128  1.0000
  C   C1775     1.0  0.72154  0.81915  0.87829  1.0000
  C   C1776     1.0  0.70867  0.76976  0.87553  1.0000
  C   C1777     1.0  0.72804  0.77424  0.92123  1.0000
  C   C1778     1.0  0.69059  0.77977  0.91468  1.0000
  H   H3027     1.0  0.73513  0.79652  0.86806  1.0000
  H   H3028     1.0  0.71292  0.80271  0.86727  1.0000
  H   H3029     1.0  0.72036  0.75968  0.89768  1.0000
  H   H3030     1.0  0.73422  0.76774  0.87889  1.0000
  H   H3031     1.0  0.74400  0.78189  0.89636  1.0000
  H   H3032     1.0  0.73012  0.79892  0.90613  1.0000
  H   H3033     1.0  0.69900  0.80397  0.90808  1.0000
  H   H3034     1.0  0.69125  0.79962  0.89164  1.0000
  H   H3035     1.0  0.70942  0.82438  0.88674  1.0000
  H   H3036     1.0  0.73281  0.81960  0.88317  1.0000
  H   H3037     1.0  0.72224  0.82811  0.86553  1.0000
  C   C1779     1.0  0.85218  0.88948  0.85025  1.0000
  H   H3038     1.0  0.92070  0.78386  0.93527  1.0000
  C   C1780     1.0  0.94860  0.78183  0.92806  1.0000
  H   H3039     1.0  0.71630  0.77962  0.93008  1.0000
  H   H3040     1.0  0.73908  0.77334  0.92718  1.0000
  H   H3041     1.0  0.81105  0.79443  0.91727  1.0000
  H   H3042     1.0  0.86248  0.84859  0.82946  1.0000
  H   H3043     1.0  0.82315  0.81667  0.89362  1.0000
  H   H3044     1.0  0.95326  0.81347  0.92940  1.0000
  H   H3045     1.0  0.92177  0.84141  0.78178  1.0000
  C   C1781     1.0  0.76065  0.74208  0.90431  1.0000
  H   H3046     1.0  0.86741  0.84699  0.86701  1.0000
  H   H3047     1.0  0.95648  0.83530  0.77425  1.0000
  H   H3048     1.0  0.93394  0.82120  0.76443  1.0000
  H   H3049     1.0  0.84296  0.84946  0.85466  1.0000
  H   H3050     1.0  0.84075  0.87973  0.88356  1.0000
  C   C1782     1.0  0.84396  0.86292  0.84817  1.0000
  H   H3051     1.0  0.97456  0.81248  0.79003  1.0000
  Fe  Fe254     1.0  0.77133  0.77004  0.97417  1.0000
  S   S509      1.0  0.79349  0.77135  0.79939  1.0000
  H   H3052     1.0  0.84782  0.84696  0.89226  1.0000
  C   C1783     1.0  0.80927  0.76549  0.81207  1.0000
  C   C1784     1.0  0.83654  0.76872  0.81639  1.0000
  S   S510      1.0  0.88196  0.77210  0.85764  1.0000
  C   C1785     1.0  0.82393  0.77290  0.80634  1.0000
  C   C1786     1.0  0.83765  0.87180  0.87599  1.0000
  C   C1787     1.0  0.83571  0.85426  0.88810  1.0000
  H   H3053     1.0  0.82562  0.78180  0.79402  1.0000
  H   H3054     1.0  0.88870  0.85820  0.87484  1.0000
  H   H3055     1.0  0.82457  0.87832  0.87364  1.0000
  H   H3056     1.0  0.91418  0.84236  0.80413  1.0000
  C   C1788     1.0  0.79475  0.97450  0.80682  1.0000
  H   H3057     1.0  0.70096  0.74057  0.67351  1.0000
  C   C1789     1.0  0.85517  0.86197  0.82989  1.0000
  H   H3058     1.0  0.82651  0.76702  0.88340  1.0000
  H   H3059     1.0  0.83046  0.86921  0.84696  1.0000
  H   H3060     1.0  0.80097  0.96434  0.79911  1.0000
  H   H3061     1.0  0.85366  0.89656  0.85959  1.0000
  H   H3062     1.0  0.94742  0.81086  0.89984  1.0000
  H   H3063     1.0  0.79607  0.74794  0.83234  1.0000
  H   H3064     1.0  0.71089  0.75624  0.87394  1.0000
  H   H3065     1.0  0.68142  0.74033  0.71748  1.0000
  H   H3066     1.0  0.95286  0.78345  0.93936  1.0000
  C   C1790     1.0  0.96126  0.81630  0.91625  1.0000
  S   S511      1.0  0.78659  0.74751  0.96218  1.0000
  Fe  Fe255     1.0  0.76655  0.75326  0.94618  1.0000
  S   S512      1.0  0.85039  0.75138  0.84484  1.0000
  H   H3067     1.0  0.76306  0.74851  0.87640  1.0000
  H   H3068     1.0  0.79938  0.97033  0.81910  1.0000
  H   H3069     1.0  0.81866  0.74007  0.84984  1.0000
  C   C1791     1.0  0.96969  0.80190  0.79993  1.0000
  H   H3070     1.0  0.94527  0.77413  0.88166  1.0000
  H   H3071     1.0  0.81875  0.74333  0.90813  1.0000
  Fe  Fe256     1.0  0.74096  0.74388  0.80711  1.0000
  C   C1792     1.0  0.75875  0.73988  0.88829  1.0000
  H   H3072     1.0  0.71751  0.74017  0.72357  1.0000
