data_image0
_chemical_formula_structural       CHSFeS2FeS2FeSFeS3HSHSFeSFeSH4SFeS2C5H6C3H5C7H4C6H4C6H3C4H5NC8H20NH4SH2FeH4C2H3C2H3CHFeNHCH2CHCHCH2CH4SCH3CNH2CH3CFeSHSH3CH3C3FeSHFeSHFeSFeS3HC2FeSHFeS2C7H3C6H4C2H3CHCHC3HCHNH2C3H2FeH6CH4SH3CH4CNC5H2CH8CH2CH4CHCHCHCNHC2HCH4C2H7CH2SHSHCH11C2H3SCH3C2HCH2SFeH3SHCHS2HSC6H4SH3SH2C7H4C4H10FeCH3CH4C2H6CH2CH6CHC2H4NCHCHFeCHNH2SCH4CHNHC2H2SHFeS2FeS2FeSFeS3CSHC3H2C2H3C6H4C2H3FeS2FeS2FeSFeS3HCSC6H6CHCH2C3H4CHCH3CHC4H2CH11CHFeHCHCH3C2HC3H8C3H2CHC2H6CHCH2CH2SHCHCH3FeN3C8H19CHCH2CHCH2NCHC2HC2HCHCH3CH10C2HC2H7CH4NHFeSCSFeSCFeSFeSFeS2FeS2FeSFeS3FeHSHS2C6H4CH2CH5C7H4C6H3C6H4C5H3C2H10CHCH4CSHCFeH4CH2C3HC2H4C3NHCN2C8H19CHNCH3CNC2H5CH7C2H2CH3CH2NH6SH3C2H8SHCHSCH2FeS2FeS2FeHFeS3H3FeS2FeS2HNHCH3CHCH2C3H2C2H4C6H4C3H2C3H7C3H5C2HCH2NC4HC2H7SHCH7C2H11C3H3CHCH5C2H2C3HFeS2FeS2FeSFeS3FeSHSFeSFeSHNHS2FeSHC4H6CNC3H5C6H4C6H4C6H6CH2C2HC2HCH2C2H3CH2CHCHCSH6CH6SH2CHNC5HCH10CNHCSHSC2NC8H12CH2CHCFeHCNH8CH2C2HC2H2NCH2CH2FeCH5CH3CHSH2CH5CH2SCH2FeH3C2FeS2FeSHFeSFeS3H2CFeSCFeS2C6H4C6H4C2H3CH11SHCH4CHFeCHSH5NHCSCH3CHSNC7H9C3H3CH4CHNH7CHCSC3SHSHSC6H4SHNCSH2C7H3CH7CH9CH7CHSNC3HC2H6CH3SCH3NH2FeH2CH2CH2CFeC3HC2HFeHCHFe2S2FeS2FeSFeS3HSHC3H2CH4C6H4C3H2FeS2FeS2FeSFeS3CFeSC6H5C2HCH2C3H2CHCH9CHCHNCH5CHCHCH2NC6H13CH2CHCH2C2H4SHCH3C2HCHC2HCHCH2NC8H18CH2CHFeCH3CHCHCHCHNSHCH2SCHCHCHNH11FeSHSFeSHFeSFeSFeS2FeS2FeSFeS3C2SFeS2C6H4CHC2H6C6H4C6H3C6H7NCH4C2H2C2HSH3C2NHC2H3CHSCSH2CNC8H20FeHFeH7SH3CHSH8CHC2H2CH3CHCH4CH2FeS2FeS2FeCFeHS2H3FeS2FeS2FeH3CNH2C2HSHC6H4C6H5C2HC2H2CNH2C6H5CH5CH5CH3CH2CH2CH2CHCHCH3CHCHNC2H2CSHCH7C2H5CHSH5C2H2C2HCH6SHNHC
_chemical_formula_sum              "C672 H1152 S192 Fe96 N48"
_cell_length_a       48.0624
_cell_length_b       53.3707
_cell_length_c       36.9257
_cell_angle_alpha    89.9289
_cell_angle_beta     90.07
_cell_angle_gamma    90.0275

_space_group_name_H-M_alt    "P 1"
_space_group_IT_number       1

loop_
  _space_group_symop_operation_xyz
  'x, y, z'

loop_
  _atom_site_type_symbol
  _atom_site_label
  _atom_site_symmetry_multiplicity
  _atom_site_fract_x
  _atom_site_fract_y
  _atom_site_fract_z
  _atom_site_occupancy
  C   C1        1.0  0.44881  0.20997  0.21165  1.0000
  H   H1        1.0  0.22171  0.10836  0.47473  1.0000
  S   S1        1.0  0.21057  0.18490  0.46906  1.0000
  Fe  Fe1       1.0  0.35878  0.13298  0.17643  1.0000
  S   S2        1.0  0.36419  0.17306  0.15694  1.0000
  S   S3        1.0  0.36802  0.09595  0.14515  1.0000
  Fe  Fe2       1.0  0.33202  0.15095  0.24867  1.0000
  S   S4        1.0  0.33776  0.19122  0.23444  1.0000
  S   S5        1.0  0.30495  0.14039  0.29723  1.0000
  Fe  Fe3       1.0  0.32113  0.18091  0.17980  1.0000
  S   S6        1.0  0.28929  0.20957  0.15849  1.0000
  Fe  Fe4       1.0  0.38008  0.18036  0.21345  1.0000
  S   S7        1.0  0.41442  0.20814  0.22879  1.0000
  S   S8        1.0  0.31423  0.14054  0.19429  1.0000
  S   S9        1.0  0.37591  0.14030  0.23265  1.0000
  H   H2        1.0  0.44896  0.17399  0.18542  1.0000
  S   S10       1.0  0.10516  0.23984  0.23598  1.0000
  H   H3        1.0  0.29551  0.24561  0.32792  1.0000
  S   S11       1.0  0.08259  0.25067  0.15445  1.0000
  Fe  Fe5       1.0  0.06368  0.24707  0.20997  1.0000
  S   S12       1.0  0.03141  0.21742  0.22547  1.0000
  Fe  Fe6       1.0  0.12461  0.24593  0.18171  1.0000
  S   S13       1.0  0.15637  0.21422  0.17364  1.0000
  H   H4        1.0  0.34361  0.07199  0.05822  1.0000
  H   H5        1.0  0.30940  0.24264  0.23337  1.0000
  H   H6        1.0  0.45764  0.23426  0.30702  1.0000
  H   H7        1.0  0.29129  0.21699  0.28304  1.0000
  S   S14       1.0  0.15022  0.22252  0.42988  1.0000
  Fe  Fe7       1.0  0.10848  0.28079  0.24418  1.0000
  S   S15       1.0  0.28719  0.20662  0.43846  1.0000
  S   S16       1.0  0.22450  0.24634  0.47046  1.0000
  C   C2        1.0  0.13758  0.27375  0.33054  1.0000
  C   C3        1.0  0.11959  0.25371  0.33751  1.0000
  C   C4        1.0  0.12391  0.23825  0.36795  1.0000
  C   C5        1.0  0.14657  0.24223  0.39136  1.0000
  C   C6        1.0  0.16501  0.26189  0.38393  1.0000
  H   H8        1.0  0.31678  0.09633  0.42728  1.0000
  H   H9        1.0  0.10172  0.25072  0.32023  1.0000
  H   H10       1.0  0.10928  0.22342  0.37388  1.0000
  H   H11       1.0  0.18240  0.26531  0.40189  1.0000
  H   H12       1.0  0.27279  0.21231  0.24234  1.0000
  H   H13       1.0  0.36711  0.03524  0.05394  1.0000
  C   C7        1.0  0.27467  0.24889  0.33977  1.0000
  C   C8        1.0  0.98338  0.23947  0.19815  1.0000
  C   C9        1.0  0.99539  0.21872  0.21523  1.0000
  H   H14       1.0  0.99659  0.16107  0.09142  1.0000
  H   H15       1.0  0.23289  0.25629  0.24282  1.0000
  H   H16       1.0  0.17421  0.29333  0.34895  1.0000
  H   H17       1.0  0.99619  0.25542  0.19106  1.0000
  H   H18       1.0  0.98750  0.18208  0.23764  1.0000
  C   C10       1.0  0.37878  0.07410  0.01925  1.0000
  C   C11       1.0  0.25249  0.21075  0.16487  1.0000
  C   C12       1.0  0.23828  0.23339  0.15814  1.0000
  C   C13       1.0  0.20904  0.23505  0.16171  1.0000
  C   C14       1.0  0.19348  0.21388  0.17129  1.0000
  C   C15       1.0  0.20771  0.19128  0.17824  1.0000
  C   C16       1.0  0.23701  0.18978  0.17554  1.0000
  H   H19       1.0  0.24997  0.24971  0.14972  1.0000
  H   H20       1.0  0.19848  0.25251  0.15598  1.0000
  H   H21       1.0  0.19598  0.17471  0.18545  1.0000
  H   H22       1.0  0.24754  0.17221  0.18065  1.0000
  C   C17       1.0  0.29882  0.16075  0.33422  1.0000
  C   C18       1.0  0.27503  0.15715  0.35580  1.0000
  C   C19       1.0  0.27033  0.17205  0.38670  1.0000
  C   C20       1.0  0.28997  0.19003  0.39707  1.0000
  C   C21       1.0  0.31352  0.19383  0.37522  1.0000
  C   C22       1.0  0.31773  0.17956  0.34364  1.0000
  H   H23       1.0  0.26026  0.14269  0.34860  1.0000
  H   H24       1.0  0.25191  0.16921  0.40296  1.0000
  H   H25       1.0  0.32885  0.20768  0.38304  1.0000
  H   H26       1.0  0.33617  0.18243  0.32735  1.0000
  C   C23       1.0  0.43986  0.05390  0.08607  1.0000
  C   C24       1.0  0.41535  0.04155  0.09625  1.0000
  C   C25       1.0  0.39408  0.05459  0.11497  1.0000
  C   C26       1.0  0.39683  0.08016  0.12408  1.0000
  C   C27       1.0  0.42164  0.09232  0.11467  1.0000
  C   C28       1.0  0.44291  0.07929  0.09590  1.0000
  H   H27       1.0  0.41267  0.02198  0.08958  1.0000
  H   H28       1.0  0.37517  0.04483  0.12233  1.0000
  H   H29       1.0  0.42431  0.11190  0.12140  1.0000
  C   C29       1.0  0.22723  0.23835  0.25628  1.0000
  C   C30       1.0  0.29001  0.24895  0.24696  1.0000
  C   C31       1.0  0.19725  0.24187  0.27036  1.0000
  C   C32       1.0  0.37063  0.00279  0.02185  1.0000
  H   H30       1.0  0.44992  0.99937  0.17012  1.0000
  H   H31       1.0  0.38619  0.08905  0.00057  1.0000
  H   H32       1.0  0.27609  0.26629  0.35616  1.0000
  H   H33       1.0  0.18891  0.22477  0.28330  1.0000
  H   H34       1.0  0.39221  0.99956  0.03151  1.0000
  N   N1        1.0  0.10838  0.17052  0.28105  1.0000
  C   C33       1.0  0.12464  0.18673  0.30707  1.0000
  C   C34       1.0  0.07888  0.18026  0.28016  1.0000
  C   C35       1.0  0.12179  0.17276  0.24398  1.0000
  C   C36       1.0  0.10971  0.14389  0.29459  1.0000
  C   C37       1.0  0.15602  0.18092  0.31037  1.0000
  C   C38       1.0  0.06292  0.18010  0.31639  1.0000
  C   C39       1.0  0.10259  0.17093  0.21046  1.0000
  C   C40       1.0  0.09181  0.12468  0.27405  1.0000
  H   H35       1.0  0.12268  0.20685  0.29935  1.0000
  H   H36       1.0  0.11634  0.18518  0.33508  1.0000
  H   H37       1.0  0.06574  0.16977  0.26064  1.0000
  H   H38       1.0  0.07861  0.19992  0.27029  1.0000
  H   H39       1.0  0.13251  0.19115  0.24079  1.0000
  H   H40       1.0  0.13863  0.15862  0.24051  1.0000
  H   H41       1.0  0.13140  0.13665  0.29339  1.0000
  H   H42       1.0  0.10377  0.14292  0.32369  1.0000
  H   H43       1.0  0.16579  0.19536  0.32798  1.0000
  H   H44       1.0  0.15978  0.16260  0.32370  1.0000
  H   H45       1.0  0.16685  0.18151  0.28391  1.0000
  H   H46       1.0  0.04113  0.18607  0.31108  1.0000
  H   H47       1.0  0.06192  0.16121  0.32875  1.0000
  H   H48       1.0  0.07156  0.19384  0.33592  1.0000
  H   H49       1.0  0.08929  0.18787  0.20789  1.0000
  H   H50       1.0  0.08920  0.15412  0.21040  1.0000
  H   H51       1.0  0.11564  0.17026  0.18564  1.0000
  H   H52       1.0  0.06934  0.12931  0.27494  1.0000
  H   H53       1.0  0.09423  0.10606  0.28719  1.0000
  H   H54       1.0  0.09883  0.12252  0.24570  1.0000
  N   N2        1.0  0.24881  0.23109  0.28403  1.0000
  H   H55       1.0  0.99916  0.20712  0.10795  1.0000
  H   H56       1.0  0.99949  0.18663  0.14605  1.0000
  H   H57       1.0  0.29520  0.11834  0.40267  1.0000
  H   H58       1.0  0.23201  0.25474  0.32633  1.0000
  S   S17       1.0  0.44465  0.96783  0.03953  1.0000
  H   H59       1.0  0.33412  0.13408  0.46519  1.0000
  H   H60       1.0  0.98793  0.13533  0.14283  1.0000
  Fe  Fe8       1.0  0.24798  0.20986  0.47279  1.0000
  H   H61       1.0  0.36865  0.99540  0.99411  1.0000
  H   H62       1.0  0.33521  0.08761  0.01589  1.0000
  H   H63       1.0  0.18340  0.24608  0.24697  1.0000
  H   H64       1.0  0.25519  0.27036  0.29683  1.0000
  C   C41       1.0  0.23366  0.18467  0.28043  1.0000
  C   C42       1.0  0.31393  0.11622  0.41999  1.0000
  H   H65       1.0  0.33190  0.12169  0.40276  1.0000
  H   H66       1.0  0.25694  0.13561  0.44546  1.0000
  H   H67       1.0  0.29619  0.26332  0.26704  1.0000
  C   C43       1.0  0.16032  0.27775  0.35388  1.0000
  C   C44       1.0  0.27588  0.22605  0.26467  1.0000
  H   H68       1.0  0.21561  0.18795  0.26236  1.0000
  H   H69       1.0  0.25736  0.20170  0.32266  1.0000
  H   H70       1.0  0.46180  0.08912  0.08863  1.0000
  C   C45       1.0  0.26411  0.12067  0.46439  1.0000
  H   H71       1.0  0.11759  0.96560  0.00681  1.0000
  Fe  Fe9       1.0  0.18681  0.22135  0.46939  1.0000
  N   N3        1.0  0.37666  0.04916  0.00000  1.0000
  H   H72       1.0  0.22650  0.22438  0.23415  1.0000
  C   C46       1.0  0.97840  0.19818  0.22432  1.0000
  H   H73       1.0  0.26956  0.23358  0.35897  1.0000
  H   H74       1.0  0.22830  0.16865  0.29832  1.0000
  C   C47       1.0  0.24041  0.20771  0.30414  1.0000
  H   H75       1.0  0.35625  0.10258  0.04934  1.0000
  C   C48       1.0  0.98633  0.19347  0.12337  1.0000
  H   H76       1.0  0.33946  0.03196  0.02272  1.0000
  C   C49       1.0  0.25169  0.25217  0.31090  1.0000
  H   H77       1.0  0.22221  0.21134  0.32200  1.0000
  H   H78       1.0  0.19551  0.25796  0.28919  1.0000
  C   C50       1.0  0.36252  0.03069  0.02518  1.0000
  H   H79       1.0  0.25178  0.17868  0.26398  1.0000
  H   H80       1.0  0.39455  0.07319  0.04130  1.0000
  H   H81       1.0  0.27689  0.25741  0.22549  1.0000
  H   H82       1.0  0.26636  0.10385  0.44712  1.0000
  S   S18       1.0  0.12951  0.28733  0.19070  1.0000
  C   C51       1.0  0.31285  0.13377  0.45316  1.0000
  H   H83       1.0  0.41753  0.03715  0.01700  1.0000
  H   H84       1.0  0.35679  0.99138  0.03942  1.0000
  H   H85       1.0  0.30966  0.15283  0.44162  1.0000
  C   C52       1.0  0.35168  0.08425  0.03633  1.0000
  N   N4        1.0  0.29122  0.12831  0.48184  1.0000
  H   H86       1.0  0.44337  0.21121  0.33662  1.0000
  H   H87       1.0  0.45360  0.04326  0.16686  1.0000
  C   C53       1.0  0.96679  0.14332  0.14746  1.0000
  H   H88       1.0  0.45540  0.24655  0.23470  1.0000
  H   H89       1.0  0.29049  0.07614  0.47426  1.0000
  H   H90       1.0  0.45811  0.00595  0.12494  1.0000
  C   C54       1.0  0.97742  0.17189  0.09811  1.0000
  Fe  Fe10      1.0  0.08573  0.29216  0.16806  1.0000
  S   S19       1.0  0.06512  0.28845  0.22288  1.0000
  H   H91       1.0  0.96947  0.15795  0.16861  1.0000
  S   S20       1.0  0.00358  0.96229  0.03475  1.0000
  H   H92       1.0  0.97030  0.12298  0.08189  1.0000
  H   H93       1.0  0.97123  0.18053  0.07210  1.0000
  H   H94       1.0  0.27420  0.16586  0.48520  1.0000
  C   C55       1.0  0.46098  0.19059  0.19169  1.0000
  H   H95       1.0  0.32724  0.07970  0.48356  1.0000
  H   H96       1.0  0.96828  0.20377  0.13439  1.0000
  H   H97       1.0  0.46086  0.20115  0.29691  1.0000
  C   C56       1.0  0.46135  0.21541  0.31873  1.0000
  C   C57       1.0  0.40587  0.04063  0.99146  1.0000
  C   C58       1.0  0.23988  0.11514  0.49056  1.0000
  Fe  Fe11      1.0  0.06734  0.99823  0.68298  1.0000
  S   S21       1.0  0.05973  0.03850  0.69697  1.0000
  H   H98       1.0  0.17837  0.03720  0.87268  1.0000
  Fe  Fe12      1.0  0.12652  0.99971  0.71551  1.0000
  S   S22       1.0  0.12208  0.04019  0.73249  1.0000
  H   H99       1.0  0.44401  0.04992  0.96282  1.0000
  Fe  Fe13      1.0  0.07906  0.02869  0.75070  1.0000
  S   S23       1.0  0.05759  0.03919  0.80351  1.0000
  Fe  Fe14      1.0  0.10361  0.04633  0.67676  1.0000
  S   S24       1.0  0.10912  0.08094  0.63894  1.0000
  S   S25       1.0  0.08467  0.98832  0.73737  1.0000
  S   S26       1.0  0.10992  0.00601  0.65905  1.0000
  H   H100      1.0  0.42845  0.07632  0.98346  1.0000
  C   C59       1.0  0.97881  0.04745  0.63257  1.0000
  C   C60       1.0  0.45687  0.98402  0.68852  1.0000
  Fe  Fe15      1.0  0.22278  0.24368  0.53164  1.0000
  S   S27       1.0  0.24857  0.20853  0.53395  1.0000
  H   H101      1.0  0.17201  0.20601  0.73246  1.0000
  Fe  Fe16      1.0  0.20828  0.18650  0.53013  1.0000
  S   S28       1.0  0.20402  0.15195  0.56813  1.0000
  S   S29       1.0  0.18228  0.22156  0.53040  1.0000
  C   C61       1.0  0.04042  0.98443  0.89759  1.0000
  C   C62       1.0  0.05792  0.97735  0.86891  1.0000
  C   C63       1.0  0.06249  0.99348  0.83923  1.0000
  C   C64       1.0  0.05000  0.01715  0.83827  1.0000
  C   C65       1.0  0.03191  0.02397  0.86650  1.0000
  C   C66       1.0  0.02689  0.00761  0.89584  1.0000
  C   C67       1.0  0.45735  0.98972  0.86987  1.0000
  H   H102      1.0  0.07629  0.98784  0.81767  1.0000
  H   H103      1.0  0.02209  0.04221  0.86602  1.0000
  H   H104      1.0  0.01348  0.01339  0.91780  1.0000
  C   C68       1.0  0.17716  0.13226  0.58690  1.0000
  C   C69       1.0  0.14873  0.13648  0.58096  1.0000
  C   C70       1.0  0.12846  0.12068  0.59709  1.0000
  C   C71       1.0  0.13605  0.10032  0.61951  1.0000
  C   C72       1.0  0.16449  0.09617  0.62555  1.0000
  C   C73       1.0  0.18476  0.11197  0.60941  1.0000
  H   H105      1.0  0.14230  0.15189  0.56385  1.0000
  H   H106      1.0  0.10665  0.12425  0.59207  1.0000
  H   H107      1.0  0.17091  0.08071  0.64258  1.0000
  H   H108      1.0  0.20657  0.10838  0.61447  1.0000
  C   C74       1.0  0.23264  0.98279  0.67933  1.0000
  C   C75       1.0  0.20491  0.98540  0.69106  1.0000
  H   H109      1.0  0.99563  0.01440  0.53502  1.0000
  H   H110      1.0  0.23970  0.99308  0.65579  1.0000
  H   H111      1.0  0.19074  0.99755  0.67655  1.0000
  C   C76       1.0  0.99038  0.01836  0.56378  1.0000
  H   H112      1.0  0.13726  0.06346  0.81239  1.0000
  C   C77       1.0  0.28580  0.15228  0.50245  1.0000
  H   H113      1.0  0.32226  0.11487  0.51956  1.0000
  C   C78       1.0  0.00770  0.03786  0.62082  1.0000
  C   C79       1.0  0.35970  0.05306  0.96607  1.0000
  C   C80       1.0  0.04034  0.02378  0.57460  1.0000
  H   H114      1.0  0.13899  0.23548  0.64241  1.0000
  C   C81       1.0  0.14948  0.98496  0.83111  1.0000
  H   H115      1.0  0.97087  0.98158  0.56597  1.0000
  N   N5        1.0  0.15613  0.01238  0.83665  1.0000
  H   H116      1.0  0.46076  0.97424  0.88943  1.0000
  H   H117      1.0  0.34540  0.01490  0.95290  1.0000
  C   C82       1.0  0.17328  0.02181  0.80524  1.0000
  C   C83       1.0  0.17021  0.01767  0.87233  1.0000
  C   C84       1.0  0.99748  0.98362  0.78468  1.0000
  H   H118      1.0  0.30319  0.06885  0.51753  1.0000
  H   H119      1.0  0.06968  0.03560  0.61690  1.0000
  Fe  Fe17      1.0  0.44217  0.96526  0.97845  1.0000
  H   H120      1.0  0.34518  0.03625  0.91597  1.0000
  H   H121      1.0  0.00964  0.97284  0.80469  1.0000
  H   H122      1.0  0.45055  0.00184  0.69977  1.0000
  H   H123      1.0  0.21144  0.01774  0.77457  1.0000
  H   H124      1.0  0.11495  0.02013  0.85851  1.0000
  H   H125      1.0  0.04374  0.01857  0.54575  1.0000
  C   C85       1.0  0.99970  0.96847  0.66918  1.0000
  H   H126      1.0  0.21715  0.01853  0.82207  1.0000
  H   H127      1.0  0.42053  0.97227  0.76026  1.0000
  H   H128      1.0  0.42993  0.99606  0.79242  1.0000
  H   H129      1.0  0.16884  0.16818  0.70173  1.0000
  S   S30       1.0  0.03555  0.97155  0.65759  1.0000
  H   H130      1.0  0.23288  0.13227  0.50478  1.0000
  H   H131      1.0  0.13547  0.98252  0.80725  1.0000
  H   H132      1.0  0.17625  0.04241  0.80675  1.0000
  C   C86       1.0  0.00975  0.06075  0.56335  1.0000
  H   H133      1.0  0.00542  0.98141  0.58352  1.0000
  H   H134      1.0  0.16797  0.97375  0.82379  1.0000
  H   H135      1.0  0.41392  0.06306  0.94205  1.0000
  H   H136      1.0  0.19381  0.14502  0.68965  1.0000
  C   C87       1.0  0.35714  0.03048  0.94035  1.0000
  N   N6        1.0  0.18924  0.20530  0.65040  1.0000
  C   C88       1.0  0.20951  0.21680  0.62389  1.0000
  C   C89       1.0  0.16242  0.20091  0.63001  1.0000
  C   C90       1.0  0.20153  0.18072  0.66314  1.0000
  C   C91       1.0  0.18578  0.22330  0.68149  1.0000
  C   C92       1.0  0.23945  0.22110  0.63786  1.0000
  H   H137      1.0  0.30487  0.18296  0.53230  1.0000
  H   H138      1.0  0.20380  0.99055  0.80006  1.0000
  C   C93       1.0  0.16314  0.21705  0.70969  1.0000
  H   H139      1.0  0.21124  0.20493  0.59921  1.0000
  H   H140      1.0  0.20217  0.23539  0.61438  1.0000
  H   H141      1.0  0.14739  0.18953  0.64569  1.0000
  H   H142      1.0  0.16643  0.18962  0.60515  1.0000
  H   H143      1.0  0.21228  0.17101  0.64039  1.0000
  H   H144      1.0  0.21790  0.18402  0.68396  1.0000
  H   H145      1.0  0.20549  0.22489  0.69713  1.0000
  H   H146      1.0  0.18219  0.24280  0.67161  1.0000
  C   C94       1.0  0.19562  0.97210  0.72134  1.0000
  H   H147      1.0  0.01170  0.01982  0.63491  1.0000
  H   H148      1.0  0.06289  0.05981  0.58449  1.0000
  C   C95       1.0  0.98607  0.99264  0.58206  1.0000
  H   H149      1.0  0.97486  0.06676  0.62277  1.0000
  H   H150      1.0  0.16214  0.01821  0.77938  1.0000
  H   H151      1.0  0.28834  0.10823  0.53318  1.0000
  H   H152      1.0  0.14192  0.06185  0.86131  1.0000
  C   C96       1.0  0.14629  0.22468  0.61862  1.0000
  H   H153      1.0  0.24020  0.23498  0.66014  1.0000
  C   C97       1.0  0.30169  0.10911  0.50856  1.0000
  H   H154      1.0  0.15458  0.23479  0.72078  1.0000
  C   C98       1.0  0.42159  0.97687  0.78957  1.0000
  H   H155      1.0  0.97809  0.04806  0.66264  1.0000
  C   C99       1.0  0.25123  0.96680  0.69758  1.0000
  N   N7        1.0  0.01205  0.03520  0.58065  1.0000
  H   H156      1.0  0.02319  0.05112  0.63252  1.0000
  C   C100      1.0  0.18143  0.16101  0.67904  1.0000
  C   C101      1.0  0.13563  0.97150  0.86346  1.0000
  H   H157      1.0  0.11655  0.98097  0.87291  1.0000
  C   C102      1.0  0.19472  0.00038  0.88332  1.0000
  H   H158      1.0  0.15476  0.01697  0.89483  1.0000
  H   H159      1.0  0.32421  0.15460  0.53576  1.0000
  H   H160      1.0  0.98772  0.06723  0.56318  1.0000
  H   H161      1.0  0.25207  0.22916  0.61547  1.0000
  C   C103      1.0  0.20293  0.01122  0.80096  1.0000
  C   C104      1.0  0.12964  0.05498  0.83796  1.0000
  H   H162      1.0  0.32511  0.17334  0.49465  1.0000
  H   H163      1.0  0.10809  0.06212  0.84160  1.0000
  H   H164      1.0  0.36823  0.06890  0.94992  1.0000
  H   H165      1.0  0.08420  0.03445  0.57188  1.0000
  H   H166      1.0  0.36619  0.97590  0.88362  1.0000
  H   H167      1.0  0.99571  0.00461  0.69443  1.0000
  H   H168      1.0  0.15843  0.23715  0.60060  1.0000
  C   C105      1.0  0.98486  0.98792  0.68565  1.0000
  H   H169      1.0  0.27223  0.14885  0.52638  1.0000
  H   H170      1.0  0.40009  0.97748  0.80056  1.0000
  S   S31       1.0  0.22678  0.27562  0.57409  1.0000
  H   H171      1.0  0.96968  0.02771  0.56289  1.0000
  S   S32       1.0  0.28557  0.96364  0.68102  1.0000
  H   H172      1.0  0.19085  0.99222  0.91055  1.0000
  C   C106      1.0  0.12856  0.02610  0.83578  1.0000
  H   H173      1.0  0.37759  0.02372  0.93053  1.0000
  H   H174      1.0  0.16760  0.15306  0.65791  1.0000
  H   H175      1.0  0.19867  0.98461  0.86467  1.0000
  H   H176      1.0  0.24511  0.10032  0.51049  1.0000
  H   H177      1.0  0.01581  0.08177  0.51349  1.0000
  H   H178      1.0  0.11675  0.02144  0.81066  1.0000
  H   H179      1.0  0.28643  0.28438  0.55715  1.0000
  H   H180      1.0  0.04288  0.05970  0.52193  1.0000
  H   H181      1.0  0.24979  0.20343  0.64610  1.0000
  H   H182      1.0  0.00154  0.97589  0.75732  1.0000
  H   H183      1.0  0.04209  0.00555  0.58910  1.0000
  C   C107      1.0  0.06544  0.03937  0.58791  1.0000
  C   C108      1.0  0.02007  0.06260  0.52389  1.0000
  H   H184      1.0  0.14499  0.20702  0.69844  1.0000
  H   H185      1.0  0.97702  0.99452  0.60946  1.0000
  H   H186      1.0  0.02092  0.07525  0.57945  1.0000
  S   S33       1.0  0.40278  0.96814  0.94420  1.0000
  C   C109      1.0  0.31175  0.16621  0.51690  1.0000
  H   H187      1.0  0.12750  0.21896  0.60312  1.0000
  H   H188      1.0  0.41516  0.96872  0.68919  1.0000
  H   H189      1.0  0.21428  0.01140  0.88543  1.0000
  C   C110      1.0  0.42362  0.05881  0.96857  1.0000
  C   C111      1.0  0.96594  0.98468  0.79299  1.0000
  H   H190      1.0  0.40602  0.02237  0.97708  1.0000
  C   C112      1.0  0.43674  0.96524  0.68266  1.0000
  H   H191      1.0  0.00595  0.00300  0.78469  1.0000
  H   H192      1.0  0.33805  0.05861  0.97290  1.0000
  S   S34       1.0  0.16078  0.97386  0.73660  1.0000
  Fe  Fe18      1.0  0.00073  0.96191  0.97365  1.0000
  H   H193      1.0  0.43477  0.99172  0.86433  1.0000
  H   H194      1.0  0.00914  0.04926  0.50581  1.0000
  H   H195      1.0  0.15010  0.96932  0.88659  1.0000
  S   S35       1.0  0.03846  0.96495  0.93653  1.0000
  H   H196      1.0  0.96323  0.99681  0.81727  1.0000
  C   C113      1.0  0.30593  0.08215  0.49462  1.0000
  H   H197      1.0  0.41095  0.32348  0.02057  1.0000
  S   S36       1.0  0.98383  0.40455  0.07835  1.0000
  S   S37       1.0  0.43890  0.46331  0.03349  1.0000
  H   H198      1.0  0.12613  0.37330  0.17424  1.0000
  S   S38       1.0  0.07805  0.32474  0.12743  1.0000
  C   C114      1.0  0.05115  0.34630  0.11378  1.0000
  C   C115      1.0  0.05678  0.36383  0.08608  1.0000
  C   C116      1.0  0.03669  0.38172  0.07494  1.0000
  C   C117      1.0  0.01043  0.38249  0.09134  1.0000
  C   C118      1.0  0.00481  0.36499  0.11913  1.0000
  C   C119      1.0  0.02490  0.34707  0.13025  1.0000
  H   H199      1.0  0.07693  0.36360  0.07305  1.0000
  H   H200      1.0  0.04156  0.39491  0.05359  1.0000
  H   H201      1.0  0.14082  0.62205  0.08112  1.0000
  H   H202      1.0  0.02005  0.33391  0.15161  1.0000
  S   S39       1.0  0.00267  0.47347  0.03451  1.0000
  H   H203      1.0  0.36650  0.61646  0.31417  1.0000
  H   H204      1.0  0.13374  0.38974  0.25386  1.0000
  H   H205      1.0  0.07250  0.40532  0.25946  1.0000
  S   S40       1.0  0.36752  0.58574  0.15012  1.0000
  H   H206      1.0  0.05839  0.37512  0.22609  1.0000
  H   H207      1.0  0.43596  0.62763  0.24444  1.0000
  C   C120      1.0  0.11386  0.39263  0.23898  1.0000
  C   C121      1.0  0.43385  0.54951  0.07539  1.0000
  C   C122      1.0  0.41580  0.53481  0.09622  1.0000
  C   C123      1.0  0.39571  0.54626  0.11873  1.0000
  C   C124      1.0  0.39328  0.57254  0.12090  1.0000
  C   C125      1.0  0.41096  0.58723  0.09954  1.0000
  C   C126      1.0  0.43122  0.57579  0.07721  1.0000
  H   H208      1.0  0.41763  0.51462  0.09547  1.0000
  H   H209      1.0  0.38210  0.53464  0.13497  1.0000
  H   H210      1.0  0.40893  0.60740  0.10016  1.0000
  H   H211      1.0  0.45203  0.58880  0.21899  1.0000
  C   C127      1.0  0.35740  0.54478  0.02444  1.0000
  C   C128      1.0  0.39325  0.40857  0.05873  1.0000
  C   C129      1.0  0.36440  0.49118  0.04291  1.0000
  C   C130      1.0  0.37762  0.62541  0.33716  1.0000
  H   H212      1.0  0.44361  0.39804  0.01796  1.0000
  H   H213      1.0  0.39816  0.61609  0.33937  1.0000
  H   H214      1.0  0.35946  0.47088  0.04494  1.0000
  H   H215      1.0  0.06855  0.35214  0.19492  1.0000
  H   H216      1.0  0.16512  0.34525  0.18590  1.0000
  H   H217      1.0  0.38717  0.49320  0.04649  1.0000
  H   H218      1.0  0.16415  0.36883  0.22001  1.0000
  H   H219      1.0  0.41496  0.40960  0.06896  1.0000
  H   H220      1.0  0.38946  0.35748  0.04757  1.0000
  H   H221      1.0  0.06397  0.60788  0.15533  1.0000
  Fe  Fe19      1.0  0.35796  0.62383  0.17720  1.0000
  C   C131      1.0  0.12331  0.35906  0.19593  1.0000
  H   H222      1.0  0.43455  0.37255  0.04640  1.0000
  H   H223      1.0  0.09889  0.40096  0.29389  1.0000
  H   H224      1.0  0.09942  0.42735  0.26337  1.0000
  C   C132      1.0  0.43417  0.37901  0.01768  1.0000
  H   H225      1.0  0.42746  0.62188  0.17145  1.0000
  H   H226      1.0  0.38839  0.37651  0.48838  1.0000
  H   H227      1.0  0.36710  0.53940  0.05064  1.0000
  H   H228      1.0  0.38154  0.39411  0.07395  1.0000
  C   C133      1.0  0.45825  0.62274  0.24792  1.0000
  C   C134      1.0  0.15288  0.35231  0.20928  1.0000
  H   H229      1.0  0.11985  0.40565  0.21669  1.0000
  H   H230      1.0  0.36488  0.36203  0.01338  1.0000
  H   H231      1.0  0.98474  0.36531  0.13230  1.0000
  H   H232      1.0  0.33449  0.54433  0.02912  1.0000
  H   H233      1.0  0.44486  0.58740  0.06101  1.0000
  H   H234      1.0  0.38350  0.42690  0.06512  1.0000
  C   C135      1.0  0.07296  0.39032  0.17618  1.0000
  H   H235      1.0  0.44770  0.58389  0.15602  1.0000
  H   H236      1.0  0.40219  0.42090  0.00457  1.0000
  C   C136      1.0  0.10220  0.34845  0.25408  1.0000
  H   H237      1.0  0.05773  0.34048  0.26280  1.0000
  H   H238      1.0  0.40680  0.52723  0.01729  1.0000
  H   H239      1.0  0.11498  0.34211  0.18210  1.0000
  H   H240      1.0  0.07968  0.33390  0.30047  1.0000
  H   H241      1.0  0.05103  0.39136  0.16671  1.0000
  H   H242      1.0  0.36957  0.40571  0.00976  1.0000
  C   C137      1.0  0.07506  0.37051  0.20654  1.0000
  H   H243      1.0  0.08554  0.38516  0.15216  1.0000
  C   C138      1.0  0.06563  0.62611  0.14091  1.0000
  C   C139      1.0  0.07601  0.34752  0.27814  1.0000
  H   H244      1.0  0.07869  0.40932  0.18568  1.0000
  H   H245      1.0  0.07101  0.36569  0.29077  1.0000
  H   H246      1.0  0.12041  0.35029  0.27260  1.0000
  H   H247      1.0  0.15279  0.33707  0.22975  1.0000
  N   N8        1.0  0.10317  0.36805  0.22450  1.0000
  C   C140      1.0  0.35438  0.50115  0.00583  1.0000
  H   H248      1.0  0.10393  0.32934  0.24224  1.0000
  C   C141      1.0  0.09493  0.40697  0.26552  1.0000
  H   H249      1.0  0.35347  0.50058  0.06562  1.0000
  Fe  Fe20      1.0  0.97720  0.43802  0.03866  1.0000
  C   C142      1.0  0.38756  0.35880  0.01760  1.0000
  H   H250      1.0  0.46008  0.61359  0.27485  1.0000
  N   N9        1.0  0.40470  0.38035  0.00350  1.0000
  H   H251      1.0  0.36496  0.62165  0.36163  1.0000
  H   H252      1.0  0.09740  0.61951  0.10216  1.0000
  S   S41       1.0  0.46007  0.53616  0.04697  1.0000
  C   C143      1.0  0.39193  0.40438  0.01734  1.0000
  H   H253      1.0  0.33118  0.50107  0.00621  1.0000
  H   H254      1.0  0.27721  0.62546  0.36624  1.0000
  H   H255      1.0  0.10985  0.61900  0.14656  1.0000
  H   H256      1.0  0.35639  0.58365  0.04113  1.0000
  C   C144      1.0  0.36575  0.57235  0.01899  1.0000
  H   H257      1.0  0.37571  0.32055  0.00436  1.0000
  N   N10       1.0  0.36529  0.52661  0.99485  1.0000
  H   H258      1.0  0.44795  0.34326  0.99259  1.0000
  C   C145      1.0  0.39471  0.33241  0.00344  1.0000
  C   C146      1.0  0.45515  0.36269  0.99671  1.0000
  H   H259      1.0  0.38855  0.57480  0.02177  1.0000
  H   H260      1.0  0.05110  0.62584  0.11749  1.0000
  S   S42       1.0  0.13123  0.29484  0.29419  1.0000
  H   H261      1.0  0.35813  0.58037  0.99317  1.0000
  Fe  Fe21      1.0  0.32351  0.38691  0.67645  1.0000
  S   S43       1.0  0.31705  0.42711  0.65846  1.0000
  S   S44       1.0  0.31843  0.35401  0.63550  1.0000
  Fe  Fe22      1.0  0.35040  0.40496  0.74911  1.0000
  S   S45       1.0  0.34459  0.44534  0.73521  1.0000
  S   S46       1.0  0.37856  0.39432  0.79650  1.0000
  Fe  Fe23      1.0  0.30203  0.43391  0.71534  1.0000
  S   S47       1.0  0.26823  0.46173  0.73197  1.0000
  Fe  Fe24      1.0  0.36013  0.43504  0.68014  1.0000
  S   S48       1.0  0.39061  0.46122  0.65132  1.0000
  S   S49       1.0  0.30663  0.39345  0.73312  1.0000
  S   S50       1.0  0.36778  0.39492  0.69452  1.0000
  C   C147      1.0  0.04313  0.59866  0.62764  1.0000
  S   S51       1.0  0.39639  0.45464  0.94324  1.0000
  H   H262      1.0  0.97168  0.55110  0.63449  1.0000
  C   C148      1.0  0.23354  0.46370  0.71612  1.0000
  C   C149      1.0  0.19362  0.44745  0.68310  1.0000
  C   C150      1.0  0.22167  0.44537  0.69392  1.0000
  H   H263      1.0  0.18452  0.43305  0.66619  1.0000
  H   H264      1.0  0.23399  0.42945  0.68548  1.0000
  C   C151      1.0  0.42701  0.46306  0.65998  1.0000
  C   C152      1.0  0.99032  0.46950  0.67284  1.0000
  H   H265      1.0  0.20867  0.43713  0.80731  1.0000
  H   H266      1.0  0.01214  0.46581  0.66811  1.0000
  H   H267      1.0  0.17427  0.42678  0.81306  1.0000
  C   C153      1.0  0.38466  0.41375  0.83461  1.0000
  C   C154      1.0  0.36465  0.43069  0.84707  1.0000
  C   C155      1.0  0.36886  0.44361  0.87992  1.0000
  C   C156      1.0  0.39343  0.44031  0.90004  1.0000
  C   C157      1.0  0.41408  0.42438  0.88660  1.0000
  C   C158      1.0  0.40946  0.41081  0.85443  1.0000
  H   H268      1.0  0.34542  0.43302  0.83216  1.0000
  H   H269      1.0  0.35273  0.45586  0.89003  1.0000
  H   H270      1.0  0.43321  0.42177  0.90157  1.0000
  H   H271      1.0  0.42501  0.39769  0.84504  1.0000
  C   C159      1.0  0.29244  0.33243  0.61894  1.0000
  C   C160      1.0  0.29980  0.31494  0.59192  1.0000
  H   H272      1.0  0.99656  0.45525  0.85381  1.0000
  H   H273      1.0  0.03576  0.54929  0.63228  1.0000
  H   H274      1.0  0.24876  0.55131  0.62201  1.0000
  Fe  Fe25      1.0  0.05210  0.52000  0.69132  1.0000
  S   S52       1.0  0.06497  0.55727  0.71430  1.0000
  S   S53       1.0  0.00506  0.51944  0.68290  1.0000
  Fe  Fe26      1.0  0.11284  0.50141  0.69492  1.0000
  S   S54       1.0  0.12876  0.53707  0.71934  1.0000
  S   S55       1.0  0.14208  0.46966  0.68006  1.0000
  Fe  Fe27      1.0  0.08981  0.53427  0.75384  1.0000
  S   S56       1.0  0.08635  0.54132  0.81452  1.0000
  Fe  Fe28      1.0  0.10229  0.55630  0.67714  1.0000
  S   S57       1.0  0.11335  0.58541  0.63305  1.0000
  S   S58       1.0  0.07578  0.49729  0.73206  1.0000
  S   S59       1.0  0.08750  0.52035  0.65147  1.0000
  H   H275      1.0  0.14766  0.52898  0.63925  1.0000
  C   C161      1.0  0.25273  0.29728  0.59053  1.0000
  S   S60       1.0  0.02493  0.46771  0.92523  1.0000
  C   C162      1.0  0.03982  0.48930  0.89412  1.0000
  C   C163      1.0  0.04291  0.51483  0.90173  1.0000
  C   C164      1.0  0.05684  0.53066  0.87695  1.0000
  C   C165      1.0  0.06694  0.52136  0.84382  1.0000
  C   C166      1.0  0.06299  0.49599  0.83584  1.0000
  C   C167      1.0  0.05009  0.48002  0.86111  1.0000
  H   H276      1.0  0.03535  0.52222  0.92716  1.0000
  H   H277      1.0  0.05989  0.55022  0.88357  1.0000
  H   H278      1.0  0.07036  0.48844  0.81057  1.0000
  H   H279      1.0  0.04812  0.46027  0.85509  1.0000
  H   H280      1.0  0.23392  0.53262  0.69336  1.0000
  H   H281      1.0  0.40299  0.50605  0.98126  1.0000
  C   C168      1.0  0.13913  0.60804  0.62022  1.0000
  H   H282      1.0  0.05438  0.58842  0.64948  1.0000
  C   C169      1.0  0.44214  0.44238  0.67248  1.0000
  H   H283      1.0  0.34722  0.52408  0.90301  1.0000
  H   H284      1.0  0.01826  0.47941  0.78623  1.0000
  C   C170      1.0  0.21725  0.48424  0.72691  1.0000
  C   C171      1.0  0.18935  0.48644  0.71581  1.0000
  C   C172      1.0  0.17728  0.46789  0.69415  1.0000
  H   H285      1.0  0.22633  0.49849  0.74405  1.0000
  H   H286      1.0  0.17724  0.50244  0.72415  1.0000
  H   H287      1.0  0.42578  0.39425  0.54826  1.0000
  H   H288      1.0  0.40686  0.41615  0.52230  1.0000
  C   C173      1.0  0.98160  0.49378  0.68131  1.0000
  H   H289      1.0  0.42994  0.50142  0.64200  1.0000
  C   C174      1.0  0.36933  0.38069  0.50427  1.0000
  H   H290      1.0  0.43803  0.48714  0.83090  1.0000
  H   H291      1.0  0.00852  0.54568  0.60137  1.0000
  H   H292      1.0  0.99212  0.49137  0.75545  1.0000
  C   C175      1.0  0.02625  0.55810  0.60789  1.0000
  H   H293      1.0  0.96651  0.59388  0.55204  1.0000
  C   C176      1.0  0.22333  0.55078  0.68869  1.0000
  C   C177      1.0  0.40979  0.37362  0.61419  1.0000
  C   C178      1.0  0.38650  0.39259  0.60537  1.0000
  C   C179      1.0  0.97954  0.49231  0.81307  1.0000
  H   H294      1.0  0.18364  0.53540  0.67540  1.0000
  H   H295      1.0  0.45786  0.46261  0.88215  1.0000
  C   C180      1.0  0.42349  0.43137  0.57145  1.0000
  H   H296      1.0  0.17182  0.56123  0.60195  1.0000
  H   H297      1.0  0.43059  0.42561  0.59879  1.0000
  H   H298      1.0  0.22090  0.59150  0.63429  1.0000
  H   H299      1.0  0.13770  0.52856  0.59286  1.0000
  H   H300      1.0  0.31716  0.42782  0.57031  1.0000
  H   H301      1.0  0.02069  0.60543  0.56650  1.0000
  H   H302      1.0  0.99084  0.49718  0.83845  1.0000
  H   H303      1.0  0.97610  0.56496  0.57221  1.0000
  H   H304      1.0  0.06869  0.56120  0.58582  1.0000
  H   H305      1.0  0.32819  0.53718  0.96523  1.0000
  H   H306      1.0  0.04165  0.56611  0.55241  1.0000
  C   C181      1.0  0.41669  0.46681  0.76278  1.0000
  H   H307      1.0  0.97247  0.40990  0.81569  1.0000
  Fe  Fe29      1.0  0.99543  0.47126  0.97379  1.0000
  H   H308      1.0  0.12038  0.61432  0.56789  1.0000
  C   C182      1.0  0.37466  0.37670  0.54517  1.0000
  H   H309      1.0  0.00066  0.44492  0.80924  1.0000
  C   C183      1.0  0.97054  0.45017  0.66882  1.0000
  H   H310      1.0  0.46053  0.37133  0.97024  1.0000
  H   H311      1.0  0.32385  0.40106  0.54268  1.0000
  H   H312      1.0  0.01174  0.51216  0.78312  1.0000
  C   C184      1.0  0.97291  0.42231  0.83981  1.0000
  C   C185      1.0  0.44530  0.47995  0.75962  1.0000
  H   H313      1.0  0.25874  0.34533  0.65230  1.0000
  C   C186      1.0  0.21512  0.51243  0.62713  1.0000
  C   C187      1.0  0.22364  0.58335  0.60697  1.0000
  C   C188      1.0  0.21999  0.49888  0.59081  1.0000
  H   H314      1.0  0.23503  0.51099  0.64240  1.0000
  H   H315      1.0  0.19998  0.50102  0.64281  1.0000
  H   H316      1.0  0.16014  0.50454  0.60956  1.0000
  H   H317      1.0  0.41800  0.44641  0.76754  1.0000
  H   H318      1.0  0.24213  0.59265  0.59489  1.0000
  H   H319      1.0  0.20064  0.49719  0.57465  1.0000
  H   H320      1.0  0.22720  0.47948  0.59657  1.0000
  H   H321      1.0  0.23635  0.50804  0.57434  1.0000
  C   C189      1.0  0.98447  0.44837  0.83008  1.0000
  C   C190      1.0  0.98466  0.58219  0.55997  1.0000
  C   C191      1.0  0.15528  0.52478  0.61166  1.0000
  H   H322      1.0  0.97736  0.43164  0.66099  1.0000
  H   H323      1.0  0.37436  0.50726  0.92592  1.0000
  C   C192      1.0  0.41047  0.54373  0.96431  1.0000
  H   H324      1.0  0.40928  0.44764  0.57388  1.0000
  C   C193      1.0  0.45200  0.47100  0.82498  1.0000
  C   C194      1.0  0.39650  0.52500  0.99061  1.0000
  H   H325      1.0  0.40395  0.47530  0.78463  1.0000
  H   H326      1.0  0.44224  0.43790  0.55662  1.0000
  H   H327      1.0  0.40651  0.53870  0.93565  1.0000
  H   H328      1.0  0.96990  0.36380  0.96595  1.0000
  H   H329      1.0  0.40541  0.35487  0.60266  1.0000
  H   H330      1.0  0.40126  0.33200  0.97480  1.0000
  C   C195      1.0  0.41005  0.40946  0.55057  1.0000
  H   H331      1.0  0.39111  0.36210  0.54680  1.0000
  C   C196      1.0  0.19862  0.54835  0.66217  1.0000
  H   H332      1.0  0.40434  0.56340  0.96873  1.0000
  H   H333      1.0  0.41079  0.37108  0.64404  1.0000
  C   C197      1.0  0.37587  0.38329  0.94444  1.0000
  H   H334      1.0  0.44020  0.50030  0.75786  1.0000
  H   H335      1.0  0.99217  0.61445  0.59408  1.0000
  S   S61       1.0  0.97209  0.43461  0.97809  1.0000
  H   H336      1.0  0.45399  0.47519  0.73266  1.0000
  C   C198      1.0  0.04758  0.55541  0.57692  1.0000
  H   H337      1.0  0.33840  0.49902  0.93299  1.0000
  C   C199      1.0  0.16117  0.61497  0.64293  1.0000
  H   H338      1.0  0.43145  0.42505  0.67862  1.0000
  H   H339      1.0  0.21531  0.55709  0.71537  1.0000
  H   H340      1.0  0.02982  0.62618  0.66871  1.0000
  Fe  Fe30      1.0  0.43767  0.45859  0.97288  1.0000
  N   N11       1.0  0.01725  0.58453  0.61647  1.0000
  N   N12       1.0  0.38316  0.39969  0.56609  1.0000
  N   N13       1.0  0.15009  0.47413  0.82399  1.0000
  C   C200      1.0  0.14883  0.49967  0.84155  1.0000
  C   C201      1.0  0.13670  0.45581  0.84984  1.0000
  C   C202      1.0  0.13376  0.47530  0.78898  1.0000
  C   C203      1.0  0.18021  0.46809  0.81667  1.0000
  C   C204      1.0  0.15875  0.52194  0.81811  1.0000
  C   C205      1.0  0.15100  0.45282  0.88700  1.0000
  C   C206      1.0  0.12118  0.45057  0.77471  1.0000
  C   C207      1.0  0.18672  0.44202  0.80094  1.0000
  H   H341      1.0  0.12712  0.50401  0.85030  1.0000
  H   H342      1.0  0.16176  0.50032  0.86651  1.0000
  H   H343      1.0  0.13540  0.43670  0.83830  1.0000
  H   H344      1.0  0.11464  0.46133  0.85494  1.0000
  H   H345      1.0  0.11590  0.48841  0.79160  1.0000
  H   H346      1.0  0.14664  0.48321  0.76680  1.0000
  H   H347      1.0  0.18898  0.48150  0.79666  1.0000
  H   H348      1.0  0.19351  0.47113  0.84097  1.0000
  H   H349      1.0  0.18132  0.52101  0.81219  1.0000
  H   H350      1.0  0.14681  0.52365  0.79261  1.0000
  H   H351      1.0  0.15513  0.53959  0.83333  1.0000
  H   H352      1.0  0.14915  0.46998  0.90374  1.0000
  H   H353      1.0  0.14029  0.43769  0.90231  1.0000
  H   H354      1.0  0.17310  0.44720  0.88440  1.0000
  H   H355      1.0  0.10337  0.44444  0.79168  1.0000
  H   H356      1.0  0.13658  0.43529  0.77253  1.0000
  H   H357      1.0  0.11284  0.45365  0.74702  1.0000
  H   H358      1.0  0.18420  0.44193  0.77101  1.0000
  H   H359      1.0  0.23218  0.54915  0.57938  1.0000
  C   C208      1.0  0.35303  0.51489  0.92895  1.0000
  H   H360      1.0  0.18498  0.53818  0.57220  1.0000
  C   C209      1.0  0.26496  0.33214  0.63163  1.0000
  H   H361      1.0  0.36304  0.43084  0.53807  1.0000
  H   H362      1.0  0.40501  0.46954  0.73708  1.0000
  C   C210      1.0  0.18001  0.54172  0.60119  1.0000
  H   H363      1.0  0.18773  0.56674  0.66122  1.0000
  C   C211      1.0  0.44140  0.48536  0.65192  1.0000
  H   H364      1.0  0.39023  0.40947  0.62237  1.0000
  H   H365      1.0  0.32767  0.39910  0.59115  1.0000
  N   N14       1.0  0.20561  0.53932  0.62459  1.0000
  C   C212      1.0  0.99788  0.58403  0.64861  1.0000
  H   H366      1.0  0.04913  0.53534  0.56921  1.0000
  C   C213      1.0  0.24539  0.31474  0.61759  1.0000
  C   C214      1.0  0.22859  0.55476  0.60799  1.0000
  H   H367      1.0  0.23874  0.56494  0.67977  1.0000
  C   C215      1.0  0.00415  0.59784  0.58463  1.0000
  C   C216      1.0  0.33090  0.41123  0.56720  1.0000
  H   H368      1.0  0.43816  0.45437  0.82420  1.0000
  C   C217      1.0  0.13728  0.61940  0.58580  1.0000
  H   H369      1.0  0.37862  0.38248  0.91457  1.0000
  C   C218      1.0  0.28022  0.29756  0.57784  1.0000
  H   H370      1.0  0.16275  0.60688  0.66970  1.0000
  H   H371      1.0  0.05804  0.60009  0.60469  1.0000
  H   H372      1.0  0.35621  0.36732  0.55755  1.0000
  C   C219      1.0  0.96966  0.57082  0.64335  1.0000
  H   H373      1.0  0.98643  0.41366  0.86081  1.0000
  H   H374      1.0  0.20563  0.58846  0.58965  1.0000
  H   H375      1.0  0.36689  0.38433  0.61593  1.0000
  H   H376      1.0  0.99528  0.57735  0.53421  1.0000
  H   H377      1.0  0.41560  0.36584  0.95004  1.0000
  H   H378      1.0  0.22430  0.31491  0.62774  1.0000
  H   H379      1.0  0.00836  0.57509  0.67232  1.0000
  H   H380      1.0  0.35861  0.55218  0.94972  1.0000
  H   H381      1.0  0.36524  0.40130  0.95013  1.0000
  H   H382      1.0  0.36467  0.43434  0.58534  1.0000
  C   C220      1.0  0.35080  0.53402  0.96022  1.0000
  C   C221      1.0  0.36137  0.42004  0.56376  1.0000
  H   H383      1.0  0.96475  0.50803  0.80802  1.0000
  C   C222      1.0  0.40473  0.38188  0.96270  1.0000
  C   C223      1.0  0.00155  0.49346  0.78263  1.0000
  H   H384      1.0  0.36234  0.36731  0.95198  1.0000
  H   H385      1.0  0.41685  0.39858  0.95382  1.0000
  H   H386      1.0  0.43061  0.38025  0.60564  1.0000
  H   H387      1.0  0.36051  0.48664  0.98577  1.0000
  H   H388      1.0  0.32090  0.31477  0.58178  1.0000
  H   H389      1.0  0.43337  0.54293  0.96835  1.0000
  H   H390      1.0  0.46186  0.42178  0.80387  1.0000
  C   C224      1.0  0.03896  0.62576  0.64113  1.0000
  H   H391      1.0  0.45580  0.42624  0.75561  1.0000
  H   H392      1.0  0.99239  0.60331  0.65731  1.0000
  H   H393      1.0  0.35232  0.36803  0.49522  1.0000
  H   H394      1.0  0.36246  0.39990  0.49742  1.0000
  N   N15       1.0  0.96400  0.46779  0.81703  1.0000
  H   H395      1.0  0.96865  0.45253  0.76279  1.0000
  Fe  Fe31      1.0  0.98154  0.92505  0.03250  1.0000
  S   S62       1.0  0.99193  0.89520  0.07610  1.0000
  C   C225      1.0  0.05953  0.93845  0.09582  1.0000
  S   S63       1.0  0.37065  0.66305  0.16082  1.0000
  Fe  Fe32      1.0  0.32983  0.64330  0.24793  1.0000
  S   S64       1.0  0.34132  0.68297  0.23633  1.0000
  C   C226      1.0  0.13676  0.65577  0.11555  1.0000
  Fe  Fe33      1.0  0.32734  0.67455  0.17958  1.0000
  S   S65       1.0  0.29975  0.70472  0.15439  1.0000
  Fe  Fe34      1.0  0.38294  0.66802  0.21934  1.0000
  S   S66       1.0  0.42170  0.68287  0.24747  1.0000
  Fe  Fe35      1.0  0.11191  0.77173  0.23651  1.0000
  S   S67       1.0  0.11077  0.73050  0.22594  1.0000
  S   S68       1.0  0.12917  0.78624  0.29002  1.0000
  Fe  Fe36      1.0  0.09635  0.78561  0.15822  1.0000
  S   S69       1.0  0.09674  0.74484  0.14261  1.0000
  S   S70       1.0  0.08473  0.81156  0.11029  1.0000
  Fe  Fe37      1.0  0.07229  0.73842  0.19337  1.0000
  S   S71       1.0  0.03866  0.70958  0.18201  1.0000
  Fe  Fe38      1.0  0.13539  0.73974  0.17611  1.0000
  S   S72       1.0  0.16708  0.70862  0.16534  1.0000
  S   S73       1.0  0.07058  0.77933  0.20837  1.0000
  S   S74       1.0  0.13784  0.78110  0.18734  1.0000
  Fe  Fe39      1.0  0.18976  0.72126  0.46919  1.0000
  H   H396      1.0  0.44549  0.64704  0.19117  1.0000
  S   S75       1.0  0.15270  0.72047  0.43052  1.0000
  H   H397      1.0  0.03914  0.93224  0.08513  1.0000
  S   S76       1.0  0.28816  0.70420  0.43388  1.0000
  S   S77       1.0  0.22796  0.74462  0.46236  1.0000
  C   C227      1.0  0.13808  0.76587  0.32619  1.0000
  C   C228      1.0  0.12245  0.74438  0.33362  1.0000
  C   C229      1.0  0.12783  0.73025  0.36510  1.0000
  C   C230      1.0  0.14936  0.73698  0.38896  1.0000
  C   C231      1.0  0.16598  0.75773  0.38054  1.0000
  C   C232      1.0  0.16001  0.77235  0.34964  1.0000
  H   H398      1.0  0.10538  0.73928  0.31597  1.0000
  H   H399      1.0  0.11482  0.71427  0.37138  1.0000
  H   H400      1.0  0.18296  0.76294  0.39823  1.0000
  H   H401      1.0  0.17225  0.78893  0.34405  1.0000
  C   C233      1.0  0.44891  0.69904  0.22538  1.0000
  H   H402      1.0  0.05132  0.93514  0.00814  1.0000
  H   H403      1.0  0.12611  0.79906  0.39968  1.0000
  C   C234      1.0  0.00369  0.71047  0.19644  1.0000
  H   H404      1.0  0.16241  0.77033  0.45589  1.0000
  H   H405      1.0  0.43155  0.69594  0.17187  1.0000
  H   H406      1.0  0.10122  0.94781  0.07877  1.0000
  H   H407      1.0  0.00962  0.73883  0.23705  1.0000
  H   H408      1.0  0.13560  0.89683  0.07301  1.0000
  C   C235      1.0  0.09593  0.62986  0.12821  1.0000
  C   C236      1.0  0.26292  0.70577  0.15900  1.0000
  C   C237      1.0  0.24722  0.68405  0.16474  1.0000
  C   C238      1.0  0.21796  0.68538  0.16665  1.0000
  C   C239      1.0  0.20401  0.70845  0.16343  1.0000
  C   C240      1.0  0.21969  0.73027  0.15835  1.0000
  C   C241      1.0  0.24897  0.72886  0.15578  1.0000
  H   H409      1.0  0.25763  0.66615  0.16700  1.0000
  H   H410      1.0  0.20608  0.66838  0.17053  1.0000
  H   H411      1.0  0.20927  0.74814  0.15567  1.0000
  H   H412      1.0  0.26090  0.74576  0.15111  1.0000
  C   C242      1.0  0.29776  0.65375  0.33428  1.0000
  C   C243      1.0  0.28366  0.64487  0.36505  1.0000
  C   C244      1.0  0.27874  0.66068  0.39493  1.0000
  C   C245      1.0  0.28803  0.68551  0.39433  1.0000
  C   C246      1.0  0.30098  0.69470  0.36294  1.0000
  C   C247      1.0  0.30577  0.67895  0.33302  1.0000
  H   H413      1.0  0.26895  0.65331  0.41908  1.0000
  H   H414      1.0  0.30810  0.71393  0.36225  1.0000
  H   H415      1.0  0.31623  0.68620  0.30938  1.0000
  C   C248      1.0  0.05781  0.83391  0.10148  1.0000
  C   C249      1.0  0.05163  0.84041  0.06533  1.0000
  C   C250      1.0  0.03137  0.85877  0.05694  1.0000
  C   C251      1.0  0.01726  0.87130  0.08470  1.0000
  C   C252      1.0  0.02306  0.86445  0.12082  1.0000
  C   C253      1.0  0.04319  0.84598  0.12919  1.0000
  H   H416      1.0  0.06264  0.83114  0.04359  1.0000
  H   H417      1.0  0.02669  0.86321  0.02901  1.0000
  H   H418      1.0  0.01220  0.87382  0.14259  1.0000
  H   H419      1.0  0.04784  0.84148  0.15712  1.0000
  C   C254      1.0  0.09047  0.89645  0.06157  1.0000
  C   C255      1.0  0.37182  0.67041  0.39002  1.0000
  C   C256      1.0  0.41912  0.65743  0.37427  1.0000
  C   C257      1.0  0.10552  0.79553  0.41198  1.0000
  C   C258      1.0  0.39993  0.69481  0.34548  1.0000
  H   H420      1.0  0.05348  0.68622  0.07211  1.0000
  H   H421      1.0  0.99114  0.68164  0.15891  1.0000
  H   H422      1.0  0.11470  0.91206  0.10753  1.0000
  C   C259      1.0  0.37522  0.71017  0.33086  1.0000
  C   C260      1.0  0.98217  0.80033  0.10541  1.0000
  H   H423      1.0  0.35084  0.67496  0.37943  1.0000
  H   H424      1.0  0.07994  0.67503  0.16361  1.0000
  H   H425      1.0  0.37790  0.70889  0.41101  1.0000
  H   H426      1.0  0.42810  0.66924  0.39614  1.0000
  H   H427      1.0  0.41079  0.70621  0.36638  1.0000
  H   H428      1.0  0.41509  0.69348  0.32282  1.0000
  H   H429      1.0  0.96604  0.81680  0.17219  1.0000
  H   H430      1.0  0.00254  0.80864  0.09727  1.0000
  H   H431      1.0  0.96900  0.78001  0.21550  1.0000
  H   H432      1.0  0.43558  0.65030  0.31864  1.0000
  C   C261      1.0  0.44903  0.70234  0.18785  1.0000
  H   H433      1.0  0.10496  0.68414  0.08031  1.0000
  C   C262      1.0  0.10659  0.77860  0.44581  1.0000
  H   H434      1.0  0.01582  0.76225  0.16611  1.0000
  H   H435      1.0  0.38282  0.72896  0.32243  1.0000
  H   H436      1.0  0.35889  0.71313  0.35152  1.0000
  H   H437      1.0  0.36607  0.70137  0.30643  1.0000
  C   C263      1.0  0.08131  0.94225  0.06559  1.0000
  S   S78       1.0  0.21263  0.68470  0.47568  1.0000
  H   H438      1.0  0.04837  0.66911  0.11311  1.0000
  C   C264      1.0  0.01874  0.75573  0.10932  1.0000
  Fe  Fe40      1.0  0.25103  0.70861  0.47171  1.0000
  H   H439      1.0  0.36930  0.65179  0.40319  1.0000
  H   H440      1.0  0.96821  0.75282  0.16625  1.0000
  H   H441      1.0  0.00656  0.78370  0.21538  1.0000
  H   H442      1.0  0.11597  0.90896  0.00012  1.0000
  C   C265      1.0  0.12016  0.83556  0.47329  1.0000
  H   H443      1.0  0.45439  0.93156  0.14512  1.0000
  H   H444      1.0  0.39238  0.65598  0.30391  1.0000
  C   C266      1.0  0.44292  0.65373  0.34658  1.0000
  C   C267      1.0  0.37796  0.68923  0.42071  1.0000
  C   C268      1.0  0.11047  0.92547  0.01711  1.0000
  H   H445      1.0  0.14528  0.67516  0.11393  1.0000
  C   C269      1.0  0.38054  0.65370  0.32950  1.0000
  C   C270      1.0  0.98436  0.69432  0.17995  1.0000
  H   H446      1.0  0.04234  0.90914  0.03465  1.0000
  H   H447      1.0  0.11067  0.69108  0.15313  1.0000
  H   H448      1.0  0.09317  0.78581  0.39073  1.0000
  H   H449      1.0  0.43172  0.65738  0.13002  1.0000
  C   C271      1.0  0.11519  0.66124  0.19226  1.0000
  C   C272      1.0  0.10862  0.94904  0.99280  1.0000
  C   C273      1.0  0.10212  0.67192  0.15730  1.0000
  N   N16       1.0  0.08550  0.92029  0.04054  1.0000
  H   H450      1.0  0.06579  0.69906  0.11357  1.0000
  C   C274      1.0  0.99480  0.72666  0.22376  1.0000
  N   N17       1.0  0.39286  0.66913  0.35976  1.0000
  N   N18       1.0  0.21723  0.70740  0.28943  1.0000
  C   C275      1.0  0.24629  0.69669  0.29169  1.0000
  C   C276      1.0  0.21032  0.71783  0.32628  1.0000
  C   C277      1.0  0.21751  0.72817  0.26155  1.0000
  C   C278      1.0  0.19789  0.68654  0.27819  1.0000
  C   C279      1.0  0.25947  0.68840  0.25550  1.0000
  C   C280      1.0  0.20950  0.69868  0.35759  1.0000
  C   C281      1.0  0.19417  0.74797  0.26350  1.0000
  C   C282      1.0  0.16642  0.69213  0.27806  1.0000
  H   H451      1.0  0.26085  0.71051  0.30410  1.0000
  H   H452      1.0  0.24684  0.67986  0.30949  1.0000
  H   H453      1.0  0.18993  0.72741  0.32647  1.0000
  H   H454      1.0  0.22556  0.73270  0.33387  1.0000
  H   H455      1.0  0.23731  0.73903  0.26322  1.0000
  H   H456      1.0  0.21699  0.72022  0.23378  1.0000
  H   H457      1.0  0.20268  0.68040  0.25010  1.0000
  H   H458      1.0  0.20141  0.66930  0.29461  1.0000
  H   H459      1.0  0.26291  0.70441  0.23688  1.0000
  H   H460      1.0  0.12932  0.92832  0.03413  1.0000
  H   H461      1.0  0.24725  0.67357  0.24185  1.0000
  H   H462      1.0  0.05848  0.64010  0.16086  1.0000
  H   H463      1.0  0.20348  0.70852  0.38290  1.0000
  H   H464      1.0  0.19375  0.68384  0.35291  1.0000
  H   H465      1.0  0.19532  0.76010  0.23906  1.0000
  H   H466      1.0  0.19691  0.76048  0.28723  1.0000
  H   H467      1.0  0.17305  0.73988  0.26385  1.0000
  H   H468      1.0  0.15981  0.69936  0.25117  1.0000
  H   H469      1.0  0.15960  0.70520  0.29941  1.0000
  C   C283      1.0  0.98642  0.79315  0.21036  1.0000
  H   H470      1.0  0.10750  0.64216  0.19857  1.0000
  N   N19       1.0  0.12474  0.78691  0.47697  1.0000
  C   C284      1.0  0.45935  0.94911  0.15999  1.0000
  H   H471      1.0  0.03013  0.78779  0.14143  1.0000
  H   H472      1.0  0.39773  0.68508  0.43493  1.0000
  H   H473      1.0  0.13824  0.66148  0.19139  1.0000
  C   C285      1.0  0.01298  0.77368  0.14121  1.0000
  N   N20       1.0  0.98494  0.78651  0.14102  1.0000
  C   C286      1.0  0.45039  0.64542  0.13407  1.0000
  C   C287      1.0  0.98483  0.80479  0.17217  1.0000
  H   H474      1.0  0.11284  0.75960  0.43661  1.0000
  H   H475      1.0  0.36102  0.68788  0.44114  1.0000
  H   H476      1.0  0.14848  0.64635  0.13768  1.0000
  H   H477      1.0  0.08870  0.65525  0.06907  1.0000
  H   H478      1.0  0.01828  0.76543  0.08276  1.0000
  C   C288      1.0  0.06319  0.68126  0.09847  1.0000
  H   H479      1.0  0.06672  0.92488  0.11660  1.0000
  H   H480      1.0  0.00248  0.81820  0.16948  1.0000
  H   H481      1.0  0.04000  0.74793  0.11246  1.0000
  H   H482      1.0  0.28024  0.68018  0.26093  1.0000
  H   H483      1.0  0.11519  0.87877  0.10362  1.0000
  H   H484      1.0  0.09371  0.88033  0.04301  1.0000
  H   H485      1.0  0.15727  0.80095  0.44068  1.0000
  C   C289      1.0  0.09168  0.66885  0.09160  1.0000
  C   C290      1.0  0.14544  0.64240  0.08025  1.0000
  H   H486      1.0  0.10912  0.67340  0.21533  1.0000
  H   H487      1.0  0.41494  0.63927  0.38813  1.0000
  C   C291      1.0  0.05953  0.91691  0.01800  1.0000
  H   H488      1.0  0.00439  0.73946  0.10932  1.0000
  H   H489      1.0  0.07187  0.89142  0.07782  1.0000
  H   H490      1.0  0.13208  0.83360  0.44794  1.0000
  C   C292      1.0  0.11551  0.89651  0.08775  1.0000
  H   H491      1.0  0.13195  0.84852  0.49117  1.0000
  H   H492      1.0  0.23014  0.69022  0.36301  1.0000
  N   N21       1.0  0.10593  0.65645  0.12350  1.0000
  H   H493      1.0  0.15481  0.67454  0.28359  1.0000
  H   H494      1.0  0.08454  0.77681  0.45451  1.0000
  H   H495      1.0  0.35937  0.66048  0.32245  1.0000
  H   H496      1.0  0.09462  0.81340  0.41746  1.0000
  H   H497      1.0  0.45681  0.67039  0.34601  1.0000
  H   H498      1.0  0.45531  0.63695  0.35411  1.0000
  S   S79       1.0  0.31380  0.63516  0.19185  1.0000
  H   H499      1.0  0.05602  0.95656  0.10989  1.0000
  H   H500      1.0  0.16835  0.64424  0.07704  1.0000
  H   H501      1.0  0.97645  0.78717  0.08324  1.0000
  C   C293      1.0  0.15465  0.78894  0.46479  1.0000
  C   C294      1.0  0.44785  0.63192  0.17092  1.0000
  H   H502      1.0  0.46087  0.78601  0.07242  1.0000
  H   H503      1.0  0.98476  0.80834  0.23080  1.0000
  H   H504      1.0  0.19628  0.80046  0.48063  1.0000
  H   H505      1.0  0.10035  0.84517  0.46629  1.0000
  H   H506      1.0  0.45112  0.63236  0.11086  1.0000
  H   H507      1.0  0.13588  0.65099  0.05588  1.0000
  H   H508      1.0  0.45918  0.82706  0.04616  1.0000
  H   H509      1.0  0.43982  0.96008  0.16084  1.0000
  S   S80       1.0  0.30577  0.63258  0.29878  1.0000
  H   H510      1.0  0.96876  0.83861  0.11946  1.0000
  C   C295      1.0  0.96667  0.72679  0.23431  1.0000
  H   H511      1.0  0.07470  0.95912  0.04997  1.0000
  S   S81       1.0  0.37240  0.62843  0.23484  1.0000
  C   C296      1.0  0.96286  0.76654  0.14464  1.0000
  H   H512      1.0  0.46226  0.81669  0.11632  1.0000
  H   H513      1.0  0.07025  0.88093  0.99155  1.0000
  Fe  Fe41      1.0  0.32754  0.87839  0.68786  1.0000
  S   S82       1.0  0.33524  0.91184  0.65243  1.0000
  S   S83       1.0  0.31174  0.83947  0.66966  1.0000
  Fe  Fe42      1.0  0.35079  0.90675  0.75592  1.0000
  S   S84       1.0  0.35865  0.94222  0.72468  1.0000
  S   S85       1.0  0.36883  0.89796  0.81171  1.0000
  Fe  Fe43      1.0  0.31687  0.93402  0.69862  1.0000
  H   H514      1.0  0.43516  0.82992  0.53576  1.0000
  Fe  Fe44      1.0  0.37617  0.91702  0.68179  1.0000
  S   S86       1.0  0.41922  0.91919  0.65597  1.0000
  S   S87       1.0  0.30751  0.90026  0.73324  1.0000
  S   S88       1.0  0.36982  0.88180  0.71379  1.0000
  H   H515      1.0  0.38872  0.81785  0.57291  1.0000
  H   H516      1.0  0.40285  0.80916  0.67767  1.0000
  H   H517      1.0  0.37133  0.84280  0.65978  1.0000
  Fe  Fe45      1.0  0.22854  0.74941  0.52322  1.0000
  S   S89       1.0  0.25392  0.71454  0.53223  1.0000
  S   S90       1.0  0.23758  0.78972  0.54352  1.0000
  Fe  Fe46      1.0  0.21272  0.69351  0.53556  1.0000
  S   S91       1.0  0.20588  0.66573  0.58303  1.0000
  S   S92       1.0  0.18740  0.72894  0.52937  1.0000
  H   H518      1.0  0.40086  0.88119  0.58768  1.0000
  N   N22       1.0  0.39986  0.84458  0.61438  1.0000
  H   H519      1.0  0.35290  0.94926  0.83109  1.0000
  C   C297      1.0  0.38668  0.86915  0.60363  1.0000
  H   H520      1.0  0.98066  0.92525  0.84826  1.0000
  H   H521      1.0  0.12019  0.94574  0.96722  1.0000
  H   H522      1.0  0.12215  0.81298  0.52166  1.0000
  C   C298      1.0  0.17543  0.79867  0.49338  1.0000
  H   H523      1.0  0.42845  0.95311  0.83669  1.0000
  C   C299      1.0  0.97486  0.94465  0.85593  1.0000
  H   H524      1.0  0.36037  0.85348  0.55968  1.0000
  H   H525      1.0  0.38220  0.88050  0.62820  1.0000
  C   C300      1.0  0.15716  0.63723  0.57408  1.0000
  C   C301      1.0  0.38006  0.91895  0.84602  1.0000
  C   C302      1.0  0.36845  0.94281  0.85014  1.0000
  H   H526      1.0  0.37008  0.79606  0.66589  1.0000
  H   H527      1.0  0.36000  0.82587  0.62115  1.0000
  C   C303      1.0  0.40815  0.92605  0.90056  1.0000
  C   C304      1.0  0.40006  0.91075  0.87126  1.0000
  H   H528      1.0  0.43402  0.83216  0.64852  1.0000
  H   H529      1.0  0.16961  0.89330  0.73442  1.0000
  H   H530      1.0  0.42317  0.91928  0.92009  1.0000
  H   H531      1.0  0.40901  0.89226  0.86846  1.0000
  C   C305      1.0  0.29296  0.82583  0.63265  1.0000
  C   C306      1.0  0.28327  0.83990  0.60319  1.0000
  C   C307      1.0  0.26705  0.82839  0.57578  1.0000
  C   C308      1.0  0.26061  0.80259  0.57697  1.0000
  C   C309      1.0  0.27105  0.78842  0.60587  1.0000
  C   C310      1.0  0.28698  0.79998  0.63347  1.0000
  H   H532      1.0  0.28777  0.85973  0.60184  1.0000
  H   H533      1.0  0.25918  0.83962  0.55362  1.0000
  H   H534      1.0  0.26626  0.76863  0.60748  1.0000
  H   H535      1.0  0.29435  0.78879  0.65598  1.0000
  C   C311      1.0  0.98510  0.94690  0.65817  1.0000
  C   C312      1.0  0.18668  0.90014  0.71671  1.0000
  C   C313      1.0  0.38855  0.80586  0.65453  1.0000
  H   H536      1.0  0.18003  0.91876  0.70640  1.0000
  H   H537      1.0  0.13615  0.77180  0.52971  1.0000
  C   C314      1.0  0.35920  0.86713  0.58217  1.0000
  C   C315      1.0  0.41896  0.84190  0.54838  1.0000
  C   C316      1.0  0.24355  0.91788  0.62557  1.0000
  H   H538      1.0  0.24292  0.93833  0.61984  1.0000
  H   H539      1.0  0.09764  0.74565  0.54257  1.0000
  H   H540      1.0  0.23844  0.86860  0.74407  1.0000
  H   H541      1.0  0.20736  0.94625  0.76359  1.0000
  H   H542      1.0  0.24307  0.90828  0.59897  1.0000
  H   H543      1.0  0.34167  0.86205  0.60030  1.0000
  H   H544      1.0  0.17286  0.88360  0.66674  1.0000
  C   C317      1.0  0.37600  0.95785  0.88000  1.0000
  C   C318      1.0  0.39568  0.94946  0.90552  1.0000
  C   C319      1.0  0.21434  0.95645  0.73996  1.0000
  H   H545      1.0  0.98582  0.93599  0.78585  1.0000
  H   H546      1.0  0.08300  0.74822  0.49854  1.0000
  H   H547      1.0  0.99627  0.93178  0.64520  1.0000
  H   H548      1.0  0.25618  0.94150  0.74250  1.0000
  H   H549      1.0  0.96672  0.94567  0.74702  1.0000
  C   C320      1.0  0.37883  0.83072  0.63729  1.0000
  C   C321      1.0  0.18108  0.63278  0.63118  1.0000
  H   H550      1.0  0.26365  0.91428  0.63941  1.0000
  C   C322      1.0  0.17935  0.64404  0.59665  1.0000
  H   H551      1.0  0.05971  0.63489  0.64336  1.0000
  H   H552      1.0  0.20552  0.90226  0.73372  1.0000
  N   N23       1.0  0.21786  0.88457  0.66446  1.0000
  C   C323      1.0  0.21826  0.91092  0.64936  1.0000
  C   C324      1.0  0.19105  0.88158  0.68529  1.0000
  C   C325      1.0  0.21766  0.86684  0.63269  1.0000
  C   C326      1.0  0.24352  0.88084  0.68753  1.0000
  H   H553      1.0  0.17801  0.78543  0.51625  1.0000
  C   C327      1.0  0.21585  0.83864  0.64138  1.0000
  C   C328      1.0  0.24230  0.86021  0.71703  1.0000
  H   H554      1.0  0.19911  0.91474  0.63319  1.0000
  H   H555      1.0  0.21816  0.92496  0.67154  1.0000
  H   H556      1.0  0.18879  0.86260  0.69698  1.0000
  H   H557      1.0  0.20003  0.87133  0.61413  1.0000
  H   H558      1.0  0.23682  0.86903  0.61628  1.0000
  H   H559      1.0  0.26196  0.87684  0.67017  1.0000
  H   H560      1.0  0.24856  0.89855  0.70214  1.0000
  S   S93       1.0  0.98077  0.92368  0.97132  1.0000
  H   H561      1.0  0.19798  0.63797  0.64905  1.0000
  C   C329      1.0  0.44437  0.94246  0.66687  1.0000
  H   H562      1.0  0.99216  0.95805  0.85293  1.0000
  H   H563      1.0  0.19715  0.83352  0.65719  1.0000
  H   H564      1.0  0.23501  0.83188  0.65496  1.0000
  H   H565      1.0  0.21437  0.82809  0.61551  1.0000
  H   H566      1.0  0.26313  0.85127  0.71918  1.0000
  H   H567      1.0  0.22740  0.84487  0.71207  1.0000
  H   H568      1.0  0.08266  0.77486  0.52930  1.0000
  C   C330      1.0  0.42491  0.84981  0.63790  1.0000
  C   C331      1.0  0.40741  0.82839  0.58236  1.0000
  H   H569      1.0  0.45994  0.85151  0.59960  1.0000
  H   H570      1.0  0.44353  0.88173  0.60777  1.0000
  H   H571      1.0  0.42287  0.81390  0.59056  1.0000
  H   H572      1.0  0.43518  0.93912  0.79499  1.0000
  H   H573      1.0  0.97064  0.94371  0.88551  1.0000
  H   H574      1.0  0.13387  0.74897  0.49490  1.0000
  H   H575      1.0  0.35406  0.88574  0.57041  1.0000
  H   H576      1.0  0.12942  0.95235  0.85486  1.0000
  H   H577      1.0  0.09091  0.80970  0.49695  1.0000
  H   H578      1.0  0.41868  0.86098  0.66211  1.0000
  H   H579      1.0  0.39823  0.79306  0.63460  1.0000
  C   C332      1.0  0.09492  0.75871  0.51936  1.0000
  C   C333      1.0  0.96440  0.93962  0.77578  1.0000
  C   C334      1.0  0.12393  0.76642  0.50532  1.0000
  H   H580      1.0  0.42878  0.86028  0.55329  1.0000
  H   H581      1.0  0.16982  0.81742  0.50385  1.0000
  H   H582      1.0  0.04137  0.89724  0.97227  1.0000
  C   C335      1.0  0.44948  0.86353  0.61990  1.0000
  H   H583      1.0  0.40246  0.84395  0.52749  1.0000
  C   C336      1.0  0.24199  0.95367  0.72806  1.0000
  H   H584      1.0  0.15545  0.64558  0.54746  1.0000
  H   H585      1.0  0.02634  0.63720  0.62221  1.0000
  H   H586      1.0  0.06831  0.95939  0.86988  1.0000
  H   H587      1.0  0.07557  0.90848  0.96341  1.0000
  H   H588      1.0  0.96316  0.90018  0.76122  1.0000
  C   C337      1.0  0.43859  0.95684  0.81021  1.0000
  C   C338      1.0  0.06230  0.89980  0.98457  1.0000
  H   H589      1.0  0.46168  0.90777  0.81198  1.0000
  H   H590      1.0  0.08719  0.95383  0.98442  1.0000
  C   C339      1.0  0.11389  0.81076  0.49361  1.0000
  C   C340      1.0  0.49985  0.28519  0.06503  1.0000
  C   C341      1.0  0.86342  0.22776  0.38479  1.0000
  H   H591      1.0  0.84456  0.25967  0.26192  1.0000
  Fe  Fe47      1.0  0.86113  0.13302  0.16667  1.0000
  S   S94       1.0  0.85093  0.17091  0.14277  1.0000
  S   S95       1.0  0.87940  0.10755  0.12164  1.0000
  Fe  Fe48      1.0  0.84110  0.15181  0.24223  1.0000
  S   S96       1.0  0.83110  0.19042  0.22222  1.0000
  S   S97       1.0  0.83275  0.14232  0.30155  1.0000
  Fe  Fe49      1.0  0.81136  0.17045  0.17537  1.0000
  S   S98       1.0  0.76749  0.17681  0.15333  1.0000
  Fe  Fe50      1.0  0.87172  0.18706  0.19205  1.0000
  S   S99       1.0  0.90201  0.21977  0.18719  1.0000
  S   S100      1.0  0.81988  0.13154  0.19624  1.0000
  S   S101      1.0  0.88340  0.14966  0.21508  1.0000
  Fe  Fe51      1.0  0.47211  0.00117  0.03039  1.0000
  S   S102      1.0  0.60286  0.24061  0.23534  1.0000
  H   H592      1.0  0.86376  0.00166  0.09024  1.0000
  S   S103      1.0  0.59848  0.26595  0.15473  1.0000
  Fe  Fe52      1.0  0.56928  0.24657  0.19353  1.0000
  S   S104      1.0  0.54013  0.21555  0.17448  1.0000
  Fe  Fe53      1.0  0.63067  0.26351  0.19925  1.0000
  S   S105      1.0  0.67811  0.25904  0.20110  1.0000
  H   H593      1.0  0.71543  0.20080  0.37507  1.0000
  N   N24       1.0  0.88275  0.22016  0.32004  1.0000
  H   H594      1.0  0.92988  0.02829  0.14831  1.0000
  S   S106      1.0  0.70292  0.19147  0.46192  1.0000
  S   S107      1.0  0.64436  0.24565  0.46170  1.0000
  Fe  Fe54      1.0  0.74410  0.21183  0.46191  1.0000
  S   S108      1.0  0.77213  0.21616  0.41197  1.0000
  H   H595      1.0  0.54925  0.24430  0.09945  1.0000
  C   C342      1.0  0.95470  0.23959  0.19015  1.0000
  C   C343      1.0  0.62663  0.25763  0.35335  1.0000
  C   C344      1.0  0.64067  0.24975  0.38538  1.0000
  C   C345      1.0  0.62919  0.25483  0.41968  1.0000
  H   H596      1.0  0.92366  0.20778  0.10767  1.0000
  H   H597      1.0  0.55642  0.22922  0.39963  1.0000
  H   H598      1.0  0.63546  0.25378  0.32702  1.0000
  H   H599      1.0  0.66018  0.23976  0.38361  1.0000
  H   H600      1.0  0.51901  0.00186  0.19584  1.0000
  H   H601      1.0  0.69074  0.17535  0.37031  1.0000
  C   C346      1.0  0.93781  0.21890  0.19869  1.0000
  N   N25       1.0  0.51299  0.26791  0.09258  1.0000
  C   C347      1.0  0.49257  0.23333  0.20813  1.0000
  C   C348      1.0  0.50498  0.21375  0.18897  1.0000
  C   C349      1.0  0.48896  0.19250  0.18042  1.0000
  H   H602      1.0  0.84803  0.04011  0.03166  1.0000
  H   H603      1.0  0.47295  0.25215  0.10799  1.0000
  H   H604      1.0  0.50441  0.24996  0.21431  1.0000
  H   H605      1.0  0.49829  0.17732  0.16531  1.0000
  H   H606      1.0  0.93701  0.18223  0.22292  1.0000
  C   C350      1.0  0.74276  0.19945  0.16777  1.0000
  C   C351      1.0  0.71459  0.19640  0.15817  1.0000
  C   C352      1.0  0.69437  0.21421  0.16846  1.0000
  C   C353      1.0  0.70225  0.23554  0.18791  1.0000
  C   C354      1.0  0.73042  0.23857  0.19746  1.0000
  C   C355      1.0  0.75052  0.22053  0.18785  1.0000
  H   H607      1.0  0.70839  0.18020  0.14253  1.0000
  H   H608      1.0  0.67283  0.21167  0.16078  1.0000
  H   H609      1.0  0.73676  0.25510  0.21228  1.0000
  H   H610      1.0  0.77210  0.22324  0.19517  1.0000
  C   C356      1.0  0.81296  0.16186  0.33084  1.0000
  C   C357      1.0  0.80609  0.15347  0.36586  1.0000
  C   C358      1.0  0.79247  0.16942  0.39072  1.0000
  C   C359      1.0  0.78649  0.19422  0.38114  1.0000
  C   C360      1.0  0.79333  0.20252  0.34613  1.0000
  C   C361      1.0  0.80557  0.18622  0.32078  1.0000
  H   H611      1.0  0.81159  0.13463  0.37398  1.0000
  H   H612      1.0  0.78750  0.16278  0.41765  1.0000
  H   H613      1.0  0.78892  0.22169  0.33849  1.0000
  H   H614      1.0  0.81008  0.19278  0.29382  1.0000
  C   C362      1.0  0.92967  0.03618  0.09103  1.0000
  C   C363      1.0  0.92096  0.05338  0.06465  1.0000
  C   C364      1.0  0.90536  0.07477  0.07457  1.0000
  C   C365      1.0  0.89862  0.07971  0.11104  1.0000
  C   C366      1.0  0.90784  0.06283  0.13751  1.0000
  C   C367      1.0  0.92317  0.04126  0.12753  1.0000
  H   H615      1.0  0.92608  0.05011  0.03654  1.0000
  H   H616      1.0  0.89853  0.08770  0.05379  1.0000
  H   H617      1.0  0.90301  0.06628  0.16567  1.0000
  H   H618      1.0  0.49385  0.28381  0.31274  1.0000
  H   H619      1.0  0.46302  0.97963  0.21782  1.0000
  H   H620      1.0  0.89031  0.19792  0.36853  1.0000
  C   C368      1.0  0.94977  0.19821  0.21601  1.0000
  H   H621      1.0  0.88082  0.26337  0.26940  1.0000
  H   H622      1.0  0.92243  0.22493  0.34684  1.0000
  C   C369      1.0  0.48464  0.98521  0.22380  1.0000
  C   C370      1.0  0.51745  0.28015  0.12894  1.0000
  H   H623      1.0  0.89767  0.16608  0.32764  1.0000
  C   C371      1.0  0.91910  0.18915  0.09564  1.0000
  C   C372      1.0  0.85917  0.98350  0.07657  1.0000
  H   H624      1.0  0.89610  0.18858  0.09283  1.0000
  C   C373      1.0  0.95059  0.13349  0.08657  1.0000
  H   H625      1.0  0.53767  0.24693  0.05380  1.0000
  H   H626      1.0  0.52191  0.21719  0.40165  1.0000
  C   C374      1.0  0.46472  0.23138  0.21956  1.0000
  C   C375      1.0  0.59021  0.27569  0.39003  1.0000
  H   H627      1.0  0.47691  0.28592  0.06933  1.0000
  H   H628      1.0  0.50195  0.23355  0.12055  1.0000
  H   H629      1.0  0.90343  0.98920  0.03000  1.0000
  C   C376      1.0  0.87335  0.20904  0.35572  1.0000
  H   H630      1.0  0.91094  0.15417  0.12326  1.0000
  H   H631      1.0  0.81114  0.03661  0.03103  1.0000
  C   C377      1.0  0.46726  0.00562  0.15268  1.0000
  H   H632      1.0  0.92953  0.17656  0.14893  1.0000
  C   C378      1.0  0.94910  0.12250  0.16521  1.0000
  H   H633      1.0  0.88743  0.01760  0.04224  1.0000
  C   C379      1.0  0.50470  0.98576  0.19099  1.0000
  S   S109      1.0  0.46735  0.03860  0.06156  1.0000
  H   H634      1.0  0.48457  0.00363  0.23778  1.0000
  H   H635      1.0  0.91186  0.16570  0.28318  1.0000
  H   H636      1.0  0.66733  0.20448  0.24600  1.0000
  H   H637      1.0  0.54715  0.22289  0.25503  1.0000
  H   H638      1.0  0.91675  0.14741  0.05193  1.0000
  H   H639      1.0  0.82986  0.02803  0.07087  1.0000
  C   C380      1.0  0.88645  0.19862  0.29405  1.0000
  H   H640      1.0  0.89325  0.20484  0.26687  1.0000
  H   H641      1.0  0.70046  0.23503  0.33856  1.0000
  H   H642      1.0  0.67469  0.23158  0.27406  1.0000
  H   H643      1.0  0.72524  0.16965  0.38582  1.0000
  H   H644      1.0  0.56501  0.20292  0.28738  1.0000
  H   H645      1.0  0.86703  0.23544  0.24732  1.0000
  S   S110      1.0  0.51189  0.97801  0.02892  1.0000
  H   H646      1.0  0.95676  0.11906  0.19317  1.0000
  H   H647      1.0  0.92748  0.18820  0.06789  1.0000
  C   C381      1.0  0.86385  0.24931  0.26913  1.0000
  H   H648      1.0  0.52335  0.27809  0.34155  1.0000
  N   N26       1.0  0.51472  0.22163  0.32163  1.0000
  C   C382      1.0  0.51891  0.20268  0.29175  1.0000
  C   C383      1.0  0.56325  0.27701  0.07028  1.0000
  C   C384      1.0  0.53960  0.22007  0.34669  1.0000
  C   C385      1.0  0.51275  0.24726  0.30457  1.0000
  C   C386      1.0  0.54624  0.20500  0.27016  1.0000
  H   H649      1.0  0.92700  0.18604  0.31621  1.0000
  C   C387      1.0  0.53586  0.22962  0.38578  1.0000
  H   H650      1.0  0.93853  0.25755  0.29544  1.0000
  H   H651      1.0  0.51811  0.18322  0.30274  1.0000
  H   H652      1.0  0.50197  0.20378  0.27130  1.0000
  H   H653      1.0  0.93738  0.12337  0.03244  1.0000
  H   H654      1.0  0.50286  0.27762  0.03722  1.0000
  H   H655      1.0  0.54671  0.20027  0.34957  1.0000
  H   H656      1.0  0.55766  0.23045  0.33511  1.0000
  H   H657      1.0  0.53302  0.25269  0.29237  1.0000
  H   H658      1.0  0.49837  0.24729  0.28101  1.0000
  H   H659      1.0  0.54700  0.18982  0.24961  1.0000
  C   C388      1.0  0.93847  0.14056  0.04936  1.0000
  N   N27       1.0  0.49175  0.98795  0.15384  1.0000
  H   H660      1.0  0.55784  0.28816  0.04592  1.0000
  C   C389      1.0  0.92847  0.23887  0.29317  1.0000
  S   S111      1.0  0.94845  0.00809  0.08024  1.0000
  H   H661      1.0  0.94561  0.25572  0.17685  1.0000
  S   S112      1.0  0.72594  0.24942  0.47757  1.0000
  C   C390      1.0  0.50461  0.26934  0.32929  1.0000
  C   C391      1.0  0.85986  0.23715  0.30656  1.0000
  N   N28       1.0  0.71161  0.19223  0.29775  1.0000
  C   C392      1.0  0.71652  0.17865  0.26239  1.0000
  C   C393      1.0  0.68059  0.19526  0.30201  1.0000
  C   C394      1.0  0.72300  0.17595  0.32781  1.0000
  C   C395      1.0  0.72664  0.21700  0.29579  1.0000
  C   C396      1.0  0.74684  0.17050  0.25471  1.0000
  C   C397      1.0  0.66624  0.21223  0.27381  1.0000
  C   C398      1.0  0.71274  0.18113  0.36664  1.0000
  C   C399      1.0  0.72139  0.23607  0.32643  1.0000
  H   H662      1.0  0.70345  0.16142  0.26077  1.0000
  H   H663      1.0  0.71021  0.19041  0.23892  1.0000
  H   H664      1.0  0.67490  0.20303  0.32880  1.0000
  H   H665      1.0  0.67016  0.17661  0.30115  1.0000
  H   H666      1.0  0.71805  0.15585  0.32263  1.0000
  H   H667      1.0  0.74605  0.17702  0.32861  1.0000
  H   H668      1.0  0.74950  0.21402  0.29517  1.0000
  H   H669      1.0  0.72239  0.22671  0.26967  1.0000
  H   H670      1.0  0.76113  0.18672  0.25239  1.0000
  H   H671      1.0  0.75493  0.15703  0.27504  1.0000
  H   H672      1.0  0.74746  0.16071  0.22818  1.0000
  H   H673      1.0  0.64385  0.21368  0.28079  1.0000
  C   C400      1.0  0.83075  0.02791  0.04085  1.0000
  H   H674      1.0  0.48518  0.03438  0.18924  1.0000
  H   H675      1.0  0.48967  0.26446  0.35082  1.0000
  C   C401      1.0  0.48822  0.22878  0.06569  1.0000
  H   H676      1.0  0.81395  0.99088  0.03509  1.0000
  C   C402      1.0  0.47355  0.03299  0.16343  1.0000
  Fe  Fe55      1.0  0.68550  0.22845  0.47993  1.0000
  H   H677      1.0  0.93565  0.11966  0.09769  1.0000
  C   C403      1.0  0.54042  0.25772  0.07924  1.0000
  N   N29       1.0  0.95531  0.15462  0.11296  1.0000
  H   H678      1.0  0.95151  0.15418  0.03442  1.0000
  H   H679      1.0  0.85607  0.19546  0.35152  1.0000
  H   H680      1.0  0.91804  0.23855  0.26655  1.0000
  H   H681      1.0  0.86611  0.18918  0.28917  1.0000
  H   H682      1.0  0.92687  0.12767  0.16725  1.0000
  H   H683      1.0  0.85655  0.25311  0.32541  1.0000
  H   H684      1.0  0.50387  0.00204  0.10096  1.0000
  H   H685      1.0  0.84253  0.23539  0.37811  1.0000
  C   C404      1.0  0.49104  0.29008  0.14781  1.0000
  H   H686      1.0  0.72279  0.25535  0.31518  1.0000
  H   H687      1.0  0.95107  0.10449  0.15041  1.0000
  C   C405      1.0  0.49379  0.24584  0.09865  1.0000
  C   C406      1.0  0.92834  0.16788  0.12160  1.0000
  H   H688      1.0  0.50648  0.21681  0.05948  1.0000
  C   C407      1.0  0.83285  0.00103  0.02561  1.0000
  C   C408      1.0  0.60126  0.27075  0.35574  1.0000
  H   H689      1.0  0.53403  0.96456  0.10547  1.0000
  H   H690      1.0  0.90225  0.97061  0.08487  1.0000
  N   N30       1.0  0.85871  0.98678  0.03594  1.0000
  C   C409      1.0  0.48843  0.21430  0.34130  1.0000
  H   H691      1.0  0.83841  0.97797  0.08720  1.0000
  H   H692      1.0  0.58278  0.26683  0.06381  1.0000
  C   C410      1.0  0.90706  0.17815  0.30639  1.0000
  H   H693      1.0  0.49040  0.19488  0.35220  1.0000
  H   H694      1.0  0.52839  0.24915  0.38702  1.0000
  Fe  Fe56      1.0  0.58885  0.27748  0.25726  1.0000
  C   C411      1.0  0.60390  0.26774  0.42151  1.0000
  H   H695      1.0  0.47781  0.27460  0.15808  1.0000
  H   H696      1.0  0.52746  0.26668  0.14796  1.0000
  H   H697      1.0  0.87845  0.24323  0.38904  1.0000
  H   H698      1.0  0.90457  0.25342  0.33818  1.0000
  H   H699      1.0  0.73726  0.23419  0.34814  1.0000
  C   C412      1.0  0.90930  0.23471  0.32635  1.0000
  H   H700      1.0  0.86101  0.21770  0.41099  1.0000
  H   H701      1.0  0.83979  0.22683  0.30564  1.0000
  H   H702      1.0  0.56825  0.28955  0.09320  1.0000
  C   C413      1.0  0.51333  0.99817  0.12796  1.0000
  H   H703      1.0  0.48471  0.22606  0.36549  1.0000
  S   S113      1.0  0.55297  0.28207  0.21795  1.0000
  H   H704      1.0  0.59477  0.27177  0.44763  1.0000
  H   H705      1.0  0.48515  0.04293  0.14175  1.0000
  C   C414      1.0  0.88460  0.00080  0.02506  1.0000
  H   H706      1.0  0.52153  0.01651  0.13753  1.0000
  H   H707      1.0  0.54954  0.97604  0.14715  1.0000
  H   H708      1.0  0.94586  0.22515  0.29312  1.0000
  H   H709      1.0  0.55457  0.99225  0.10527  1.0000
  H   H710      1.0  0.83050  0.00205  0.99564  1.0000
  C   C415      1.0  0.88073  0.96475  0.09143  1.0000
  H   H711      1.0  0.87926  0.96430  0.12145  1.0000
  H   H712      1.0  0.48177  0.23944  0.04134  1.0000
  S   S114      1.0  0.58157  0.28142  0.31784  1.0000
  C   C416      1.0  0.53917  0.98153  0.12153  1.0000
  H   H713      1.0  0.57079  0.28580  0.39234  1.0000
  H   H714      1.0  0.49261  0.97157  0.24408  1.0000
  Fe  Fe57      1.0  0.96127  0.98087  0.03429  1.0000
  H   H715      1.0  0.47097  0.21572  0.07250  1.0000
  H   H716      1.0  0.47653  0.96412  0.11083  1.0000
  H   H717      1.0  0.51802  0.96870  0.19262  1.0000
  C   C417      1.0  0.48298  0.96262  0.13976  1.0000
  C   C418      1.0  0.85843  0.96199  0.01647  1.0000
  Fe  Fe58      1.0  0.55645  0.00914  0.68594  1.0000
  S   S115      1.0  0.56811  0.04740  0.70666  1.0000
  S   S116      1.0  0.50895  0.00508  0.68652  1.0000
  Fe  Fe59      1.0  0.61817  0.99339  0.68737  1.0000
  S   S117      1.0  0.63287  0.03037  0.70928  1.0000
  H   H718      1.0  0.63657  0.11049  0.80929  1.0000
  Fe  Fe60      1.0  0.59550  0.02724  0.74596  1.0000
  S   S118      1.0  0.59477  0.03826  0.80546  1.0000
  Fe  Fe61      1.0  0.60415  0.04733  0.66752  1.0000
  S   S119      1.0  0.61069  0.08440  0.63613  1.0000
  S   S120      1.0  0.58278  0.98920  0.72703  1.0000
  S   S121      1.0  0.59065  0.01022  0.64365  1.0000
  H   H719      1.0  0.67257  0.00400  0.88269  1.0000
  H   H720      1.0  0.52072  0.96778  0.74781  1.0000
  C   C419      1.0  0.66859  0.28221  0.58538  1.0000
  Fe  Fe62      1.0  0.73286  0.23803  0.53561  1.0000
  S   S122      1.0  0.75382  0.20171  0.52007  1.0000
  C   C420      1.0  0.64361  0.98144  0.84916  1.0000
  Fe  Fe63      1.0  0.71080  0.18400  0.52159  1.0000
  S   S123      1.0  0.70586  0.14562  0.55026  1.0000
  S   S124      1.0  0.69050  0.21975  0.53955  1.0000
  C   C421      1.0  0.54819  0.98887  0.88815  1.0000
  C   C422      1.0  0.55821  0.97869  0.85562  1.0000
  C   C423      1.0  0.57123  0.99390  0.82954  1.0000
  C   C424      1.0  0.57532  0.01943  0.83611  1.0000
  C   C425      1.0  0.56545  0.02968  0.86876  1.0000
  C   C426      1.0  0.55152  0.01456  0.89445  1.0000
  H   H721      1.0  0.59924  0.12329  0.77425  1.0000
  H   H722      1.0  0.57885  0.98562  0.80485  1.0000
  H   H723      1.0  0.56867  0.04937  0.87429  1.0000
  H   H724      1.0  0.54415  0.02261  0.91954  1.0000
  C   C427      1.0  0.67895  0.12906  0.57406  1.0000
  C   C428      1.0  0.65216  0.13881  0.57893  1.0000
  C   C429      1.0  0.63166  0.12480  0.59766  1.0000
  C   C430      1.0  0.63749  0.10083  0.61190  1.0000
  C   C431      1.0  0.66434  0.09116  0.60733  1.0000
  C   C432      1.0  0.68482  0.10517  0.58859  1.0000
  H   H725      1.0  0.64715  0.15707  0.56797  1.0000
  H   H726      1.0  0.61104  0.13257  0.60091  1.0000
  H   H727      1.0  0.66930  0.07279  0.61790  1.0000
  H   H728      1.0  0.70538  0.09732  0.58501  1.0000
  C   C433      1.0  0.72431  0.98209  0.71465  1.0000
  C   C434      1.0  0.69617  0.98255  0.70405  1.0000
  H   H729      1.0  0.68316  0.11327  0.69834  1.0000
  H   H730      1.0  0.73417  0.99912  0.72402  1.0000
  H   H731      1.0  0.68456  0.99984  0.70527  1.0000
  C   C435      1.0  0.68319  0.08042  0.73036  1.0000
  H   H732      1.0  0.66959  0.06697  0.74466  1.0000
  H   H733      1.0  0.66470  0.14286  0.66360  1.0000
  H   H734      1.0  0.66934  0.12480  0.81809  1.0000
  H   H735      1.0  0.58243  0.09348  0.76823  1.0000
  H   H736      1.0  0.58192  0.11576  0.73210  1.0000
  H   H737      1.0  0.51984  0.98610  0.78807  1.0000
  H   H738      1.0  0.66824  0.09519  0.79593  1.0000
  H   H739      1.0  0.76083  0.28165  0.65516  1.0000
  H   H740      1.0  0.65400  0.02320  0.78311  1.0000
  H   H741      1.0  0.69839  0.99795  0.83194  1.0000
  H   H742      1.0  0.91455  0.00305  0.79857  1.0000
  S   S125      1.0  0.46782  0.99979  0.96959  1.0000
  H   H743      1.0  0.49661  0.98783  0.84268  1.0000
  C   C436      1.0  0.47430  0.98621  0.83478  1.0000
  H   H744      1.0  0.69593  0.06934  0.71104  1.0000
  H   H745      1.0  0.47062  0.00285  0.81726  1.0000
  H   H746      1.0  0.64229  0.99293  0.90544  1.0000
  H   H747      1.0  0.62846  0.98751  0.78246  1.0000
  C   C437      1.0  0.65835  0.98774  0.88514  1.0000
  H   H748      1.0  0.68598  0.03646  0.79845  1.0000
  Fe  Fe64      1.0  0.50426  0.97369  0.96865  1.0000
  C   C438      1.0  0.68241  0.99667  0.81017  1.0000
  H   H749      1.0  0.62950  0.99736  0.84281  1.0000
  S   S126      1.0  0.90390  0.96566  0.67755  1.0000
  H   H750      1.0  0.93940  0.96887  0.85306  1.0000
  H   H751      1.0  0.65611  0.97367  0.75902  1.0000
  H   H752      1.0  0.94424  0.00214  0.69987  1.0000
  H   H753      1.0  0.64578  0.24979  0.60443  1.0000
  H   H754      1.0  0.62946  0.96543  0.85498  1.0000
  N   N31       1.0  0.66224  0.97563  0.81743  1.0000
  H   H755      1.0  0.86958  0.02300  0.97816  1.0000
  C   C439      1.0  0.90405  0.98458  0.79984  1.0000
  S   S127      1.0  0.74644  0.26146  0.58545  1.0000
  C   C440      1.0  0.64253  0.26542  0.58497  1.0000
  H   H756      1.0  0.65934  0.02963  0.83064  1.0000
  H   H757      1.0  0.46424  0.00724  0.88340  1.0000
  H   H758      1.0  0.88605  0.99362  0.96605  1.0000
  C   C441      1.0  0.48498  0.98015  0.67947  1.0000
  H   H759      1.0  0.69798  0.08929  0.74955  1.0000
  S   S128      1.0  0.53333  0.96815  0.92037  1.0000
  N   N32       1.0  0.64462  0.11447  0.72928  1.0000
  C   C442      1.0  0.63225  0.13361  0.70368  1.0000
  C   C443      1.0  0.62180  0.09631  0.73930  1.0000
  C   C444      1.0  0.66693  0.10039  0.70896  1.0000
  C   C445      1.0  0.65664  0.12802  0.76166  1.0000
  C   C446      1.0  0.65291  0.15202  0.68581  1.0000
  C   C447      1.0  0.59497  0.10819  0.75445  1.0000
  C   C448      1.0  0.65766  0.11349  0.79791  1.0000
  H   H760      1.0  0.62060  0.12430  0.68144  1.0000
  H   H761      1.0  0.61659  0.14543  0.71779  1.0000
  H   H762      1.0  0.62889  0.08214  0.75928  1.0000
  H   H763      1.0  0.61545  0.08517  0.71517  1.0000
  H   H764      1.0  0.65783  0.09100  0.68479  1.0000
  H   H765      1.0  0.67818  0.13454  0.75571  1.0000
  H   H766      1.0  0.64474  0.14546  0.76756  1.0000
  H   H767      1.0  0.64107  0.16754  0.67293  1.0000
  H   H768      1.0  0.66752  0.16041  0.70563  1.0000
  C   C449      1.0  0.66935  0.02285  0.80545  1.0000
  C   C450      1.0  0.95564  0.98643  0.68888  1.0000
  C   C451      1.0  0.88623  0.00953  0.98526  1.0000
  H   H769      1.0  0.69450  0.99289  0.78503  1.0000
  H   H770      1.0  0.89844  0.98015  0.82827  1.0000
  H   H771      1.0  0.63872  0.25654  0.55830  1.0000
  C   C452      1.0  0.94096  0.96506  0.67720  1.0000
  H   H772      1.0  0.90633  0.01944  0.98118  1.0000
  H   H773      1.0  0.88417  0.98638  0.78463  1.0000
  H   H774      1.0  0.66998  0.28951  0.61351  1.0000
  H   H775      1.0  0.64781  0.28324  0.51524  1.0000
  C   C453      1.0  0.76481  0.28940  0.59809  1.0000
  H   H776      1.0  0.96171  0.03490  0.62378  1.0000
  N   N33       1.0  0.46921  0.96206  0.81458  1.0000
  H   H777      1.0  0.47300  0.98040  0.76251  1.0000
  H   H778      1.0  0.95719  0.99574  0.77000  1.0000
  H   H779      1.0  0.92211  0.96689  0.75288  1.0000
  H   H780      1.0  0.68691  0.26965  0.58188  1.0000
  H   H781      1.0  0.66966  0.97137  0.89635  1.0000
  H   H782      1.0  0.68358  0.27723  0.51723  1.0000
  H   H783      1.0  0.62391  0.27574  0.59443  1.0000
  C   C454      1.0  0.92141  0.96338  0.78259  1.0000
  H   H784      1.0  0.85711  0.96492  0.98668  1.0000
  C   C455      1.0  0.64400  0.97212  0.78451  1.0000
  S   S129      1.0  0.96069  0.98380  0.97319  1.0000
  C   C456      1.0  0.48192  0.96412  0.77741  1.0000
  C   C457      1.0  0.51373  0.96773  0.77649  1.0000
  C   C458      1.0  0.66799  0.29247  0.52046  1.0000
  S   S130      1.0  0.61742  0.30069  0.22273  1.0000
  H   H785      1.0  0.89817  0.52341  0.23929  1.0000
  S   S131      1.0  0.93655  0.45947  0.04389  1.0000
  H   H786      1.0  0.87662  0.35110  0.03438  1.0000
  S   S132      1.0  0.57475  0.33452  0.14083  1.0000
  C   C459      1.0  0.54822  0.35511  0.12374  1.0000
  C   C460      1.0  0.52099  0.35533  0.13728  1.0000
  C   C461      1.0  0.50071  0.37153  0.12213  1.0000
  C   C462      1.0  0.50723  0.38797  0.09339  1.0000
  C   C463      1.0  0.53444  0.38774  0.07985  1.0000
  C   C464      1.0  0.55467  0.37146  0.09489  1.0000
  H   H787      1.0  0.51566  0.34325  0.15971  1.0000
  H   H788      1.0  0.48724  0.56184  0.18841  1.0000
  H   H789      1.0  0.53998  0.40018  0.05785  1.0000
  H   H790      1.0  0.57559  0.37160  0.08411  1.0000
  S   S133      1.0  0.50607  0.47349  0.02513  1.0000
  H   H791      1.0  0.49401  0.32521  0.07746  1.0000
  N   N34       1.0  0.91136  0.37497  0.02068  1.0000
  C   C465      1.0  0.82710  0.58330  0.22135  1.0000
  S   S134      1.0  0.86187  0.60541  0.13362  1.0000
  H   H792      1.0  0.84113  0.52816  0.18596  1.0000
  H   H793      1.0  0.88160  0.58473  0.20090  1.0000
  C   C466      1.0  0.78345  0.60396  0.11345  1.0000
  C   C467      1.0  0.92996  0.55047  0.09076  1.0000
  C   C468      1.0  0.90232  0.54914  0.07868  1.0000
  C   C469      1.0  0.88208  0.56622  0.09177  1.0000
  C   C470      1.0  0.88893  0.58502  0.11714  1.0000
  C   C471      1.0  0.91654  0.58637  0.12924  1.0000
  C   C472      1.0  0.93677  0.56929  0.11615  1.0000
  H   H794      1.0  0.89654  0.53494  0.05919  1.0000
  H   H795      1.0  0.86090  0.56479  0.08208  1.0000
  H   H796      1.0  0.92239  0.60061  0.14863  1.0000
  C   C473      1.0  0.92328  0.36240  0.08688  1.0000
  H   H797      1.0  0.47485  0.36178  0.01251  1.0000
  H   H798      1.0  0.83846  0.51007  0.26471  1.0000
  H   H799      1.0  0.91959  0.36890  0.11504  1.0000
  H   H800      1.0  0.85447  0.49681  0.22469  1.0000
  H   H801      1.0  0.85556  0.38851  0.01412  1.0000
  H   H802      1.0  0.92260  0.39991  0.06481  1.0000
  H   H803      1.0  0.91324  0.34380  0.08414  1.0000
  C   C474      1.0  0.83940  0.55986  0.23981  1.0000
  H   H804      1.0  0.86937  0.49181  0.26832  1.0000
  H   H805      1.0  0.82275  0.54539  0.23878  1.0000
  H   H806      1.0  0.95120  0.35604  0.02602  1.0000
  H   H807      1.0  0.84207  0.56428  0.26908  1.0000
  H   H808      1.0  0.95799  0.57069  0.12575  1.0000
  H   H809      1.0  0.91301  0.41377  0.00361  1.0000
  H   H810      1.0  0.51149  0.31940  0.03622  1.0000
  H   H811      1.0  0.87692  0.59295  0.26926  1.0000
  H   H812      1.0  0.90277  0.53684  0.16428  1.0000
  C   C475      1.0  0.88373  0.52541  0.16780  1.0000
  H   H813      1.0  0.80022  0.59047  0.12053  1.0000
  H   H814      1.0  0.90773  0.56257  0.21045  1.0000
  H   H815      1.0  0.88954  0.38542  0.06993  1.0000
  H   H816      1.0  0.76787  0.59326  0.09770  1.0000
  H   H817      1.0  0.84085  0.59975  0.22446  1.0000
  H   H818      1.0  0.88899  0.50788  0.18233  1.0000
  H   H819      1.0  0.51140  0.57601  0.15650  1.0000
  C   C476      1.0  0.91113  0.38197  0.06035  1.0000
  H   H820      1.0  0.80831  0.61727  0.06895  1.0000
  S   S135      1.0  0.95665  0.52915  0.07575  1.0000
  N   N35       1.0  0.86606  0.54993  0.22374  1.0000
  C   C477      1.0  0.87701  0.52943  0.24797  1.0000
  C   C478      1.0  0.88781  0.57023  0.22097  1.0000
  C   C479      1.0  0.86003  0.54022  0.18618  1.0000
  H   H821      1.0  0.48488  0.55528  0.14121  1.0000
  C   C480      1.0  0.85850  0.50587  0.25116  1.0000
  C   C481      1.0  0.89518  0.58378  0.25663  1.0000
  H   H822      1.0  0.66590  0.30224  0.46332  1.0000
  H   H823      1.0  0.91044  0.59887  0.25059  1.0000
  H   H824      1.0  0.47866  0.30254  0.13004  1.0000
  H   H825      1.0  0.87971  0.53640  0.27614  1.0000
  H   H826      1.0  0.90752  0.33456  0.02309  1.0000
  H   H827      1.0  0.90534  0.57110  0.27640  1.0000
  C   C482      1.0  0.94135  0.37124  0.00992  1.0000
  H   H828      1.0  0.85498  0.55594  0.16752  1.0000
  H   H829      1.0  0.87689  0.51987  0.14018  1.0000
  H   H830      1.0  0.47220  0.59804  0.12621  1.0000
  S   S136      1.0  0.48043  0.40784  0.07522  1.0000
  C   C483      1.0  0.46779  0.60418  0.21844  1.0000
  H   H831      1.0  0.82262  0.58028  0.19224  1.0000
  H   H832      1.0  0.47986  0.37154  0.13311  1.0000
  H   H833      1.0  0.80713  0.58826  0.23472  1.0000
  N   N36       1.0  0.47125  0.61416  0.18034  1.0000
  H   H834      1.0  0.48756  0.59562  0.22823  1.0000
  H   H835      1.0  0.69489  0.31588  0.48610  1.0000
  Fe  Fe65      1.0  0.47823  0.43969  0.03252  1.0000
  H   H836      1.0  0.51617  0.61275  0.18430  1.0000
  H   H837      1.0  0.74334  0.61976  0.06673  1.0000
  C   C484      1.0  0.49956  0.62587  0.17533  1.0000
  H   H838      1.0  0.86976  0.41625  0.03558  1.0000
  H   H839      1.0  0.94614  0.36054  0.08415  1.0000
  C   C485      1.0  0.48951  0.57033  0.16117  1.0000
  H   H840      1.0  0.77471  0.61040  0.13956  1.0000
  H   H841      1.0  0.53019  0.31634  0.07728  1.0000
  C   C486      1.0  0.46898  0.59216  0.15477  1.0000
  Fe  Fe66      1.0  0.58306  0.30169  0.18067  1.0000
  C   C487      1.0  0.89474  0.35120  0.01556  1.0000
  C   C488      1.0  0.50975  0.31282  0.06469  1.0000
  C   C489      1.0  0.89953  0.39696  0.00005  1.0000
  H   H842      1.0  0.95361  0.38845  0.01585  1.0000
  C   C490      1.0  0.86966  0.40473  0.01057  1.0000
  C   C491      1.0  0.67251  0.31118  0.48915  1.0000
  H   H843      1.0  0.49733  0.30115  0.17194  1.0000
  Fe  Fe67      1.0  0.46631  0.49657  0.02289  1.0000
  H   H844      1.0  0.76599  0.62481  0.03048  1.0000
  C   C492      1.0  0.79654  0.62570  0.09193  1.0000
  H   H845      1.0  0.53226  0.29597  0.12762  1.0000
  Fe  Fe68      1.0  0.96155  0.49489  0.03717  1.0000
  Fe  Fe69      1.0  0.82375  0.38923  0.68043  1.0000
  S   S137      1.0  0.83265  0.42806  0.65872  1.0000
  S   S138      1.0  0.80796  0.36333  0.63433  1.0000
  Fe  Fe70      1.0  0.84778  0.40472  0.75620  1.0000
  S   S139      1.0  0.85673  0.44402  0.73857  1.0000
  S   S140      1.0  0.86724  0.39080  0.80899  1.0000
  Fe  Fe71      1.0  0.81458  0.44177  0.71131  1.0000
  S   S141      1.0  0.78504  0.47514  0.71489  1.0000
  Fe  Fe72      1.0  0.87379  0.42660  0.68805  1.0000
  S   S142      1.0  0.91779  0.43038  0.66521  1.0000
  S   S143      1.0  0.80411  0.40326  0.73242  1.0000
  S   S144      1.0  0.86613  0.38709  0.70632  1.0000
  H   H846      1.0  0.63594  0.50852  0.83426  1.0000
  S   S145      1.0  0.89401  0.45458  0.95066  1.0000
  H   H847      1.0  0.68872  0.33830  0.61082  1.0000
  C   C493      1.0  0.74878  0.47139  0.70855  1.0000
  C   C494      1.0  0.70858  0.44642  0.69141  1.0000
  C   C495      1.0  0.73749  0.44874  0.69654  1.0000
  H   H848      1.0  0.70006  0.42881  0.68204  1.0000
  H   H849      1.0  0.75105  0.43302  0.69104  1.0000
  C   C496      1.0  0.94200  0.45473  0.67415  1.0000
  H   H850      1.0  0.86018  0.35192  0.97634  1.0000
  H   H851      1.0  0.76776  0.51823  0.64582  1.0000
  H   H852      1.0  0.48293  0.42749  0.68436  1.0000
  H   H853      1.0  0.76352  0.54980  0.63091  1.0000
  C   C497      1.0  0.87669  0.41064  0.84563  1.0000
  C   C498      1.0  0.89883  0.40363  0.86847  1.0000
  C   C499      1.0  0.90556  0.41788  0.89944  1.0000
  C   C500      1.0  0.88935  0.43861  0.90888  1.0000
  C   C501      1.0  0.86749  0.44583  0.88578  1.0000
  C   C502      1.0  0.86151  0.43223  0.85396  1.0000
  H   H854      1.0  0.91071  0.38697  0.86224  1.0000
  H   H855      1.0  0.92273  0.41242  0.91656  1.0000
  H   H856      1.0  0.85478  0.46183  0.89282  1.0000
  H   H857      1.0  0.84431  0.43777  0.83681  1.0000
  C   C503      1.0  0.79131  0.33458  0.62147  1.0000
  C   C504      1.0  0.78162  0.31712  0.64681  1.0000
  C   C505      1.0  0.47093  0.46752  0.85839  1.0000
  H   H858      1.0  0.78409  0.32087  0.67541  1.0000
  H   H859      1.0  0.94616  0.51697  0.69383  1.0000
  Fe  Fe73      1.0  0.55718  0.49589  0.67646  1.0000
  S   S146      1.0  0.55673  0.53713  0.68980  1.0000
  S   S147      1.0  0.52275  0.46623  0.67071  1.0000
  Fe  Fe74      1.0  0.62073  0.49231  0.69329  1.0000
  S   S148      1.0  0.62405  0.53271  0.70981  1.0000
  S   S149      1.0  0.65449  0.46243  0.69214  1.0000
  Fe  Fe75      1.0  0.58277  0.52599  0.73813  1.0000
  S   S150      1.0  0.57019  0.53816  0.79498  1.0000
  Fe  Fe76      1.0  0.59816  0.54049  0.65993  1.0000
  S   S151      1.0  0.61143  0.56727  0.61332  1.0000
  S   S152      1.0  0.58205  0.48525  0.72550  1.0000
  S   S153      1.0  0.59615  0.49972  0.64275  1.0000
  C   C506      1.0  0.90388  0.33721  0.65653  1.0000
  Fe  Fe77      1.0  0.49968  0.46756  0.96486  1.0000
  S   S154      1.0  0.53146  0.46276  0.91955  1.0000
  C   C507      1.0  0.54003  0.48413  0.88443  1.0000
  C   C508      1.0  0.55200  0.47474  0.85252  1.0000
  C   C509      1.0  0.56034  0.49097  0.82449  1.0000
  C   C510      1.0  0.55762  0.51693  0.82838  1.0000
  C   C511      1.0  0.54526  0.52633  0.86011  1.0000
  C   C512      1.0  0.53619  0.51002  0.88784  1.0000
  H   H860      1.0  0.55490  0.45474  0.84953  1.0000
  H   H861      1.0  0.56928  0.48334  0.80019  1.0000
  H   H862      1.0  0.54299  0.54636  0.86346  1.0000
  H   H863      1.0  0.52711  0.51752  0.91233  1.0000
  H   H864      1.0  0.72152  0.45039  0.82217  1.0000
  C   C513      1.0  0.64052  0.59950  0.56818  1.0000
  C   C514      1.0  0.63426  0.59324  0.60440  1.0000
  H   H865      1.0  0.72447  0.33730  0.59778  1.0000
  C   C515      1.0  0.64726  0.32250  0.56546  1.0000
  H   H866      1.0  0.49462  0.45624  0.75216  1.0000
  H   H867      1.0  0.89366  0.35530  0.95464  1.0000
  C   C516      1.0  0.73086  0.49162  0.71566  1.0000
  C   C517      1.0  0.70189  0.48924  0.71071  1.0000
  C   C518      1.0  0.69069  0.46667  0.69820  1.0000
  H   H868      1.0  0.73943  0.50906  0.72556  1.0000
  H   H869      1.0  0.68821  0.50463  0.71719  1.0000
  C   C519      1.0  0.93343  0.47877  0.68414  1.0000
  H   H870      1.0  0.48614  0.45212  0.85495  1.0000
  C   C520      1.0  0.48579  0.46612  0.66760  1.0000
  H   H871      1.0  0.91153  0.48257  0.68813  1.0000
  H   H872      1.0  0.48133  0.50425  0.64965  1.0000
  H   H873      1.0  0.90331  0.40103  0.56282  1.0000
  H   H874      1.0  0.86159  0.33958  0.63730  1.0000
  H   H875      1.0  0.89887  0.38615  0.63051  1.0000
  H   H876      1.0  0.94497  0.47799  0.76574  1.0000
  H   H877      1.0  0.50119  0.49517  0.81333  1.0000
  H   H878      1.0  0.59615  0.44412  0.78676  1.0000
  H   H879      1.0  0.68009  0.49692  0.79722  1.0000
  C   C521      1.0  0.48461  0.49804  0.79274  1.0000
  H   H880      1.0  0.93868  0.37814  0.95084  1.0000
  C   C522      1.0  0.47137  0.44382  0.67567  1.0000
  H   H881      1.0  0.91480  0.35826  0.54873  1.0000
  N   N37       1.0  0.88731  0.35529  0.59484  1.0000
  C   C523      1.0  0.91529  0.35125  0.57716  1.0000
  H   H882      1.0  0.61627  0.49701  0.79596  1.0000
  H   H883      1.0  0.85074  0.31207  0.57246  1.0000
  H   H884      1.0  0.51054  0.52459  0.76329  1.0000
  H   H885      1.0  0.91993  0.33085  0.57526  1.0000
  H   H886      1.0  0.90627  0.35588  0.66911  1.0000
  C   C524      1.0  0.78775  0.32916  0.58434  1.0000
  H   H887      1.0  0.70974  0.31056  0.61902  1.0000
  C   C525      1.0  0.47132  0.42733  0.77772  1.0000
  H   H888      1.0  0.65832  0.48258  0.76513  1.0000
  C   C526      1.0  0.61812  0.31751  0.54900  1.0000
  H   H889      1.0  0.93053  0.42527  0.79465  1.0000
  H   H890      1.0  0.90796  0.45210  0.78964  1.0000
  N   N38       1.0  0.66167  0.46208  0.81599  1.0000
  C   C527      1.0  0.67258  0.46810  0.85329  1.0000
  C   C528      1.0  0.68051  0.44403  0.79642  1.0000
  C   C529      1.0  0.63335  0.45021  0.81966  1.0000
  C   C530      1.0  0.67780  0.44549  0.87854  1.0000
  C   C531      1.0  0.71155  0.45138  0.79513  1.0000
  C   C532      1.0  0.61908  0.44255  0.78387  1.0000
  H   H891      1.0  0.69234  0.47896  0.85165  1.0000
  H   H892      1.0  0.65786  0.48054  0.86797  1.0000
  H   H893      1.0  0.67905  0.42487  0.80822  1.0000
  H   H894      1.0  0.67369  0.44170  0.76775  1.0000
  H   H895      1.0  0.63467  0.43262  0.83570  1.0000
  H   H896      1.0  0.61883  0.46208  0.83574  1.0000
  H   H897      1.0  0.65808  0.43641  0.88695  1.0000
  H   H898      1.0  0.69194  0.43138  0.86656  1.0000
  H   H899      1.0  0.68793  0.45229  0.90376  1.0000
  H   H900      1.0  0.72281  0.43799  0.77736  1.0000
  H   H901      1.0  0.71475  0.47028  0.78349  1.0000
  H   H902      1.0  0.62447  0.42298  0.77645  1.0000
  H   H903      1.0  0.62475  0.45475  0.76089  1.0000
  C   C533      1.0  0.49997  0.50642  0.75798  1.0000
  H   H904      1.0  0.61272  0.29761  0.54480  1.0000
  H   H905      1.0  0.65380  0.34108  0.55453  1.0000
  C   C534      1.0  0.63668  0.50436  0.80492  1.0000
  H   H906      1.0  0.69284  0.57550  0.70333  1.0000
  C   C535      1.0  0.77475  0.30675  0.57270  1.0000
  H   H907      1.0  0.92283  0.43746  0.75095  1.0000
  H   H908      1.0  0.71463  0.30262  0.55362  1.0000
  C   C536      1.0  0.88245  0.34640  0.97736  1.0000
  C   C537      1.0  0.92711  0.44284  0.77949  1.0000
  H   H909      1.0  0.86565  0.40330  0.56423  1.0000
  H   H910      1.0  0.50296  0.45203  0.79848  1.0000
  H   H911      1.0  0.61554  0.32792  0.52313  1.0000
  H   H912      1.0  0.84788  0.32452  0.52801  1.0000
  S   S155      1.0  0.47407  0.43247  0.97250  1.0000
  H   H913      1.0  0.48752  0.41316  0.77144  1.0000
  C   C538      1.0  0.94988  0.47850  0.88273  1.0000
  H   H914      1.0  0.47211  0.51428  0.80245  1.0000
  H   H915      1.0  0.84417  0.35696  0.57741  1.0000
  H   H916      1.0  0.63157  0.58845  0.54655  1.0000
  C   C539      1.0  0.88496  0.40267  0.58072  1.0000
  C   C540      1.0  0.88360  0.38153  0.60919  1.0000
  H   H917      1.0  0.63975  0.52246  0.79060  1.0000
  C   C541      1.0  0.65840  0.61976  0.55954  1.0000
  H   H918      1.0  0.93880  0.36845  0.62408  1.0000
  C   C542      1.0  0.86481  0.35117  0.56679  1.0000
  C   C543      1.0  0.64626  0.60771  0.63191  1.0000
  H   H919      1.0  0.64167  0.60340  0.65991  1.0000
  C   C544      1.0  0.69774  0.31575  0.56175  1.0000
  H   H920      1.0  0.88643  0.42099  0.59490  1.0000
  C   C545      1.0  0.94076  0.47212  0.84376  1.0000
  H   H921      1.0  0.89941  0.39383  0.97048  1.0000
  H   H922      1.0  0.86833  0.36321  0.54259  1.0000
  N   N39       1.0  0.70388  0.54497  0.61959  1.0000
  C   C546      1.0  0.68170  0.53343  0.59586  1.0000
  C   C547      1.0  0.71446  0.56818  0.60069  1.0000
  C   C548      1.0  0.69049  0.55199  0.65529  1.0000
  C   C549      1.0  0.72640  0.52560  0.62495  1.0000
  C   C550      1.0  0.66629  0.51058  0.61202  1.0000
  C   C551      1.0  0.72698  0.56435  0.56266  1.0000
  C   C552      1.0  0.70289  0.57442  0.67629  1.0000
  C   C553      1.0  0.75284  0.53415  0.64490  1.0000
  H   H923      1.0  0.66566  0.54765  0.58857  1.0000
  H   H924      1.0  0.69054  0.52681  0.56976  1.0000
  H   H925      1.0  0.73072  0.57780  0.61690  1.0000
  H   H926      1.0  0.69730  0.58209  0.59779  1.0000
  H   H927      1.0  0.66816  0.55705  0.65129  1.0000
  H   H928      1.0  0.69023  0.53573  0.67402  1.0000
  H   H929      1.0  0.71839  0.50928  0.64055  1.0000
  H   H930      1.0  0.73309  0.51778  0.59844  1.0000
  H   H931      1.0  0.65661  0.51469  0.63855  1.0000
  H   H932      1.0  0.64916  0.50515  0.59339  1.0000
  H   H933      1.0  0.68005  0.49400  0.61470  1.0000
  H   H934      1.0  0.73590  0.58245  0.55326  1.0000
  H   H935      1.0  0.74412  0.55048  0.56265  1.0000
  H   H936      1.0  0.71086  0.55912  0.54250  1.0000
  H   H937      1.0  0.69839  0.59237  0.66232  1.0000
  H   H938      1.0  0.72554  0.57306  0.68072  1.0000
  H   H939      1.0  0.74847  0.53900  0.67341  1.0000
  H   H940      1.0  0.88267  0.32592  0.97196  1.0000
  C   C554      1.0  0.66031  0.48620  0.79462  1.0000
  H   H941      1.0  0.86314  0.38331  0.62304  1.0000
  H   H942      1.0  0.48181  0.48512  0.86573  1.0000
  C   C555      1.0  0.86148  0.32420  0.55237  1.0000
  H   H943      1.0  0.88308  0.31726  0.61527  1.0000
  Fe  Fe78      1.0  0.93431  0.45881  0.98276  1.0000
  C   C556      1.0  0.70513  0.32595  0.59970  1.0000
  H   H944      1.0  0.64458  0.32521  0.59517  1.0000
  H   H945      1.0  0.51659  0.49302  0.75030  1.0000
  H   H946      1.0  0.94623  0.38169  0.58017  1.0000
  C   C557      1.0  0.88264  0.33686  0.62529  1.0000
  H   H947      1.0  0.79486  0.34252  0.56435  1.0000
  C   C558      1.0  0.76843  0.29480  0.63517  1.0000
  H   H948      1.0  0.92679  0.45570  0.84620  1.0000
  C   C559      1.0  0.95224  0.46088  0.78033  1.0000
  H   H949      1.0  0.95212  0.42289  0.85225  1.0000
  C   C560      1.0  0.94702  0.36423  0.97022  1.0000
  H   H950      1.0  0.60208  0.32527  0.56749  1.0000
  N   N40       1.0  0.66962  0.30329  0.55812  1.0000
  S   S156      1.0  0.46278  0.49310  0.96200  1.0000
  H   H951      1.0  0.92440  0.33000  0.64761  1.0000
  C   C561      1.0  0.94076  0.36422  0.59494  1.0000
  H   H952      1.0  0.86073  0.41668  0.98880  1.0000
  H   H953      1.0  0.92692  0.48750  0.83407  1.0000
  S   S157      1.0  0.95703  0.49534  0.97612  1.0000
  C   C562      1.0  0.95312  0.49825  0.68724  1.0000
  H   H954      1.0  0.89646  0.32444  0.67826  1.0000
  C   C563      1.0  0.47056  0.48704  0.65623  1.0000
  H   H955      1.0  0.88160  0.31574  0.54440  1.0000
  C   C564      1.0  0.48511  0.45331  0.77933  1.0000
  H   H956      1.0  0.48581  0.50936  0.73464  1.0000
  N   N41       1.0  0.46650  0.47502  0.78918  1.0000
  H   H957      1.0  0.77209  0.30306  0.54411  1.0000
  H   H958      1.0  0.93924  0.34517  0.96390  1.0000
  H   H959      1.0  0.95875  0.57019  0.66985  1.0000
  H   H960      1.0  0.69954  0.33205  0.54308  1.0000
  H   H961      1.0  0.93099  0.48147  0.89945  1.0000
  H   H962      1.0  0.95602  0.58142  0.62455  1.0000
  H   H963      1.0  0.66324  0.62387  0.53157  1.0000
  H   H964      1.0  0.95919  0.35182  0.59219  1.0000
  H   H965      1.0  0.96166  0.46292  0.89544  1.0000
  H   H966      1.0  0.66020  0.32855  0.49253  1.0000
  H   H967      1.0  0.96209  0.49607  0.88440  1.0000
  Fe  Fe79      1.0  0.48409  0.94427  0.03563  1.0000
  S   S158      1.0  0.49155  0.91403  0.07997  1.0000
  H   H968      1.0  0.84105  0.92448  0.02213  1.0000
  S   S159      1.0  0.86262  0.67993  0.15628  1.0000
  Fe  Fe80      1.0  0.83045  0.65494  0.24604  1.0000
  S   S160      1.0  0.83553  0.69585  0.23499  1.0000
  H   H969      1.0  0.74507  0.64645  0.15893  1.0000
  Fe  Fe81      1.0  0.81979  0.68727  0.17937  1.0000
  S   S161      1.0  0.78915  0.71440  0.15271  1.0000
  Fe  Fe82      1.0  0.87785  0.68552  0.21340  1.0000
  S   S162      1.0  0.91208  0.71232  0.23106  1.0000
  Fe  Fe83      1.0  0.59576  0.78347  0.24966  1.0000
  S   S163      1.0  0.59400  0.74337  0.23199  1.0000
  S   S164      1.0  0.60518  0.79494  0.30796  1.0000
  Fe  Fe84      1.0  0.59152  0.80391  0.17160  1.0000
  S   S165      1.0  0.59239  0.76442  0.14937  1.0000
  S   S166      1.0  0.58781  0.83695  0.13068  1.0000
  Fe  Fe85      1.0  0.56096  0.75575  0.19270  1.0000
  S   S167      1.0  0.52382  0.73499  0.16827  1.0000
  Fe  Fe86      1.0  0.62575  0.75503  0.19033  1.0000
  S   S168      1.0  0.65991  0.72482  0.19050  1.0000
  S   S169      1.0  0.55941  0.79532  0.21405  1.0000
  S   S170      1.0  0.62807  0.79516  0.20891  1.0000
  C   C565      1.0  0.48166  0.79241  0.15447  1.0000
  C   C566      1.0  0.73982  0.64839  0.12973  1.0000
  S   S171      1.0  0.65040  0.72174  0.43159  1.0000
  Fe  Fe87      1.0  0.68671  0.72364  0.47158  1.0000
  S   S172      1.0  0.78487  0.70377  0.43757  1.0000
  S   S173      1.0  0.72640  0.74595  0.47000  1.0000
  C   C567      1.0  0.61981  0.77408  0.34036  1.0000
  C   C568      1.0  0.61382  0.74843  0.33988  1.0000
  C   C569      1.0  0.62362  0.73273  0.36785  1.0000
  C   C570      1.0  0.64028  0.74226  0.39599  1.0000
  C   C571      1.0  0.64716  0.76773  0.39582  1.0000
  C   C572      1.0  0.63658  0.78361  0.36845  1.0000
  H   H970      1.0  0.60081  0.74085  0.31862  1.0000
  H   H971      1.0  0.61808  0.71309  0.36774  1.0000
  H   H972      1.0  0.65980  0.77538  0.41740  1.0000
  H   H973      1.0  0.64122  0.80345  0.36916  1.0000
  C   C573      1.0  0.54920  0.79101  0.06934  1.0000
  H   H974      1.0  0.72143  0.66100  0.12835  1.0000
  C   C574      1.0  0.49455  0.71924  0.22893  1.0000
  C   C575      1.0  0.49496  0.72202  0.19129  1.0000
  H   H975      1.0  0.47234  0.71533  0.14173  1.0000
  H   H976      1.0  0.73327  0.62970  0.12037  1.0000
  H   H977      1.0  0.93075  0.79248  0.16725  1.0000
  H   H978      1.0  0.51206  0.72566  0.24487  1.0000
  H   H979      1.0  0.52007  0.66223  0.17974  1.0000
  H   H980      1.0  0.94145  0.68207  0.17752  1.0000
  C   C576      1.0  0.75379  0.71817  0.16586  1.0000
  C   C577      1.0  0.73865  0.73897  0.15314  1.0000
  C   C578      1.0  0.71014  0.74187  0.16141  1.0000
  C   C579      1.0  0.69629  0.72359  0.18174  1.0000
  C   C580      1.0  0.71150  0.70282  0.19451  1.0000
  C   C581      1.0  0.74014  0.70030  0.18712  1.0000
  H   H981      1.0  0.74899  0.75292  0.13666  1.0000
  H   H982      1.0  0.69872  0.75788  0.15126  1.0000
  H   H983      1.0  0.70099  0.68853  0.21016  1.0000
  H   H984      1.0  0.75153  0.68433  0.19738  1.0000
  C   C582      1.0  0.79826  0.65895  0.33216  1.0000
  C   C583      1.0  0.81473  0.67978  0.34043  1.0000
  C   C584      1.0  0.81008  0.69335  0.37258  1.0000
  C   C585      1.0  0.78842  0.68681  0.39639  1.0000
  C   C586      1.0  0.77125  0.66652  0.38750  1.0000
  C   C587      1.0  0.77641  0.65247  0.35578  1.0000
  H   H985      1.0  0.82355  0.70894  0.37923  1.0000
  H   H986      1.0  0.75464  0.66114  0.40565  1.0000
  H   H987      1.0  0.51468  0.64687  0.22271  1.0000
  C   C588      1.0  0.56150  0.85945  0.11845  1.0000
  C   C589      1.0  0.56473  0.87364  0.08644  1.0000
  C   C590      1.0  0.54400  0.89071  0.07459  1.0000
  C   C591      1.0  0.51952  0.89398  0.09460  1.0000
  C   C592      1.0  0.51652  0.88017  0.12702  1.0000
  C   C593      1.0  0.53730  0.86316  0.13892  1.0000
  H   H988      1.0  0.58333  0.87117  0.07036  1.0000
  H   H989      1.0  0.54686  0.90106  0.04966  1.0000
  H   H990      1.0  0.49784  0.88248  0.14297  1.0000
  H   H991      1.0  0.53451  0.85274  0.16381  1.0000
  H   H992      1.0  0.59354  0.69893  0.46551  1.0000
  H   H993      1.0  0.78164  0.68034  0.04725  1.0000
  H   H994      1.0  0.92159  0.76066  0.16718  1.0000
  N   N42       1.0  0.49968  0.80305  0.08984  1.0000
  C   C594      1.0  0.52850  0.79472  0.10079  1.0000
  H   H995      1.0  0.75759  0.67927  0.10018  1.0000
  H   H996      1.0  0.61460  0.64474  0.47752  1.0000
  H   H997      1.0  0.83168  0.68496  0.32269  1.0000
  H   H998      1.0  0.46811  0.85080  0.07958  1.0000
  C   C595      1.0  0.48968  0.75552  0.07962  1.0000
  C   C596      1.0  0.94728  0.71075  0.21769  1.0000
  H   H999      1.0  0.51235  0.82038  0.03906  1.0000
  H   H1000     1.0  0.51732  0.83946  0.07748  1.0000
  C   C597      1.0  0.83409  0.94418  0.02570  1.0000
  C   C598      1.0  0.47212  0.71349  0.17087  1.0000
  H   H1001     1.0  0.53797  0.80853  0.11971  1.0000
  S   S174      1.0  0.81252  0.64657  0.19107  1.0000
  H   H1002     1.0  0.96208  0.75472  0.11989  1.0000
  H   H1003     1.0  0.78084  0.66450  0.12995  1.0000
  H   H1004     1.0  0.48015  0.85367  0.03431  1.0000
  C   C599      1.0  0.50535  0.65053  0.19569  1.0000
  C   C600      1.0  0.79430  0.66384  0.05560  1.0000
  N   N43       1.0  0.77722  0.64592  0.07831  1.0000
  H   H1005     1.0  0.95986  0.73927  0.25560  1.0000
  C   C601      1.0  0.93265  0.77521  0.15105  1.0000
  C   C602      1.0  0.50278  0.82564  0.06542  1.0000
  H   H1006     1.0  0.61346  0.72123  0.49011  1.0000
  H   H1007     1.0  0.49381  0.82849  0.13470  1.0000
  H   H1008     1.0  0.52810  0.77702  0.11653  1.0000
  C   C603      1.0  0.82067  0.67473  0.07358  1.0000
  H   H1009     1.0  0.48761  0.78429  0.03982  1.0000
  S   S175      1.0  0.80516  0.64003  0.29355  1.0000
  C   C604      1.0  0.95623  0.69447  0.19047  1.0000
  S   S176      1.0  0.70747  0.68577  0.47346  1.0000
  H   H1010     1.0  0.46799  0.77644  0.14743  1.0000
  H   H1011     1.0  0.81604  0.94772  0.00757  1.0000
  C   C605      1.0  0.48402  0.81136  0.12316  1.0000
  N   N44       1.0  0.71985  0.72666  0.31441  1.0000
  C   C606      1.0  0.74021  0.70638  0.30402  1.0000
  C   C607      1.0  0.70170  0.71672  0.34454  1.0000
  C   C608      1.0  0.73465  0.74978  0.32764  1.0000
  C   C609      1.0  0.70292  0.73354  0.28144  1.0000
  C   C610      1.0  0.76425  0.71429  0.27875  1.0000
  C   C611      1.0  0.67978  0.69713  0.33329  1.0000
  C   C612      1.0  0.75405  0.74585  0.36051  1.0000
  C   C613      1.0  0.68004  0.75350  0.28718  1.0000
  H   H1012     1.0  0.74994  0.69783  0.32843  1.0000
  H   H1013     1.0  0.72928  0.69065  0.29026  1.0000
  H   H1014     1.0  0.69068  0.73210  0.35888  1.0000
  H   H1015     1.0  0.71457  0.70776  0.36610  1.0000
  H   H1016     1.0  0.74697  0.75857  0.30548  1.0000
  H   H1017     1.0  0.71936  0.76438  0.33583  1.0000
  H   H1018     1.0  0.71650  0.74112  0.25967  1.0000
  H   H1019     1.0  0.69329  0.71675  0.26864  1.0000
  H   H1020     1.0  0.77621  0.69729  0.27109  1.0000
  H   H1021     1.0  0.75689  0.72299  0.25328  1.0000
  H   H1022     1.0  0.77913  0.72705  0.29240  1.0000
  H   H1023     1.0  0.68927  0.68094  0.31921  1.0000
  H   H1024     1.0  0.66936  0.68989  0.35805  1.0000
  H   H1025     1.0  0.66330  0.70556  0.31608  1.0000
  H   H1026     1.0  0.74243  0.73978  0.38493  1.0000
  H   H1027     1.0  0.76424  0.76392  0.36737  1.0000
  H   H1028     1.0  0.77086  0.73224  0.35489  1.0000
  H   H1029     1.0  0.68760  0.77238  0.27911  1.0000
  H   H1030     1.0  0.67252  0.75464  0.31535  1.0000
  H   H1031     1.0  0.66152  0.74883  0.27039  1.0000
  Fe  Fe88      1.0  0.74706  0.70813  0.47449  1.0000
  H   H1032     1.0  0.50068  0.94920  0.14038  1.0000
  Fe  Fe89      1.0  0.85675  0.63933  0.17252  1.0000
  H   H1033     1.0  0.92145  0.77762  0.12495  1.0000
  H   H1034     1.0  0.87697  0.94539  0.08174  1.0000
  H   H1035     1.0  0.47164  0.80182  0.17789  1.0000
  H   H1036     1.0  0.80124  0.65471  0.03001  1.0000
  H   H1037     1.0  0.94018  0.81691  0.11286  1.0000
  H   H1038     1.0  0.51075  0.74960  0.07087  1.0000
  H   H1039     1.0  0.48680  0.66240  0.19901  1.0000
  S   S177      1.0  0.87418  0.64470  0.22897  1.0000
  H   H1040     1.0  0.74441  0.66596  0.01713  1.0000
  H   H1041     1.0  0.76357  0.63636  0.34970  1.0000
  H   H1042     1.0  0.81248  0.63375  0.11041  1.0000
  C   C614      1.0  0.48371  0.78307  0.06951  1.0000
  H   H1043     1.0  0.47078  0.64007  0.24893  1.0000
  S   S178      1.0  0.93930  0.94358  0.03467  1.0000
  H   H1044     1.0  0.82705  0.94553  0.05411  1.0000
  H   H1045     1.0  0.83736  0.66045  0.07620  1.0000
  H   H1046     1.0  0.55740  0.80935  0.05986  1.0000
  H   H1047     1.0  0.46870  0.65808  0.13333  1.0000
  H   H1048     1.0  0.53978  0.78081  0.04626  1.0000
  H   H1049     1.0  0.56738  0.78007  0.07904  1.0000
  H   H1050     1.0  0.82915  0.68995  0.05626  1.0000
  H   H1051     1.0  0.87842  0.95169  0.01971  1.0000
  C   C615      1.0  0.73455  0.65332  0.03723  1.0000
  H   H1052     1.0  0.81623  0.68309  0.10033  1.0000
  C   C616      1.0  0.76466  0.66040  0.10935  1.0000
  C   C617      1.0  0.75567  0.63463  0.05347  1.0000
  H   H1053     1.0  0.62591  0.67209  0.45206  1.0000
  H   H1054     1.0  0.47456  0.74319  0.06548  1.0000
  C   C618      1.0  0.62950  0.66057  0.47659  1.0000
  H   H1055     1.0  0.72400  0.66460  0.05835  1.0000
  H   H1056     1.0  0.95942  0.82872  0.07521  1.0000
  H   H1057     1.0  0.71813  0.64273  0.02257  1.0000
  C   C619      1.0  0.47168  0.70761  0.24586  1.0000
  H   H1058     1.0  0.47175  0.70512  0.27493  1.0000
  C   C620      1.0  0.47573  0.83982  0.05607  1.0000
  H   H1059     1.0  0.56846  0.73822  0.47667  1.0000
  H   H1060     1.0  0.50217  0.78586  0.16433  1.0000
  H   H1061     1.0  0.48759  0.75182  0.10883  1.0000
  H   H1062     1.0  0.46597  0.94322  0.18747  1.0000
  C   C621      1.0  0.96124  0.82222  0.10372  1.0000
  H   H1063     1.0  0.65055  0.65225  0.47336  1.0000
  H   H1064     1.0  0.50430  0.62895  0.14612  1.0000
  Fe  Fe90      1.0  0.83251  0.88930  0.66938  1.0000
  S   S179      1.0  0.82953  0.93100  0.65833  1.0000
  S   S180      1.0  0.82358  0.86003  0.62445  1.0000
  Fe  Fe91      1.0  0.85416  0.89867  0.74676  1.0000
  S   S181      1.0  0.85078  0.94012  0.74120  1.0000
  S   S182      1.0  0.87536  0.88100  0.79567  1.0000
  Fe  Fe92      1.0  0.80979  0.93289  0.71350  1.0000
  C   C622      1.0  0.88739  0.82183  0.73595  1.0000
  Fe  Fe93      1.0  0.87102  0.93508  0.68699  1.0000
  H   H1065     1.0  0.73107  0.89186  0.65188  1.0000
  S   S183      1.0  0.81122  0.89121  0.72375  1.0000
  S   S184      1.0  0.87590  0.89344  0.69331  1.0000
  H   H1066     1.0  0.69389  0.92047  0.55607  1.0000
  H   H1067     1.0  0.84892  0.82991  0.76216  1.0000
  H   H1068     1.0  0.94525  0.90653  0.80246  1.0000
  Fe  Fe94      1.0  0.72590  0.74571  0.53145  1.0000
  S   S185      1.0  0.74857  0.70883  0.53590  1.0000
  S   S186      1.0  0.73245  0.77848  0.57234  1.0000
  Fe  Fe95      1.0  0.70641  0.68952  0.53429  1.0000
  S   S187      1.0  0.69288  0.66053  0.57814  1.0000
  S   S188      1.0  0.68371  0.72651  0.53249  1.0000
  Fe  Fe96      1.0  0.94079  0.94553  0.97374  1.0000
  H   H1069     1.0  0.75089  0.87059  0.58319  1.0000
  H   H1070     1.0  0.76458  0.92916  0.64104  1.0000
  H   H1071     1.0  0.58378  0.70470  0.57022  1.0000
  C   C623      1.0  0.94795  0.95306  0.83690  1.0000
  N   N45       1.0  0.60202  0.68859  0.52159  1.0000
  H   H1072     1.0  0.68876  0.92129  0.68122  1.0000
  H   H1073     1.0  0.73855  0.92060  0.70041  1.0000
  C   C624      1.0  0.62922  0.67623  0.51172  1.0000
  C   C625      1.0  0.59581  0.70778  0.49259  1.0000
  H   H1074     1.0  0.79599  0.91523  0.58417  1.0000
  S   S189      1.0  0.90150  0.94353  0.93917  1.0000
  H   H1075     1.0  0.80299  0.76732  0.70536  1.0000
  C   C626      1.0  0.88381  0.89929  0.83440  1.0000
  C   C627      1.0  0.90388  0.89054  0.85918  1.0000
  C   C628      1.0  0.91033  0.90426  0.89079  1.0000
  C   C629      1.0  0.89624  0.92660  0.89834  1.0000
  C   C630      1.0  0.69874  0.93836  0.69020  1.0000
  C   C631      1.0  0.87036  0.92199  0.84151  1.0000
  H   H1076     1.0  0.91432  0.87295  0.85405  1.0000
  H   H1077     1.0  0.92555  0.89717  0.90981  1.0000
  H   H1078     1.0  0.71657  0.86807  0.62439  1.0000
  H   H1079     1.0  0.85468  0.92886  0.82297  1.0000
  C   C632      1.0  0.79821  0.83694  0.61132  1.0000
  C   C633      1.0  0.80336  0.82194  0.58062  1.0000
  C   C634      1.0  0.78390  0.80377  0.56863  1.0000
  C   C635      1.0  0.75864  0.80039  0.58693  1.0000
  C   C636      1.0  0.75355  0.81535  0.61775  1.0000
  C   C637      1.0  0.77315  0.83330  0.63000  1.0000
  H   H1080     1.0  0.82257  0.82440  0.56579  1.0000
  H   H1081     1.0  0.78829  0.79258  0.54489  1.0000
  H   H1082     1.0  0.73413  0.81306  0.63218  1.0000
  H   H1083     1.0  0.76856  0.84461  0.65352  1.0000
  H   H1084     1.0  0.82477  0.74536  0.72769  1.0000
  C   C638      1.0  0.75020  0.88868  0.59818  1.0000
  C   C639      1.0  0.56927  0.72362  0.49815  1.0000
  H   H1085     1.0  0.79423  0.80800  0.76609  1.0000
  C   C640      1.0  0.70312  0.90352  0.54364  1.0000
  C   C641      1.0  0.73989  0.95985  0.71288  1.0000
  H   H1086     1.0  0.69323  0.90152  0.51657  1.0000
  H   H1087     1.0  0.61247  0.72185  0.55304  1.0000
  C   C642      1.0  0.85035  0.80378  0.67742  1.0000
  N   N46       1.0  0.75202  0.91038  0.57202  1.0000
  H   H1088     1.0  0.83716  0.76578  0.66161  1.0000
  H   H1089     1.0  0.85194  0.82204  0.66295  1.0000
  C   C643      1.0  0.74337  0.93505  0.58852  1.0000
  C   C644      1.0  0.76127  0.94408  0.62061  1.0000
  C   C645      1.0  0.47252  0.93845  0.65805  1.0000
  C   C646      1.0  0.67014  0.63446  0.58704  1.0000
  C   C647      1.0  0.83506  0.78540  0.65212  1.0000
  C   C648      1.0  0.78201  0.91314  0.56025  1.0000
  H   H1090     1.0  0.55875  0.67930  0.53133  1.0000
  H   H1091     1.0  0.81720  0.89368  0.53614  1.0000
  H   H1092     1.0  0.61436  0.94730  0.75812  1.0000
  H   H1093     1.0  0.85934  0.77384  0.73207  1.0000
  H   H1094     1.0  0.87194  0.79641  0.67911  1.0000
  C   C649      1.0  0.81561  0.76441  0.72999  1.0000
  H   H1095     1.0  0.47866  0.92097  0.64565  1.0000
  H   H1096     1.0  0.80996  0.83612  0.69543  1.0000
  H   H1097     1.0  0.78166  0.95140  0.61129  1.0000
  H   H1098     1.0  0.80144  0.76367  0.75373  1.0000
  H   H1099     1.0  0.90873  0.94610  0.78619  1.0000
  C   C650      1.0  0.62426  0.69137  0.58632  1.0000
  H   H1100     1.0  0.56914  0.73354  0.52450  1.0000
  H   H1101     1.0  0.89765  0.82442  0.70930  1.0000
  H   H1102     1.0  0.56414  0.63453  0.54470  1.0000
  H   H1103     1.0  0.77267  0.82953  0.74177  1.0000
  H   H1104     1.0  0.49530  0.91533  0.79239  1.0000
  C   C651      1.0  0.79428  0.89125  0.53810  1.0000
  H   H1105     1.0  0.92994  0.91463  0.75901  1.0000
  H   H1106     1.0  0.78488  0.93051  0.54384  1.0000
  H   H1107     1.0  0.74385  0.95017  0.56766  1.0000
  C   C652      1.0  0.60456  0.70240  0.55732  1.0000
  H   H1108     1.0  0.83878  0.78809  0.76606  1.0000
  H   H1109     1.0  0.89199  0.80297  0.74699  1.0000
  C   C653      1.0  0.72693  0.93792  0.70086  1.0000
  H   H1110     1.0  0.64142  0.93083  0.78039  1.0000
  H   H1111     1.0  0.70690  0.89965  0.61635  1.0000
  C   C654      1.0  0.79461  0.82430  0.74752  1.0000
  H   H1112     1.0  0.62128  0.67114  0.59137  1.0000
  H   H1113     1.0  0.85348  0.84575  0.72037  1.0000
  C   C655      1.0  0.58213  0.64741  0.54801  1.0000
  H   H1114     1.0  0.94501  0.92858  0.65315  1.0000
  C   C656      1.0  0.87628  0.93536  0.87350  1.0000
  H   H1115     1.0  0.52509  0.95244  0.79037  1.0000
  C   C657      1.0  0.57836  0.67005  0.52262  1.0000
  H   H1116     1.0  0.81293  0.79018  0.64769  1.0000
  H   H1117     1.0  0.89711  0.83569  0.75454  1.0000
  H   H1118     1.0  0.80415  0.84057  0.76149  1.0000
  C   C658      1.0  0.83922  0.78370  0.73654  1.0000
  H   H1119     1.0  0.84500  0.78621  0.62497  1.0000
  C   C659      1.0  0.95598  0.94501  0.66268  1.0000
  H   H1120     1.0  0.79513  0.80620  0.69591  1.0000
  N   N47       1.0  0.83828  0.80762  0.71473  1.0000
  C   C660      1.0  0.85587  0.82714  0.73369  1.0000
  C   C661      1.0  0.80937  0.81841  0.71142  1.0000
  H   H1121     1.0  0.64584  0.69055  0.50901  1.0000
  H   H1122     1.0  0.55602  0.95881  0.85064  1.0000
  C   C662      1.0  0.72466  0.88759  0.62368  1.0000
  S   S190      1.0  0.47830  0.93874  0.97538  1.0000
  H   H1123     1.0  0.71891  0.95222  0.79682  1.0000
  C   C663      1.0  0.94951  0.91397  0.77500  1.0000
  H   H1124     1.0  0.78614  0.89107  0.50997  1.0000
  H   H1125     1.0  0.79065  0.87282  0.55106  1.0000
  H   H1126     1.0  0.74096  0.88744  0.52568  1.0000
  H   H1127     1.0  0.86510  0.95250  0.87916  1.0000
  H   H1128     1.0  0.73869  0.92035  0.51790  1.0000
  H   H1129     1.0  0.55014  0.71218  0.49521  1.0000
  H   H1130     1.0  0.64629  0.69464  0.57872  1.0000
  C   C664      1.0  0.48201  0.94100  0.83623  1.0000
  C   C665      1.0  0.73484  0.90546  0.53854  1.0000
  H   H1131     1.0  0.60102  0.63643  0.54163  1.0000
  H   H1132     1.0  0.76882  0.88847  0.61621  1.0000
  H   H1133     1.0  0.69737  0.88645  0.55907  1.0000
  H   H1134     1.0  0.58241  0.65315  0.57680  1.0000
  H   H1135     1.0  0.51430  0.95387  0.65741  1.0000
  C   C666      1.0  0.62752  0.94732  0.78286  1.0000
  H   H1136     1.0  0.47654  0.94760  0.76037  1.0000
  S   S191      1.0  0.77501  0.96029  0.72750  1.0000
  H   H1137     1.0  0.72159  0.93495  0.59813  1.0000
  H   H1138     1.0  0.66522  0.93665  0.83496  1.0000
  H   H1139     1.0  0.57411  0.66268  0.49497  1.0000
  H   H1140     1.0  0.62093  0.70124  0.61243  1.0000
  H   H1141     1.0  0.70092  0.92240  0.79767  1.0000
  C   C667      1.0  0.69819  0.94300  0.79535  1.0000
  C   C668      1.0  0.67879  0.95237  0.82584  1.0000
  H   H1142     1.0  0.69269  0.95560  0.84947  1.0000
  H   H1143     1.0  0.61347  0.94500  0.80639  1.0000
  C   C669      1.0  0.49280  0.95708  0.66468  1.0000
  C   C670      1.0  0.48282  0.91514  0.81760  1.0000
  H   H1144     1.0  0.49293  0.90155  0.83625  1.0000
  C   C671      1.0  0.68318  0.96066  0.69186  1.0000
  H   H1145     1.0  0.63650  0.66347  0.53332  1.0000
  H   H1146     1.0  0.68961  0.94612  0.76796  1.0000
  H   H1147     1.0  0.93295  0.93738  0.83974  1.0000
  H   H1148     1.0  0.67295  0.63913  0.64490  1.0000
  H   H1149     1.0  0.47054  0.93821  0.86211  1.0000
  H   H1150     1.0  0.50366  0.94567  0.84469  1.0000
  S   S192      1.0  0.64743  0.96011  0.67993  1.0000
  H   H1151     1.0  0.75058  0.95994  0.63424  1.0000
  N   N48       1.0  0.95049  0.96004  0.79745  1.0000
  H   H1152     1.0  0.46522  0.86791  0.64104  1.0000
  C   C672      1.0  0.66402  0.62808  0.62326  1.0000
