data_image0
_chemical_formula_structural       FeS2FeS2FeSFeS3FeSH2SHFeSFeSH2S2C2H2CHC3HCH2C4H2CH2C6H4C2H2C7H4CH3NC8H14CH4C4NC2HNH10CHCH4CH3CH2C2NH4CH4NCH2CHCH4CH2SCH3C2H3CHCHFeCHC2H2CH2CH4C2NH8CH4CH2CH2CHSH2CHFeS2FeS2FeSFeS3FeSCHSCFeSFeSHFeS2H6C2HC3HCHC2NH4C6H4C3H2C6H5CHNH3C2H5CH4C2H3SCH3C4H20NC5HC2H13CH2CHNHC7H7C2H4C2H3SH2CHSHC2H3S2FeSFeSCH2SCHC6H5FeSCHSHFeSFeNS2CH2C2H2CHC2HC6H5NC8H20C2HCH3CHCH9NH3CHFeHSHCH7C2SCH3S2FeSFeSH3SHC7H6SHCSCFeSFeHS2H11C7H4NC4HC3H7CH2CH9C3H3NC4SH7SH2C3HFeHCFeH5S2H3C2FeH2CH6C3H5NHCNHC3H5CHCSFeSFeS3HSFeSFeS2FeS2FeSFeS3C2H3C6H5CHCH2C2H3C6H4C2NHC5H8SH4NC8H10NH5CH3NC4HCHCH11C3HC2HC2H3CHNCH3CHCFeHCH7CH3C3HCH3CH9CSH2CH7CH2CHCH2CFeHSHCHCFeSCSHC2H5S2HFeSHSHCFeSFeS2FeS2FeSFeS3C2H2C7H7C3H5C6H5CNC8H21CH2C2H7CH2CH4NH2CHCNC5SCSHCHC2HFeC4H3C3H2FeSCH5CH3SH4CH2FeH2CHC2H6CHFeS2FeS2FeSFeS4H5FeSFeSH2S2C5H2CHCH4C6H4C6H5C2H2FeC2SFeSC3H5SHCH3FeH4CH2SNC8H21FeHC2H4SNSCHC2H2C2SH3CH2FeCHCHC2HCSHC2HNH4SH2CFeS2FeS2FeSFeS3HC3H2FeSFeSC2S2H4C2HC2H5C6H4C6H5C2H2NCHCHCH5CH3CH4SH3CHCHSNC6HCH18CH2C2FeHCHNC2HCHCH3FeCHFeH4C3HCHCSCH8C2H2C3FeHSHCH2SH2CHNSCFeSH5SH2C6H4CH3C2SH7SHCFeSCSC7H4CHCNC5HSHCH9CH5C2NHCH3C5H3C2HFeC2NCSCHCH4FeH3C2HC2H2CH2CH6CH4SFeH9SHCH3SH2CHSH2SHFeSCH2CHSHC7H5CHC2HCH2C2H3SH2FeSHSC7H3CHC2H2NHCFeCHC2NH2C2H5CH5SH3SHCHS2CHSH3CHCFeHCH2CH2SC2H2CH2FeHFeH2NCHCH5FeSFeS3C3H3FeS2FeS2FeSFeS3HC3HC6H5SH2C3H2CHC2H3CHC7H8C2HCH3SH2C2H5C2SHCH3NHNHC3H2C2H7C2H4NFeH5NC6HCH5CH3CH5CH3CH2C2H3FeHFeH3CSH2SHCH5NCH3SFeSFeS3H4C2FeS2FeS2FeSFeS3HC2H2C6H4C2H2CHCHNCH2CH6C6H6NC5H2CH5FeH4CH3CHCH6C2HCS2H3NH4C5H2CH2C2HNHC3HC3H6CH2CH6CH3C2H7CH2CHCH5C2NCH2CHCH6CH2CH4C2H3
_chemical_formula_sum              "Fe96 S192 H1152 C672 N48"
_cell_length_a       38.2699
_cell_length_b       50.7526
_cell_length_c       43.8348
_cell_angle_alpha    90.1481
_cell_angle_beta     89.6534
_cell_angle_gamma    89.8324

_space_group_name_H-M_alt    "P 1"
_space_group_IT_number       1

loop_
  _space_group_symop_operation_xyz
  'x, y, z'

loop_
  _atom_site_type_symbol
  _atom_site_label
  _atom_site_symmetry_multiplicity
  _atom_site_fract_x
  _atom_site_fract_y
  _atom_site_fract_z
  _atom_site_occupancy
  Fe  Fe1       1.0  0.22378  0.12968  0.13184  1.0000
  S   S1        1.0  0.24966  0.16548  0.11142  1.0000
  S   S2        1.0  0.25417  0.09074  0.13457  1.0000
  Fe  Fe2       1.0  0.15337  0.15870  0.13935  1.0000
  S   S3        1.0  0.17458  0.19629  0.11994  1.0000
  S   S4        1.0  0.09868  0.16274  0.15916  1.0000
  Fe  Fe3       1.0  0.20041  0.17105  0.08427  1.0000
  S   S5        1.0  0.19536  0.17839  0.03299  1.0000
  Fe  Fe4       1.0  0.22146  0.18767  0.14876  1.0000
  S   S6        1.0  0.24613  0.22121  0.17483  1.0000
  S   S7        1.0  0.17598  0.13354  0.10189  1.0000
  S   S8        1.0  0.19883  0.15178  0.17088  1.0000
  Fe  Fe5       1.0  0.37896  0.00560  0.24377  1.0000
  S   S9        1.0  0.35152  0.04576  0.24053  1.0000
  H   H1        1.0  0.39681  0.09271  0.13198  1.0000
  H   H2        1.0  0.44227  0.05684  0.09242  1.0000
  S   S10       1.0  0.43809  0.00233  0.24333  1.0000
  H   H3        1.0  0.06146  0.23803  0.13202  1.0000
  Fe  Fe6       1.0  0.21623  0.26819  0.34060  1.0000
  S   S11       1.0  0.22578  0.22874  0.31816  1.0000
  Fe  Fe7       1.0  0.20146  0.29013  0.40419  1.0000
  S   S12       1.0  0.19684  0.28530  0.45588  1.0000
  H   H4        1.0  0.41633  0.01478  0.08796  1.0000
  H   H5        1.0  0.10361  0.19387  0.38981  1.0000
  S   S13       1.0  0.16834  0.26858  0.37043  1.0000
  S   S14       1.0  0.25068  0.28665  0.37618  1.0000
  C   C1        1.0  0.05724  0.22502  0.11197  1.0000
  C   C2        1.0  0.12915  0.19860  0.40021  1.0000
  H   H6        1.0  0.10815  0.20277  0.27480  1.0000
  H   H7        1.0  0.32605  0.15198  0.12644  1.0000
  C   C3        1.0  0.13413  0.24898  0.18386  1.0000
  H   H8        1.0  0.37888  0.05320  0.09897  1.0000
  C   C4        1.0  0.13107  0.25416  0.28650  1.0000
  C   C5        1.0  0.12316  0.17661  0.23823  1.0000
  C   C6        1.0  0.43467  0.05413  0.18443  1.0000
  H   H9        1.0  0.16550  0.22025  0.20725  1.0000
  C   C7        1.0  0.08255  0.23501  0.23489  1.0000
  H   H10       1.0  0.14575  0.27150  0.29497  1.0000
  H   H11       1.0  0.38362  0.98882  0.14535  1.0000
  C   C8        1.0  0.21803  0.23006  0.02562  1.0000
  C   C9        1.0  0.13947  0.25037  0.25222  1.0000
  C   C10       1.0  0.20183  0.25557  0.47661  1.0000
  C   C11       1.0  0.10626  0.27057  0.45707  1.0000
  H   H12       1.0  0.10655  0.25480  0.18014  1.0000
  H   H13       1.0  0.22726  0.22911  0.04888  1.0000
  C   C12       1.0  0.06720  0.30270  0.38217  1.0000
  H   H14       1.0  0.21658  0.23158  0.43807  1.0000
  H   H15       1.0  0.02770  0.21586  0.05520  1.0000
  C   C13       1.0  0.23897  0.22348  0.21453  1.0000
  C   C14       1.0  0.24577  0.24730  0.22965  1.0000
  C   C15       1.0  0.24132  0.24935  0.26145  1.0000
  C   C16       1.0  0.23092  0.22734  0.27831  1.0000
  C   C17       1.0  0.22458  0.20348  0.26323  1.0000
  C   C18       1.0  0.22792  0.20168  0.23141  1.0000
  H   H16       1.0  0.25445  0.26425  0.21676  1.0000
  H   H17       1.0  0.24653  0.26780  0.27296  1.0000
  H   H18       1.0  0.21674  0.18635  0.27622  1.0000
  H   H19       1.0  0.22259  0.18323  0.22016  1.0000
  C   C19       1.0  0.06054  0.15207  0.14025  1.0000
  C   C20       1.0  0.06215  0.13606  0.11428  1.0000
  H   H20       1.0  0.50518  0.00876  0.32047  1.0000
  H   H21       1.0  0.08717  0.12895  0.10606  1.0000
  C   C21       1.0  0.38264  0.05087  0.12403  1.0000
  C   C22       1.0  0.27813  0.07720  0.16554  1.0000
  C   C23       1.0  0.29544  0.05290  0.16166  1.0000
  C   C24       1.0  0.31682  0.04243  0.18486  1.0000
  C   C25       1.0  0.32165  0.05642  0.21205  1.0000
  C   C26       1.0  0.30338  0.08028  0.21631  1.0000
  C   C27       1.0  0.28132  0.09038  0.19339  1.0000
  H   H22       1.0  0.29243  0.04219  0.14048  1.0000
  H   H23       1.0  0.32996  0.02375  0.18151  1.0000
  H   H24       1.0  0.30620  0.09094  0.23755  1.0000
  H   H25       1.0  0.26659  0.10829  0.19716  1.0000
  C   C28       1.0  0.44645  0.05338  0.11725  1.0000
  H   H26       1.0  0.09814  0.17434  0.22612  1.0000
  H   H27       1.0  0.37497  0.07662  0.16403  1.0000
  H   H28       1.0  0.10323  0.24953  0.41450  1.0000
  N   N1        1.0  0.33713  0.17496  0.20162  1.0000
  C   C29       1.0  0.33687  0.20324  0.21258  1.0000
  C   C30       1.0  0.30566  0.16174  0.21552  1.0000
  C   C31       1.0  0.33329  0.17536  0.16736  1.0000
  C   C32       1.0  0.37118  0.16221  0.21091  1.0000
  C   C33       1.0  0.36439  0.22162  0.19812  1.0000
  C   C34       1.0  0.30326  0.16257  0.25067  1.0000
  C   C35       1.0  0.33078  0.14852  0.15109  1.0000
  C   C36       1.0  0.37169  0.13174  0.21365  1.0000
  H   H29       1.0  0.31087  0.21250  0.20868  1.0000
  H   H30       1.0  0.34115  0.20436  0.23764  1.0000
  H   H31       1.0  0.30414  0.14084  0.20902  1.0000
  H   H32       1.0  0.28123  0.17056  0.20637  1.0000
  H   H33       1.0  0.30963  0.18696  0.16091  1.0000
  H   H34       1.0  0.35585  0.18540  0.15639  1.0000
  H   H35       1.0  0.39253  0.16792  0.19489  1.0000
  H   H36       1.0  0.37911  0.16969  0.23377  1.0000
  H   H37       1.0  0.39111  0.21320  0.19894  1.0000
  H   H38       1.0  0.35745  0.22677  0.17430  1.0000
  H   H39       1.0  0.36473  0.24048  0.21107  1.0000
  H   H40       1.0  0.29594  0.18251  0.25903  1.0000
  H   H41       1.0  0.28222  0.14903  0.25837  1.0000
  H   H42       1.0  0.32785  0.15617  0.26163  1.0000
  C   C37       1.0  0.13722  0.22496  0.20512  1.0000
  H   H43       1.0  0.35570  0.13744  0.15234  1.0000
  H   H44       1.0  0.39804  0.12435  0.20707  1.0000
  H   H45       1.0  0.35292  0.12108  0.19919  1.0000
  H   H46       1.0  0.36804  0.12558  0.23777  1.0000
  C   C38       1.0  0.04620  0.21194  0.00957  1.0000
  C   C39       1.0  0.34233  0.30632  0.48275  1.0000
  C   C40       1.0  0.06573  0.30966  0.35135  1.0000
  C   C41       1.0  0.42097  0.03153  0.16393  1.0000
  N   N2        1.0  0.41690  0.03723  0.13032  1.0000
  C   C42       1.0  0.03294  0.31206  0.33731  1.0000
  C   C43       1.0  0.41671  0.01138  0.11307  1.0000
  H   H47       1.0  0.46180  0.04985  0.19187  1.0000
  N   N3        1.0  0.10409  0.21951  0.44988  1.0000
  H   H48       1.0  0.09836  0.25581  0.01594  1.0000
  H   H49       1.0  0.23712  0.26955  0.01806  1.0000
  H   H50       1.0  0.03066  0.22927  0.10335  1.0000
  H   H51       1.0  0.14035  0.21551  0.05448  1.0000
  H   H52       1.0  0.14367  0.24679  0.43383  1.0000
  H   H53       1.0  0.29149  0.25444  0.46137  1.0000
  H   H54       1.0  0.11151  0.22726  0.09943  1.0000
  H   H55       1.0  0.35125  0.08597  0.13115  1.0000
  H   H56       1.0  0.51307  0.99103  0.18189  1.0000
  H   H57       1.0  0.06324  0.21548  0.41638  1.0000
  C   C44       1.0  0.37688  0.07810  0.13884  1.0000
  H   H58       1.0  0.15472  0.20085  0.44368  1.0000
  C   C45       1.0  0.21492  0.20875  0.47973  1.0000
  H   H59       1.0  0.48892  0.03547  0.14440  1.0000
  H   H60       1.0  0.08016  0.16806  0.02098  1.0000
  H   H61       1.0  0.11909  0.17862  0.44218  1.0000
  H   H62       1.0  0.14948  0.26597  0.19231  1.0000
  C   C46       1.0  0.12082  0.24922  0.02984  1.0000
  H   H63       1.0  0.08783  0.14541  0.05108  1.0000
  H   H64       1.0  0.04899  0.20004  0.23083  1.0000
  H   H65       1.0  0.11942  0.20795  0.02011  1.0000
  C   C47       1.0  0.08304  0.18578  0.06740  1.0000
  H   H66       1.0  0.50321  0.05624  0.11399  1.0000
  H   H67       1.0  0.03574  0.22786  0.20820  1.0000
  C   C48       1.0  0.20138  0.20826  0.01272  1.0000
  C   C49       1.0  0.48332  0.04138  0.12063  1.0000
  N   N4        1.0  0.08407  0.21459  0.05877  1.0000
  H   H68       1.0  0.07846  0.25549  0.22652  1.0000
  H   H69       1.0  0.03262  0.11700  0.07867  1.0000
  H   H70       1.0  0.41876  0.05493  0.20572  1.0000
  H   H71       1.0  0.30857  0.13644  0.15930  1.0000
  C   C50       1.0  0.05866  0.21651  0.21647  1.0000
  H   H72       1.0  0.36038  0.03875  0.13215  1.0000
  H   H73       1.0  0.12468  0.16044  0.25520  1.0000
  H   H74       1.0  0.07088  0.20848  0.19554  1.0000
  H   H75       1.0  0.48735  0.02426  0.10518  1.0000
  N   N5        1.0  0.12083  0.22801  0.23636  1.0000
  C   C51       1.0  0.12739  0.19879  0.43545  1.0000
  H   H76       1.0  0.04273  0.23589  0.47990  1.0000
  H   H77       1.0  0.14433  0.25063  0.01499  1.0000
  C   C52       1.0  0.11682  0.22048  0.04074  1.0000
  H   H78       1.0  0.22228  0.19051  0.46853  1.0000
  C   C53       1.0  0.29408  0.30590  0.44499  1.0000
  H   H79       1.0  0.12643  0.20802  0.19237  1.0000
  H   H80       1.0  0.13922  0.21736  0.39081  1.0000
  H   H81       1.0  0.13354  0.26960  0.24123  1.0000
  H   H82       1.0  0.15310  0.20310  0.26489  1.0000
  C   C54       1.0  0.21164  0.23198  0.46240  1.0000
  H   H83       1.0  0.14517  0.17346  0.22198  1.0000
  H   H84       1.0  0.07100  0.23562  0.25823  1.0000
  S   S15       1.0  0.20424  0.30630  0.31684  1.0000
  C   C55       1.0  0.51077  0.99924  0.34196  1.0000
  H   H85       1.0  0.31038  0.29035  0.43387  1.0000
  H   H86       1.0  0.06052  0.19219  0.44552  1.0000
  H   H87       1.0  0.16831  0.24783  0.25030  1.0000
  C   C56       1.0  0.12641  0.20329  0.25493  1.0000
  C   C57       1.0  0.29661  0.25803  0.48590  1.0000
  H   H88       1.0  0.13790  0.22300  0.48890  1.0000
  H   H89       1.0  0.44757  0.07337  0.12722  1.0000
  H   H90       1.0  0.14537  0.24366  0.16122  1.0000
  C   C58       1.0  0.11008  0.21849  0.48387  1.0000
  H   H91       1.0  0.43939  0.01474  0.16720  1.0000
  C   C59       1.0  0.03612  0.29855  0.39885  1.0000
  H   H92       1.0  0.39571  0.02481  0.17393  1.0000
  Fe  Fe8       1.0  0.15809  0.30780  0.34919  1.0000
  C   C60       1.0  0.03124  0.12931  0.09883  1.0000
  H   H93       1.0  0.04799  0.24433  0.04167  1.0000
  C   C61       1.0  0.11484  0.24608  0.43742  1.0000
  C   C62       1.0  0.22357  0.25297  0.00809  1.0000
  H   H94       1.0  0.13970  0.23717  0.30046  1.0000
  H   H95       1.0  0.09511  0.23384  0.49633  1.0000
  C   C63       1.0  0.06689  0.21329  0.44141  1.0000
  H   H96       1.0  0.12514  0.26301  0.04909  1.0000
  H   H97       1.0  0.10306  0.25845  0.29082  1.0000
  C   C64       1.0  0.02783  0.16072  0.15107  1.0000
  H   H98       1.0  0.14777  0.18298  0.39274  1.0000
  H   H99       1.0  0.44102  0.00007  0.11744  1.0000
  H   H100      1.0  0.43369  0.07404  0.17451  1.0000
  H   H101      1.0  0.03745  0.29387  0.42283  1.0000
  C   C65       1.0  0.09396  0.16554  0.04279  1.0000
  C   C66       1.0  0.08595  0.23051  0.08792  1.0000
  N   N6        1.0  0.30339  0.30857  0.47827  1.0000
  H   H102      1.0  0.09229  0.30112  0.39320  1.0000
  H   H103      1.0  0.08451  0.25199  0.08312  1.0000
  H   H104      1.0  0.12258  0.16593  0.03876  1.0000
  H   H105      1.0  0.03302  0.24834  0.44217  1.0000
  H   H106      1.0  0.02630  0.17286  0.17134  1.0000
  H   H107      1.0  0.32404  0.25305  0.49149  1.0000
  H   H108      1.0  0.25777  0.28722  0.49402  1.0000
  H   H109      1.0  0.12231  0.27106  0.47809  1.0000
  C   C67       1.0  0.03783  0.23036  0.45594  1.0000
  H   H110      1.0  0.35234  0.28729  0.47357  1.0000
  H   H111      1.0  0.03172  0.19299  0.00984  1.0000
  H   H112      1.0  0.11338  0.28853  0.44401  1.0000
  H   H113      1.0  0.10063  0.18187  0.08711  1.0000
  C   C68       1.0  0.05118  0.22251  0.04229  1.0000
  H   H114      1.0  0.26670  0.29889  0.44282  1.0000
  H   H115      1.0  0.05633  0.18018  0.07521  1.0000
  C   C69       1.0  0.51639  0.98487  0.15841  1.0000
  H   H116      1.0  0.36137  0.99904  0.11082  1.0000
  H   H117      1.0  0.05848  0.20456  0.12052  1.0000
  C   C70       1.0  0.38653  0.99228  0.12055  1.0000
  H   H118      1.0  0.07831  0.27227  0.46307  1.0000
  S   S16       1.0  0.10419  0.31596  0.32987  1.0000
  H   H119      1.0  0.12019  0.17634  0.49295  1.0000
  H   H120      1.0  0.07428  0.18576  0.49557  1.0000
  C   C71       1.0  0.28660  0.28630  0.49586  1.0000
  H   H121      1.0  0.03157  0.31755  0.31352  1.0000
  Fe  Fe9       1.0  0.22945  0.13454  0.63463  1.0000
  S   S17       1.0  0.25412  0.17082  0.61392  1.0000
  S   S18       1.0  0.25693  0.09448  0.64133  1.0000
  Fe  Fe10      1.0  0.15607  0.16063  0.63597  1.0000
  S   S19       1.0  0.17557  0.19820  0.61534  1.0000
  S   S20       1.0  0.10122  0.15857  0.65623  1.0000
  Fe  Fe11      1.0  0.20694  0.17284  0.58336  1.0000
  S   S21       1.0  0.21135  0.17871  0.53169  1.0000
  Fe  Fe12      1.0  0.22062  0.19342  0.64752  1.0000
  S   S22       1.0  0.23420  0.23111  0.67237  1.0000
  S   S23       1.0  0.18405  0.13500  0.60171  1.0000
  S   S24       1.0  0.19942  0.15732  0.67035  1.0000
  Fe  Fe13      1.0  0.39192  0.00958  0.74164  1.0000
  S   S25       1.0  0.36396  0.04944  0.74023  1.0000
  C   C72       1.0  0.18953  0.20988  0.98246  1.0000
  H   H122      1.0  0.18843  0.27396  0.51955  1.0000
  S   S26       1.0  0.44974  0.00571  0.73238  1.0000
  C   C73       1.0  0.39680  0.02178  0.63425  1.0000
  Fe  Fe14      1.0  0.22166  0.26971  0.84130  1.0000
  S   S27       1.0  0.24757  0.23577  0.81625  1.0000
  Fe  Fe15      1.0  0.20875  0.28999  0.90587  1.0000
  S   S28       1.0  0.22205  0.28303  0.95596  1.0000
  H   H123      1.0  0.08590  0.26962  0.77564  1.0000
  Fe  Fe16      1.0  0.15163  0.29488  0.85777  1.0000
  S   S29       1.0  0.18120  0.26040  0.87682  1.0000
  S   S30       1.0  0.25216  0.29689  0.87162  1.0000
  H   H124      1.0  0.21937  0.21148  0.87492  1.0000
  H   H125      1.0  0.31675  0.00128  0.74028  1.0000
  H   H126      1.0  0.07771  0.24690  0.72845  1.0000
  H   H127      1.0  0.28539  0.03956  0.75205  1.0000
  H   H128      1.0  0.10140  0.17853  0.71723  1.0000
  H   H129      1.0  0.45139  0.07117  0.61007  1.0000
  C   C74       1.0  0.50243  0.99690  0.63983  1.0000
  C   C75       1.0  0.02614  0.28547  0.85611  1.0000
  H   H130      1.0  0.31121  0.24609  0.94381  1.0000
  C   C76       1.0  0.28977  0.30978  0.78213  1.0000
  C   C77       1.0  0.19591  0.25577  0.50832  1.0000
  C   C78       1.0  0.44318  0.05014  0.61167  1.0000
  H   H131      1.0  0.33380  0.07106  0.61334  1.0000
  C   C79       1.0  0.19931  0.23255  0.52567  1.0000
  H   H132      1.0  0.37035  0.06837  0.65248  1.0000
  C   C80       1.0  0.21217  0.25447  0.97768  1.0000
  C   C81       1.0  0.19457  0.23293  0.96511  1.0000
  N   N7        1.0  0.27167  0.00114  0.77015  1.0000
  H   H133      1.0  0.19439  0.23290  0.55000  1.0000
  H   H134      1.0  0.32972  0.15910  0.89198  1.0000
  H   H135      1.0  0.18530  0.23388  0.94188  1.0000
  H   H136      1.0  0.12050  0.26032  0.72888  1.0000
  C   C82       1.0  0.23578  0.23098  0.71245  1.0000
  C   C83       1.0  0.25012  0.20984  0.72855  1.0000
  C   C84       1.0  0.25341  0.21137  0.76048  1.0000
  C   C85       1.0  0.24169  0.23375  0.77643  1.0000
  C   C86       1.0  0.22625  0.25441  0.76030  1.0000
  C   C87       1.0  0.22383  0.25322  0.72842  1.0000
  H   H137      1.0  0.25958  0.19267  0.71632  1.0000
  H   H138      1.0  0.26532  0.19525  0.77276  1.0000
  H   H139      1.0  0.21649  0.27147  0.77225  1.0000
  H   H140      1.0  0.21254  0.26955  0.71605  1.0000
  C   C88       1.0  0.06262  0.16087  0.63427  1.0000
  C   C89       1.0  0.06365  0.16228  0.60241  1.0000
  C   C90       1.0  0.38247  0.05481  0.59337  1.0000
  H   H141      1.0  0.08857  0.16201  0.59062  1.0000
  H   H142      1.0  0.37192  0.02235  0.64754  1.0000
  C   C91       1.0  0.28605  0.08243  0.66965  1.0000
  C   C92       1.0  0.29601  0.05568  0.66882  1.0000
  C   C93       1.0  0.32002  0.04533  0.68999  1.0000
  C   C94       1.0  0.33424  0.06160  0.71249  1.0000
  C   C95       1.0  0.32393  0.08822  0.71365  1.0000
  C   C96       1.0  0.30009  0.09863  0.69232  1.0000
  H   H143      1.0  0.28509  0.04293  0.65152  1.0000
  H   H144      1.0  0.32745  0.02479  0.68890  1.0000
  H   H145      1.0  0.33458  0.10098  0.73107  1.0000
  H   H146      1.0  0.29271  0.11922  0.69331  1.0000
  H   H147      1.0  0.17638  0.19318  0.97237  1.0000
  C   C97       1.0  0.34266  0.05418  0.59911  1.0000
  H   H148      1.0  0.34862  0.30641  0.50757  1.0000
  N   N8        1.0  0.40502  0.04831  0.62046  1.0000
  H   H149      1.0  0.23993  0.18292  0.85790  1.0000
  H   H150      1.0  0.41653  0.04901  0.68604  1.0000
  H   H151      1.0  0.28006  0.24387  0.49879  1.0000
  C   C98       1.0  0.11587  0.23141  0.67332  1.0000
  C   C99       1.0  0.30350  0.24945  0.91979  1.0000
  H   H152      1.0  0.04987  0.17514  0.74909  1.0000
  H   H153      1.0  0.08561  0.18253  0.77349  1.0000
  H   H154      1.0  0.32656  0.24761  0.90453  1.0000
  H   H155      1.0  0.40127  0.08929  0.63470  1.0000
  H   H156      1.0  0.02557  0.26878  0.84074  1.0000
  C   C100      1.0  0.29370  0.00473  0.79829  1.0000
  H   H157      1.0  0.44727  0.01644  0.57933  1.0000
  H   H158      1.0  0.16579  0.22451  0.75620  1.0000
  H   H159      1.0  0.12743  0.25505  0.78275  1.0000
  H   H160      1.0  0.41218  0.08374  0.68930  1.0000
  C   C101      1.0  0.39790  0.06915  0.64442  1.0000
  C   C102      1.0  0.31092  0.27752  0.72427  1.0000
  H   H161      1.0  0.31729  0.01676  0.79278  1.0000
  H   H162      1.0  0.08813  0.23587  0.78674  1.0000
  H   H163      1.0  0.44861  0.07068  0.66858  1.0000
  S   S31       1.0  0.09590  0.28639  0.84322  1.0000
  C   C103      1.0  0.26168  0.02825  0.75884  1.0000
  H   H164      1.0  0.05399  0.20789  0.76328  1.0000
  H   H165      1.0  0.33612  0.30444  0.81091  1.0000
  H   H166      1.0  0.22734  0.99269  0.79933  1.0000
  C   C104      1.0  0.24090  0.04595  0.78123  1.0000
  C   C105      1.0  0.45449  0.03742  0.58114  1.0000
  C   C106      1.0  0.03005  0.16109  0.64928  1.0000
  C   C107      1.0  0.22637  0.19058  0.87852  1.0000
  H   H167      1.0  0.03332  0.16402  0.56112  1.0000
  H   H168      1.0  0.24537  0.02691  0.73799  1.0000
  H   H169      1.0  0.30276  0.20041  0.98608  1.0000
  H   H170      1.0  0.26935  0.00177  0.70236  1.0000
  H   H171      1.0  0.02901  0.15992  0.67390  1.0000
  H   H172      1.0  0.26474  0.30087  0.72515  1.0000
  H   H173      1.0  0.30264  0.26491  0.74356  1.0000
  H   H174      1.0  0.16123  0.23275  0.70216  1.0000
  H   H175      1.0  0.21742  0.03606  0.79060  1.0000
  H   H176      1.0  0.25757  0.05338  0.79997  1.0000
  H   H177      1.0  0.23166  0.06366  0.76871  1.0000
  H   H178      1.0  0.30233  0.26724  0.70318  1.0000
  H   H179      1.0  0.25285  0.16536  0.91063  1.0000
  H   H180      1.0  0.13348  0.23492  0.65353  1.0000
  H   H181      1.0  0.26804  0.21705  0.96842  1.0000
  H   H182      1.0  0.29223  0.28804  0.52072  1.0000
  H   H183      1.0  0.42102  0.98776  0.61108  1.0000
  H   H184      1.0  0.26572  0.29806  0.77841  1.0000
  H   H185      1.0  0.44418  0.04849  0.56132  1.0000
  H   H186      1.0  0.10449  0.19465  0.52472  1.0000
  N   N9        1.0  0.28180  0.20212  0.90895  1.0000
  C   C108      1.0  0.30421  0.19707  0.88111  1.0000
  C   C109      1.0  0.27339  0.23120  0.90995  1.0000
  C   C110      1.0  0.24812  0.18686  0.90768  1.0000
  C   C111      1.0  0.30148  0.19345  0.93687  1.0000
  C   C112      1.0  0.31294  0.16794  0.87417  1.0000
  H   H187      1.0  0.28927  0.15578  0.87091  1.0000
  C   C113      1.0  0.28296  0.19841  0.96780  1.0000
  C   C114      1.0  0.10153  0.19213  0.49965  1.0000
  H   H188      1.0  0.29199  0.20551  0.86029  1.0000
  H   H189      1.0  0.10347  0.25058  0.67887  1.0000
  H   H190      1.0  0.25083  0.23540  0.92520  1.0000
  H   H191      1.0  0.26463  0.23826  0.88721  1.0000
  H   H192      1.0  0.32967  0.20743  0.88313  1.0000
  H   H193      1.0  0.23078  0.19242  0.92718  1.0000
  H   H194      1.0  0.30637  0.17185  0.93613  1.0000
  H   H195      1.0  0.32824  0.20198  0.93764  1.0000
  H   H196      1.0  0.14747  0.20060  0.69150  1.0000
  H   H197      1.0  0.38760  0.04153  0.57376  1.0000
  H   H198      1.0  0.09576  0.21726  0.66550  1.0000
  H   H199      1.0  0.33399  0.03540  0.60950  1.0000
  H   H200      1.0  0.20150  0.17951  0.88086  1.0000
  C   C115      1.0  0.29327  0.30477  0.72567  1.0000
  H   H201      1.0  0.32801  0.16695  0.85244  1.0000
  H   H202      1.0  0.30153  0.28175  0.81818  1.0000
  C   C116      1.0  0.05807  0.29771  0.86255  1.0000
  H   H203      1.0  0.18229  0.17835  0.76666  1.0000
  N   N10       1.0  0.11909  0.21745  0.73012  1.0000
  H   H204      1.0  0.33978  0.27884  0.72307  1.0000
  C   C117      1.0  0.14564  0.20894  0.75348  1.0000
  C   C118      1.0  0.10411  0.24419  0.73858  1.0000
  C   C119      1.0  0.09053  0.19733  0.72632  1.0000
  C   C120      1.0  0.13774  0.22004  0.69980  1.0000
  C   C121      1.0  0.16531  0.18298  0.74690  1.0000
  C   C122      1.0  0.10124  0.25113  0.77289  1.0000
  C   C123      1.0  0.06913  0.19065  0.75504  1.0000
  H   H205      1.0  0.38900  0.07482  0.58457  1.0000
  H   H206      1.0  0.07127  0.20386  0.70898  1.0000
  H   H207      1.0  0.13369  0.20666  0.77643  1.0000
  H   H208      1.0  0.14749  0.16604  0.74376  1.0000
  H   H209      1.0  0.18299  0.18486  0.72696  1.0000
  H   H210      1.0  0.32890  0.05613  0.57697  1.0000
  H   H211      1.0  0.29441  0.27023  0.91871  1.0000
  C   C124      1.0  0.42045  0.06770  0.67348  1.0000
  C   C125      1.0  0.20860  0.20883  0.51140  1.0000
  H   H212      1.0  0.41658  0.01649  0.65176  1.0000
  H   H213      1.0  0.29920  0.31498  0.70384  1.0000
  H   H214      1.0  0.27914  0.01578  0.81621  1.0000
  H   H215      1.0  0.26493  0.18202  0.97365  1.0000
  C   C126      1.0  0.29370  0.98864  0.74538  1.0000
  C   C127      1.0  0.31580  0.29224  0.79973  1.0000
  H   H216      1.0  0.32862  0.27707  0.78540  1.0000
  H   H217      1.0  0.48345  0.03824  0.57919  1.0000
  H   H218      1.0  0.45988  0.04131  0.62962  1.0000
  S   S32       1.0  0.19047  0.30206  0.82004  1.0000
  H   H219      1.0  0.49247  0.00832  0.65884  1.0000
  H   H220      1.0  0.35651  0.30913  0.75634  1.0000
  C   C128      1.0  0.03230  0.16346  0.58575  1.0000
  H   H221      1.0  0.38576  0.00207  0.58950  1.0000
  S   S33       1.0  0.39416  0.98578  0.78521  1.0000
  H   H222      1.0  0.21842  0.99030  0.75982  1.0000
  C   C129      1.0  0.23876  0.98593  0.77721  1.0000
  C   C130      1.0  0.39523  0.99774  0.61266  1.0000
  H   H223      1.0  0.32399  0.98518  0.83332  1.0000
  H   H224      1.0  0.03070  0.22643  0.99629  1.0000
  H   H225      1.0  0.07073  0.20949  0.99647  1.0000
  S   S34       1.0  0.39072  0.48132  0.21400  1.0000
  S   S35       1.0  0.46153  0.45362  0.24098  1.0000
  Fe  Fe17      1.0  0.44883  0.48517  0.20681  1.0000
  S   S36       1.0  0.47186  0.49588  0.16004  1.0000
  Fe  Fe18      1.0  0.40344  0.45257  0.25174  1.0000
  S   S37       1.0  0.36915  0.41548  0.25190  1.0000
  C   C131      1.0  0.44829  0.45413  0.06673  1.0000
  H   H226      1.0  0.44685  0.59558  0.18781  1.0000
  H   H227      1.0  0.30862  0.32573  0.40266  1.0000
  S   S38       1.0  0.27385  0.36015  0.35416  1.0000
  C   C132      1.0  0.42665  0.58453  0.12816  1.0000
  H   H228      1.0  0.49115  0.42751  0.07139  1.0000
  C   C133      1.0  0.34412  0.39968  0.28106  1.0000
  C   C134      1.0  0.32110  0.37927  0.27284  1.0000
  C   C135      1.0  0.29965  0.36680  0.29480  1.0000
  C   C136      1.0  0.30102  0.37451  0.32544  1.0000
  C   C137      1.0  0.32428  0.39477  0.33372  1.0000
  C   C138      1.0  0.34576  0.40724  0.31175  1.0000
  H   H229      1.0  0.31968  0.37312  0.24923  1.0000
  H   H230      1.0  0.28199  0.35128  0.28801  1.0000
  H   H231      1.0  0.32564  0.40092  0.35733  1.0000
  H   H232      1.0  0.36337  0.42280  0.31854  1.0000
  H   H233      1.0  0.36978  0.55939  0.10823  1.0000
  Fe  Fe19      1.0  0.22538  0.62969  0.14474  1.0000
  S   S39       1.0  0.25414  0.59029  0.15133  1.0000
  C   C139      1.0  0.41141  0.56231  0.17773  1.0000
  H   H234      1.0  0.35367  0.58860  0.17359  1.0000
  S   S40       1.0  0.18086  0.63143  0.11098  1.0000
  H   H235      1.0  0.41862  0.52731  0.11016  1.0000
  Fe  Fe20      1.0  0.39561  0.51211  0.25017  1.0000
  S   S41       1.0  0.35844  0.54747  0.25359  1.0000
  Fe  Fe21      1.0  0.46375  0.48650  0.27589  1.0000
  N   N11       1.0  0.50027  0.44868  0.02919  1.0000
  S   S42       1.0  0.45273  0.51797  0.24099  1.0000
  S   S43       1.0  0.40627  0.48352  0.28868  1.0000
  C   C140      1.0  0.51026  0.48439  0.14128  1.0000
  H   H236      1.0  0.51219  0.44665  0.16344  1.0000
  H   H237      1.0  0.43110  0.54655  0.17428  1.0000
  C   C141      1.0  0.50894  0.48039  0.36257  1.0000
  C   C142      1.0  0.42777  0.58267  0.19955  1.0000
  H   H238      1.0  0.40324  0.51593  0.14748  1.0000
  H   H239      1.0  0.38623  0.61237  0.16614  1.0000
  C   C143      1.0  0.46194  0.56954  0.12742  1.0000
  H   H240      1.0  0.43112  0.43910  0.05623  1.0000
  C   C144      1.0  0.37777  0.55232  0.13118  1.0000
  C   C145      1.0  0.49283  0.47516  0.01503  1.0000
  H   H241      1.0  0.44110  0.47395  0.05833  1.0000
  C   C146      1.0  0.28078  0.57832  0.18146  1.0000
  C   C147      1.0  0.29460  0.55264  0.17918  1.0000
  C   C148      1.0  0.31820  0.54286  0.20106  1.0000
  C   C149      1.0  0.32778  0.55850  0.22596  1.0000
  C   C150      1.0  0.31307  0.58387  0.22883  1.0000
  C   C151      1.0  0.28989  0.59382  0.20663  1.0000
  H   H242      1.0  0.28750  0.54041  0.15994  1.0000
  H   H243      1.0  0.32903  0.52326  0.19860  1.0000
  H   H244      1.0  0.32016  0.59613  0.24804  1.0000
  H   H245      1.0  0.27945  0.61357  0.20879  1.0000
  H   H246      1.0  0.48295  0.40835  0.02260  1.0000
  N   N12       1.0  0.27214  0.46265  0.26612  1.0000
  C   C152      1.0  0.26426  0.44651  0.29428  1.0000
  C   C153      1.0  0.30653  0.47637  0.27151  1.0000
  C   C154      1.0  0.27530  0.44393  0.23936  1.0000
  C   C155      1.0  0.24224  0.48169  0.26176  1.0000
  C   C156      1.0  0.23374  0.42675  0.29185  1.0000
  C   C157      1.0  0.30682  0.49637  0.29806  1.0000
  C   C158      1.0  0.29574  0.45356  0.21112  1.0000
  C   C159      1.0  0.24659  0.50308  0.23711  1.0000
  H   H247      1.0  0.28753  0.43485  0.30103  1.0000
  H   H248      1.0  0.25813  0.45938  0.31420  1.0000
  H   H249      1.0  0.31590  0.48718  0.25112  1.0000
  H   H250      1.0  0.32748  0.46156  0.27590  1.0000
  H   H251      1.0  0.28885  0.42545  0.24636  1.0000
  H   H252      1.0  0.24900  0.43773  0.23136  1.0000
  H   H253      1.0  0.21803  0.47087  0.25565  1.0000
  H   H254      1.0  0.23500  0.49176  0.28351  1.0000
  H   H255      1.0  0.23937  0.41078  0.27517  1.0000
  H   H256      1.0  0.23021  0.41692  0.31430  1.0000
  H   H257      1.0  0.20866  0.43652  0.28628  1.0000
  H   H258      1.0  0.33278  0.50606  0.29876  1.0000
  H   H259      1.0  0.28728  0.51228  0.29490  1.0000
  H   H260      1.0  0.30310  0.48671  0.32049  1.0000
  H   H261      1.0  0.32418  0.45372  0.21574  1.0000
  H   H262      1.0  0.28743  0.47315  0.20299  1.0000
  H   H263      1.0  0.29185  0.43937  0.19211  1.0000
  H   H264      1.0  0.23735  0.49598  0.21458  1.0000
  H   H265      1.0  0.27348  0.51060  0.23491  1.0000
  H   H266      1.0  0.23087  0.52069  0.24363  1.0000
  C   C160      1.0  0.37256  0.59519  0.15587  1.0000
  C   C161      1.0  0.48729  0.44753  0.06171  1.0000
  H   H267      1.0  0.43312  0.60487  0.13590  1.0000
  C   C162      1.0  0.35087  0.60627  0.12920  1.0000
  H   H268      1.0  0.47361  0.57121  0.10424  1.0000
  H   H269      1.0  0.44178  0.57222  0.21804  1.0000
  H   H270      1.0  0.48240  0.47468  0.35748  1.0000
  C   C163      1.0  0.29664  0.33100  0.42504  1.0000
  H   H271      1.0  0.46059  0.54833  0.13253  1.0000
  C   C164      1.0  0.39597  0.52565  0.12583  1.0000
  H   H272      1.0  0.35306  0.54787  0.14358  1.0000
  H   H273      1.0  0.41757  0.58666  0.10420  1.0000
  H   H274      1.0  0.37725  0.51216  0.11451  1.0000
  H   H275      1.0  0.38996  0.55240  0.19046  1.0000
  H   H276      1.0  0.33620  0.62394  0.13726  1.0000
  H   H277      1.0  0.45353  0.43241  0.00900  1.0000
  H   H278      1.0  0.48096  0.57899  0.14304  1.0000
  H   H279      1.0  0.40725  0.59481  0.21090  1.0000
  H   H280      1.0  0.27011  0.33854  0.41957  1.0000
  N   N13       1.0  0.39796  0.57328  0.14803  1.0000
  H   H281      1.0  0.35878  0.34773  0.47499  1.0000
  H   H282      1.0  0.46447  0.47754  0.01025  1.0000
  H   H283      1.0  0.44271  0.45402  0.09166  1.0000
  C   C165      1.0  0.50454  0.49946  0.03356  1.0000
  H   H284      1.0  0.33081  0.59198  0.12152  1.0000
  Fe  Fe22      1.0  0.23521  0.32540  0.35456  1.0000
  H   H285      1.0  0.49912  0.51752  0.02011  1.0000
  S   S44       1.0  0.18770  0.33001  0.38510  1.0000
  H   H286      1.0  0.31236  0.34730  0.43429  1.0000
  C   C166      1.0  0.48187  0.42777  0.01089  1.0000
  H   H287      1.0  0.36749  0.61237  0.10969  1.0000
  H   H288      1.0  0.49020  0.50147  0.05548  1.0000
  H   H289      1.0  0.30275  0.35149  0.48220  1.0000
  H   H290      1.0  0.50281  0.46075  0.07660  1.0000
  H   H291      1.0  0.50473  0.47085  0.41047  1.0000
  H   H292      1.0  0.36440  0.32586  0.44221  1.0000
  H   H293      1.0  0.23991  0.33531  0.46757  1.0000
  C   C167      1.0  0.25047  0.33861  0.49075  1.0000
  C   C168      1.0  0.36525  0.32745  0.46743  1.0000
  S   S45       1.0  0.51617  0.49284  0.30059  1.0000
  C   C169      1.0  0.29033  0.33394  0.49240  1.0000
  H   H294      1.0  0.14613  0.65045  0.26410  1.0000
  H   H295      1.0  0.51538  0.51983  0.11460  1.0000
  H   H296      1.0  0.39290  0.32396  0.47392  1.0000
  S   S46       1.0  0.39444  0.46633  0.72316  1.0000
  S   S47       1.0  0.46539  0.44444  0.75715  1.0000
  Fe  Fe23      1.0  0.45279  0.46716  0.71446  1.0000
  S   S48       1.0  0.47029  0.45760  0.66551  1.0000
  Fe  Fe24      1.0  0.40740  0.44646  0.76781  1.0000
  S   S49       1.0  0.38549  0.40813  0.78815  1.0000
  H   H297      1.0  0.09771  0.56897  0.59567  1.0000
  H   H298      1.0  0.23164  0.33645  0.73150  1.0000
  H   H299      1.0  0.38585  0.34365  0.72994  1.0000
  S   S50       1.0  0.23540  0.36898  0.83382  1.0000
  H   H300      1.0  0.34695  0.33927  0.77487  1.0000
  C   C170      1.0  0.38169  0.58764  0.82629  1.0000
  C   C171      1.0  0.34385  0.39929  0.80327  1.0000
  C   C172      1.0  0.34099  0.37598  0.82047  1.0000
  C   C173      1.0  0.30823  0.36684  0.83086  1.0000
  C   C174      1.0  0.27775  0.38085  0.82400  1.0000
  C   C175      1.0  0.28068  0.40457  0.80757  1.0000
  C   C176      1.0  0.31349  0.41375  0.79722  1.0000
  H   H301      1.0  0.36433  0.36478  0.82555  1.0000
  H   H302      1.0  0.30654  0.34885  0.84395  1.0000
  H   H303      1.0  0.25733  0.41567  0.80227  1.0000
  H   H304      1.0  0.31519  0.43170  0.78405  1.0000
  H   H305      1.0  0.44962  0.50789  0.84236  1.0000
  H   H306      1.0  0.43014  0.58682  0.77603  1.0000
  S   S51       1.0  0.26545  0.58784  0.64513  1.0000
  H   H307      1.0  0.40553  0.57208  0.64335  1.0000
  C   C177      1.0  0.02114  0.37664  0.82833  1.0000
  S   S52       1.0  0.18595  0.62448  0.61202  1.0000
  C   C178      1.0  0.14687  0.57991  0.54941  1.0000
  Fe  Fe25      1.0  0.40284  0.50459  0.74811  1.0000
  S   S53       1.0  0.37417  0.54427  0.74408  1.0000
  Fe  Fe26      1.0  0.46883  0.48362  0.78120  1.0000
  H   H308      1.0  0.24459  0.35938  0.49704  1.0000
  S   S54       1.0  0.46035  0.50613  0.73746  1.0000
  S   S55       1.0  0.41161  0.48479  0.79373  1.0000
  H   H309      1.0  0.41120  0.50938  0.59481  1.0000
  H   H310      1.0  0.38025  0.54474  0.65386  1.0000
  H   H311      1.0  0.04916  0.37167  0.83177  1.0000
  H   H312      1.0  0.36337  0.58305  0.84530  1.0000
  H   H313      1.0  0.48985  0.58238  0.83304  1.0000
  H   H314      1.0  0.35225  0.33289  0.70477  1.0000
  H   H315      1.0  0.15181  0.57748  0.57408  1.0000
  H   H316      1.0  0.41346  0.55249  0.87916  1.0000
  H   H317      1.0  0.50842  0.57732  0.88675  1.0000
  H   H318      1.0  0.50727  0.54513  0.59097  1.0000
  H   H319      1.0  0.12876  0.60837  0.51701  1.0000
  C   C179      1.0  0.02698  0.32904  0.89501  1.0000
  C   C180      1.0  0.29467  0.57599  0.67367  1.0000
  C   C181      1.0  0.30541  0.54940  0.67277  1.0000
  C   C182      1.0  0.32911  0.53921  0.69440  1.0000
  C   C183      1.0  0.34301  0.55565  0.71692  1.0000
  C   C184      1.0  0.33221  0.58220  0.71789  1.0000
  C   C185      1.0  0.30815  0.59231  0.69652  1.0000
  H   H320      1.0  0.29511  0.53654  0.65530  1.0000
  H   H321      1.0  0.33679  0.51869  0.69349  1.0000
  H   H322      1.0  0.34255  0.59511  0.73528  1.0000
  H   H323      1.0  0.30024  0.61278  0.69757  1.0000
  N   N14       1.0  0.42915  0.53447  0.63179  1.0000
  C   C186      1.0  0.41930  0.50786  0.61909  1.0000
  C   C187      1.0  0.45450  0.54718  0.60983  1.0000
  C   C188      1.0  0.39767  0.55209  0.63548  1.0000
  C   C189      1.0  0.44512  0.53058  0.66277  1.0000
  H   H324      1.0  0.05141  0.64022  0.55130  1.0000
  C   C190      1.0  0.49164  0.53527  0.60905  1.0000
  C   C191      1.0  0.37539  0.55611  0.60667  1.0000
  C   C192      1.0  0.45789  0.55580  0.67909  1.0000
  H   H325      1.0  0.07051  0.63162  0.51567  1.0000
  H   H326      1.0  0.44235  0.49443  0.61876  1.0000
  H   H327      1.0  0.45709  0.56867  0.61425  1.0000
  H   H328      1.0  0.44452  0.54599  0.58606  1.0000
  H   H329      1.0  0.41664  0.54272  0.79795  1.0000
  H   H330      1.0  0.42581  0.52160  0.67867  1.0000
  H   H331      1.0  0.46674  0.51588  0.66214  1.0000
  C   C193      1.0  0.28378  0.34807  0.74852  1.0000
  H   H332      1.0  0.34789  0.36348  0.72637  1.0000
  H   H333      1.0  0.02706  0.58916  0.57871  1.0000
  C   C194      1.0  0.51322  0.45912  0.61476  1.0000
  H   H334      1.0  0.47632  0.58214  0.78398  1.0000
  H   H335      1.0  0.23604  0.32607  0.50723  1.0000
  H   H336      1.0  0.37446  0.60697  0.81624  1.0000
  H   H337      1.0  0.36389  0.53743  0.59834  1.0000
  H   H338      1.0  0.06905  0.58606  0.51789  1.0000
  H   H339      1.0  0.45420  0.56145  0.75750  1.0000
  H   H340      1.0  0.46578  0.57171  0.66336  1.0000
  H   H341      1.0  0.13338  0.56249  0.53988  1.0000
  H   H342      1.0  0.28991  0.35688  0.72590  1.0000
  C   C195      1.0  0.45122  0.57210  0.77950  1.0000
  C   C196      1.0  0.44054  0.51769  0.86348  1.0000
  C   C197      1.0  0.03527  0.64349  0.65533  1.0000
  H   H343      1.0  0.38500  0.47413  0.62426  1.0000
  H   H344      1.0  0.35312  0.56939  0.61244  1.0000
  H   H345      1.0  0.46327  0.52086  0.87860  1.0000
  N   N15       1.0  0.43963  0.56300  0.83675  1.0000
  C   C198      1.0  0.47647  0.56754  0.84756  1.0000
  C   C199      1.0  0.44157  0.55215  0.80469  1.0000
  C   C200      1.0  0.42072  0.54351  0.85680  1.0000
  C   C201      1.0  0.41984  0.58868  0.83776  1.0000
  S   S56       1.0  0.17637  0.32444  0.88932  1.0000
  H   H346      1.0  0.37746  0.57305  0.80789  1.0000
  H   H347      1.0  0.03317  0.63095  0.67517  1.0000
  H   H348      1.0  0.47073  0.59782  0.88350  1.0000
  H   H349      1.0  0.36517  0.50403  0.63719  1.0000
  H   H350      1.0  0.43720  0.56358  0.69464  1.0000
  H   H351      1.0  0.47948  0.40826  0.96667  1.0000
  H   H352      1.0  0.46104  0.53595  0.80311  1.0000
  S   S57       1.0  0.10562  0.64410  0.66729  1.0000
  H   H353      1.0  0.39533  0.53780  0.84636  1.0000
  H   H354      1.0  0.41801  0.59619  0.86158  1.0000
  C   C202      1.0  0.12813  0.60607  0.54230  1.0000
  C   C203      1.0  0.48023  0.57728  0.88077  1.0000
  C   C204      1.0  0.34105  0.32753  0.75405  1.0000
  H   H355      1.0  0.42276  0.50375  0.87533  1.0000
  Fe  Fe27      1.0  0.21812  0.32902  0.85279  1.0000
  H   H356      1.0  0.14544  0.62175  0.55152  1.0000
  C   C205      1.0  0.39017  0.49298  0.63634  1.0000
  Fe  Fe28      1.0  0.16000  0.65014  0.64729  1.0000
  H   H357      1.0  0.39049  0.56565  0.58810  1.0000
  H   H358      1.0  0.02738  0.34622  0.90967  1.0000
  H   H359      1.0  0.49142  0.51399  0.60343  1.0000
  H   H360      1.0  0.49450  0.44574  0.60481  1.0000
  H   H361      1.0  0.02012  0.39425  0.81360  1.0000
  S   S58       1.0  0.51455  0.49869  0.81050  1.0000
  S   S59       1.0  0.20703  0.64938  0.67800  1.0000
  H   H362      1.0  0.17313  0.58037  0.53845  1.0000
  H   H363      1.0  0.46694  0.56434  0.89747  1.0000
  H   H364      1.0  0.23344  0.36799  0.74949  1.0000
  C   C206      1.0  0.51094  0.47200  0.86612  1.0000
  C   C207      1.0  0.02986  0.58868  0.55351  1.0000
  Fe  Fe29      1.0  0.23475  0.62673  0.64071  1.0000
  H   H365      1.0  0.29772  0.33489  0.51695  1.0000
  H   H366      1.0  0.43406  0.60464  0.82553  1.0000
  C   C208      1.0  0.24344  0.34744  0.75072  1.0000
  H   H367      1.0  0.28181  0.32521  0.79888  1.0000
  H   H368      1.0  0.08301  0.32902  0.88739  1.0000
  H   H369      1.0  0.39824  0.48756  0.65971  1.0000
  H   H370      1.0  0.49221  0.44193  0.96401  1.0000
  H   H371      1.0  0.50603  0.47684  0.99242  1.0000
  H   H372      1.0  0.10995  0.62758  0.59567  1.0000
  C   C209      1.0  0.07666  0.63457  0.54027  1.0000
  C   C210      1.0  0.35706  0.34271  0.72693  1.0000
  C   C211      1.0  0.50819  0.46796  0.64497  1.0000
  H   H373      1.0  0.49259  0.54931  0.84499  1.0000
  H   H374      1.0  0.23376  0.33937  0.77266  1.0000
  H   H375      1.0  0.48149  0.55109  0.69270  1.0000
  H   H376      1.0  0.07536  0.58614  0.62534  1.0000
  H   H377      1.0  0.48873  0.46157  0.85689  1.0000
  N   N16       1.0  0.30235  0.32201  0.75254  1.0000
  H   H378      1.0  0.07826  0.56775  0.55070  1.0000
  C   C212      1.0  0.09665  0.58786  0.60808  1.0000
  N   N17       1.0  0.09126  0.60955  0.55411  1.0000
  H   H379      1.0  0.50566  0.53842  0.63083  1.0000
  C   C213      1.0  0.06853  0.58721  0.54330  1.0000
  C   C214      1.0  0.49525  0.42384  0.97786  1.0000
  C   C215      1.0  0.09051  0.61266  0.58832  1.0000
  H   H380      1.0  0.29309  0.36257  0.76568  1.0000
  H   H381      1.0  0.06494  0.62092  0.59582  1.0000
  H   H382      1.0  0.12138  0.58989  0.62103  1.0000
  H   H383      1.0  0.50846  0.45245  0.90972  1.0000
  H   H384      1.0  0.01939  0.34524  0.79530  1.0000
  C   C216      1.0  0.05853  0.31935  0.88240  1.0000
  H   H385      1.0  0.13922  0.64990  0.75150  1.0000
  C   C217      1.0  0.05993  0.65728  0.14414  1.0000
  S   S60       1.0  0.17470  0.69501  0.12573  1.0000
  Fe  Fe30      1.0  0.20530  0.66910  0.09361  1.0000
  S   S61       1.0  0.21747  0.67729  0.04326  1.0000
  Fe  Fe31      1.0  0.21906  0.68863  0.15822  1.0000
  S   S62       1.0  0.23819  0.72514  0.18239  1.0000
  S   S63       1.0  0.09867  0.65511  0.16588  1.0000
  S   S64       1.0  0.42654  0.93860  0.24956  1.0000
  H   H386      1.0  0.30939  0.73925  0.41166  1.0000
  S   S65       1.0  0.45274  0.95854  0.16437  1.0000
  Fe  Fe32      1.0  0.36857  0.94581  0.25126  1.0000
  S   S66       1.0  0.33325  0.90931  0.25297  1.0000
  Fe  Fe33      1.0  0.21129  0.76140  0.34966  1.0000
  S   S67       1.0  0.19059  0.79744  0.32632  1.0000
  S   S68       1.0  0.23341  0.72503  0.32696  1.0000
  Fe  Fe34      1.0  0.19034  0.77993  0.41302  1.0000
  S   S69       1.0  0.16739  0.81769  0.39475  1.0000
  S   S70       1.0  0.19354  0.77322  0.46435  1.0000
  Fe  Fe35      1.0  0.14441  0.79254  0.35785  1.0000
  S   S71       1.0  0.09137  0.79670  0.33550  1.0000
  Fe  Fe36      1.0  0.21533  0.82007  0.36458  1.0000
  S   S72       1.0  0.24124  0.86054  0.36112  1.0000
  S   S73       1.0  0.16335  0.75466  0.37839  1.0000
  S   S74       1.0  0.24001  0.78419  0.38570  1.0000
  C   C218      1.0  0.05362  0.80176  0.35817  1.0000
  C   C219      1.0  0.05579  0.80544  0.38970  1.0000
  H   H387      1.0  0.17248  0.67778  0.47783  1.0000
  H   H388      1.0  0.08098  0.80491  0.40077  1.0000
  H   H389      1.0  0.29071  0.70112  0.07812  1.0000
  C   C220      1.0  0.30656  0.89654  0.28282  1.0000
  C   C221      1.0  0.29528  0.87020  0.28109  1.0000
  C   C222      1.0  0.27490  0.85893  0.30460  1.0000
  C   C223      1.0  0.26540  0.87398  0.33011  1.0000
  C   C224      1.0  0.27601  0.90049  0.33156  1.0000
  C   C225      1.0  0.29649  0.91172  0.30809  1.0000
  H   H390      1.0  0.30272  0.85832  0.26155  1.0000
  H   H391      1.0  0.26690  0.83855  0.30308  1.0000
  H   H392      1.0  0.26858  0.91238  0.35108  1.0000
  H   H393      1.0  0.30446  0.93213  0.30948  1.0000
  H   H394      1.0  0.23365  0.80404  0.12810  1.0000
  C   C226      1.0  0.20324  0.70333  0.01915  1.0000
  H   H395      1.0  0.20445  0.76491  0.06470  1.0000
  C   C227      1.0  0.17999  0.71963  0.47162  1.0000
  H   H396      1.0  0.16222  0.68052  0.27965  1.0000
  H   H397      1.0  0.28371  0.71888  0.11282  1.0000
  C   C228      1.0  0.17906  0.72236  0.02887  1.0000
  C   C229      1.0  0.02080  0.80281  0.34405  1.0000
  H   H398      1.0  0.17075  0.71969  0.44836  1.0000
  H   H399      1.0  0.30961  0.77168  0.09826  1.0000
  H   H400      1.0  0.16766  0.72098  0.05145  1.0000
  C   C230      1.0  0.23786  0.72483  0.22257  1.0000
  C   C231      1.0  0.23844  0.70114  0.23876  1.0000
  C   C232      1.0  0.23764  0.70142  0.27082  1.0000
  C   C233      1.0  0.23565  0.72535  0.28682  1.0000
  C   C234      1.0  0.23509  0.74905  0.27060  1.0000
  C   C235      1.0  0.23647  0.74878  0.23856  1.0000
  H   H401      1.0  0.24004  0.68260  0.22662  1.0000
  H   H402      1.0  0.23834  0.68303  0.28324  1.0000
  H   H403      1.0  0.23421  0.76760  0.28271  1.0000
  H   H404      1.0  0.23630  0.76718  0.22615  1.0000
  C   C236      1.0  0.09706  0.87522  0.35755  1.0000
  C   C237      1.0  0.24395  0.76209  0.11638  1.0000
  N   N18       1.0  0.12739  0.88376  0.33763  1.0000
  H   H405      1.0  0.23851  0.72649  0.07065  1.0000
  C   C238      1.0  0.15799  0.88874  0.35840  1.0000
  C   C239      1.0  0.13601  0.86097  0.31669  1.0000
  C   C240      1.0  0.15248  0.91008  0.38311  1.0000
  C   C241      1.0  0.16726  0.86444  0.29478  1.0000
  C   C242      1.0  0.14641  0.92576  0.30758  1.0000
  H   H406      1.0  0.23477  0.67964  0.38721  1.0000
  H   H407      1.0  0.18186  0.89431  0.34566  1.0000
  H   H408      1.0  0.16546  0.87030  0.37040  1.0000
  H   H409      1.0  0.14111  0.84288  0.33032  1.0000
  H   H410      1.0  0.14719  0.76629  0.28485  1.0000
  H   H411      1.0  0.14054  0.92830  0.37398  1.0000
  H   H412      1.0  0.20004  0.70257  0.39206  1.0000
  H   H413      1.0  0.17828  0.91543  0.39283  1.0000
  S   S75       1.0  0.25165  0.66543  0.12487  1.0000
  H   H414      1.0  0.16183  0.87953  0.27719  1.0000
  H   H415      1.0  0.17157  0.84562  0.28228  1.0000
  H   H416      1.0  0.17227  0.91631  0.30485  1.0000
  H   H417      1.0  0.14909  0.94359  0.32213  1.0000
  N   N19       1.0  0.38676  0.89790  0.35497  1.0000
  C   C243      1.0  0.36564  0.92009  0.36898  1.0000
  C   C244      1.0  0.36523  0.87313  0.35782  1.0000
  C   C245      1.0  0.39314  0.90423  0.32167  1.0000
  C   C246      1.0  0.42087  0.89618  0.37186  1.0000
  C   C247      1.0  0.38112  0.94800  0.36585  1.0000
  C   C248      1.0  0.35500  0.86486  0.39048  1.0000
  C   C249      1.0  0.39915  0.88074  0.29974  1.0000
  C   C250      1.0  0.44586  0.87353  0.36301  1.0000
  H   H418      1.0  0.33898  0.92074  0.35899  1.0000
  H   H419      1.0  0.36183  0.91707  0.39389  1.0000
  H   H420      1.0  0.37836  0.85584  0.34735  1.0000
  H   H421      1.0  0.34056  0.87528  0.34469  1.0000
  H   H422      1.0  0.37069  0.91534  0.31198  1.0000
  H   H423      1.0  0.41593  0.91758  0.31893  1.0000
  H   H424      1.0  0.43638  0.91443  0.36814  1.0000
  H   H425      1.0  0.41687  0.89593  0.39703  1.0000
  H   H426      1.0  0.21220  0.68243  0.42352  1.0000
  H   H427      1.0  0.21901  0.79669  0.07392  1.0000
  N   N20       1.0  0.27986  0.70693  0.43100  1.0000
  H   H428      1.0  0.37804  0.86286  0.40549  1.0000
  H   H429      1.0  0.33554  0.87855  0.40074  1.0000
  H   H430      1.0  0.34207  0.84529  0.38949  1.0000
  H   H431      1.0  0.17252  0.67106  0.24088  1.0000
  H   H432      1.0  0.42053  0.86757  0.30698  1.0000
  C   C251      1.0  0.24809  0.71558  0.41343  1.0000
  H   H433      1.0  0.46223  0.87910  0.34302  1.0000
  H   H434      1.0  0.43255  0.85469  0.35842  1.0000
  H   H435      1.0  0.46333  0.86932  0.38256  1.0000
  N   N21       1.0  0.12087  0.71329  0.23811  1.0000
  C   C252      1.0  0.11789  0.68470  0.24733  1.0000
  C   C253      1.0  0.08434  0.72375  0.23334  1.0000
  C   C254      1.0  0.13849  0.72811  0.26378  1.0000
  C   C255      1.0  0.14241  0.71444  0.20920  1.0000
  H   H436      1.0  0.38586  0.95345  0.34180  1.0000
  C   C256      1.0  0.06238  0.70960  0.20889  1.0000
  H   H437      1.0  0.06447  0.85162  0.32596  1.0000
  C   C257      1.0  0.14743  0.74181  0.19492  1.0000
  H   H438      1.0  0.09807  0.68236  0.26585  1.0000
  H   H439      1.0  0.10869  0.67237  0.22797  1.0000
  H   H440      1.0  0.08453  0.74485  0.22681  1.0000
  H   H441      1.0  0.06930  0.72287  0.25517  1.0000
  H   H442      1.0  0.37481  0.86924  0.29653  1.0000
  H   H443      1.0  0.16738  0.72667  0.26152  1.0000
  H   H444      1.0  0.16908  0.70659  0.21303  1.0000
  H   H445      1.0  0.13115  0.70144  0.19138  1.0000
  H   H446      1.0  0.32995  0.72398  0.44306  1.0000
  H   H447      1.0  0.32872  0.70774  0.37977  1.0000
  H   H448      1.0  0.25580  0.72633  0.39237  1.0000
  C   C258      1.0  0.16987  0.74337  0.00941  1.0000
  C   C259      1.0  0.18082  0.69595  0.48843  1.0000
  C   C260      1.0  0.49133  0.96872  0.14484  1.0000
  H   H449      1.0  0.21794  0.78059  0.15507  1.0000
  C   C261      1.0  0.06246  0.86912  0.34098  1.0000
  C   C262      1.0  0.29032  0.72121  0.08832  1.0000
  H   H450      1.0  0.47700  0.94842  0.10350  1.0000
  C   C263      1.0  0.19146  0.74316  0.48493  1.0000
  C   C264      1.0  0.49223  0.97666  0.35036  1.0000
  H   H451      1.0  0.05264  0.88622  0.32785  1.0000
  H   H452      1.0  0.13910  0.93321  0.28466  1.0000
  H   H453      1.0  0.48587  0.94717  0.38528  1.0000
  C   C265      1.0  0.49623  0.96091  0.11424  1.0000
  H   H454      1.0  0.28728  0.69539  0.36629  1.0000
  N   N22       1.0  0.25640  0.76529  0.08376  1.0000
  C   C266      1.0  0.12900  0.75750  0.26807  1.0000
  H   H455      1.0  0.26058  0.79658  0.02882  1.0000
  H   H456      1.0  0.27262  0.73875  0.04707  1.0000
  H   H457      1.0  0.40559  0.95036  0.37899  1.0000
  C   C267      1.0  0.29013  0.78050  0.08250  1.0000
  H   H458      1.0  0.16354  0.75462  0.20967  1.0000
  C   C268      1.0  0.26821  0.69685  0.46174  1.0000
  Fe  Fe37      1.0  0.42920  0.96805  0.21138  1.0000
  H   H459      1.0  0.12233  0.75148  0.18927  1.0000
  C   C269      1.0  0.11673  0.90784  0.31976  1.0000
  H   H460      1.0  0.08567  0.65898  0.10042  1.0000
  H   H461      1.0  0.04214  0.86433  0.35833  1.0000
  H   H462      1.0  0.25164  0.67902  0.45931  1.0000
  H   H463      1.0  0.10031  0.90203  0.29995  1.0000
  H   H464      1.0  0.22767  0.74399  0.11880  1.0000
  H   H465      1.0  0.32373  0.68013  0.42651  1.0000
  H   H466      1.0  0.10229  0.75979  0.27779  1.0000
  C   C270      1.0  0.15184  0.67136  0.25859  1.0000
  H   H467      1.0  0.40631  0.88835  0.27683  1.0000
  H   H468      1.0  0.31712  0.72917  0.08583  1.0000
  H   H469      1.0  0.21555  0.79297  0.01962  1.0000
  C   C271      1.0  0.29054  0.75290  0.45486  1.0000
  C   C272      1.0  0.29912  0.68519  0.41445  1.0000
  C   C273      1.0  0.22816  0.77759  0.06452  1.0000
  H   H470      1.0  0.25137  0.71155  0.47354  1.0000
  C   C274      1.0  0.26321  0.73803  0.07108  1.0000
  H   H471      1.0  0.09984  0.92079  0.33426  1.0000
  H   H472      1.0  0.11359  0.85615  0.30174  1.0000
  H   H473      1.0  0.29171  0.81255  0.11630  1.0000
  C   C275      1.0  0.23797  0.78310  0.03091  1.0000
  H   H474      1.0  0.32328  0.67362  0.37138  1.0000
  H   H475      1.0  0.26441  0.82000  0.08385  1.0000
  H   H476      1.0  0.26649  0.75911  0.13200  1.0000
  H   H477      1.0  0.13104  0.76924  0.24697  1.0000
  H   H478      1.0  0.13213  0.71909  0.28631  1.0000
  H   H479      1.0  0.13644  0.90252  0.40236  1.0000
  H   H480      1.0  0.30998  0.82053  0.07946  1.0000
  H   H481      1.0  0.30303  0.77869  0.05973  1.0000
  H   H482      1.0  0.24300  0.76481  0.01773  1.0000
  C   C276      1.0  0.28848  0.80991  0.09130  1.0000
  S   S76       1.0  0.37056  0.97274  0.21043  1.0000
  H   H483      1.0  0.28355  0.66669  0.41442  1.0000
  H   H484      1.0  0.10418  0.85740  0.37108  1.0000
  C   C277      1.0  0.30993  0.69120  0.38117  1.0000
  H   H485      1.0  0.23239  0.72999  0.42690  1.0000
  H   H486      1.0  0.09018  0.89073  0.37451  1.0000
  H   H487      1.0  0.15165  0.75821  0.01739  1.0000
  H   H488      1.0  0.19202  0.86868  0.30672  1.0000
  H   H489      1.0  0.05699  0.68882  0.21499  1.0000
  H   H490      1.0  0.07468  0.71050  0.18594  1.0000
  H   H491      1.0  0.39241  0.97280  0.11001  1.0000
  C   C278      1.0  0.22271  0.69351  0.40380  1.0000
  H   H492      1.0  0.31013  0.76901  0.45484  1.0000
  H   H493      1.0  0.26590  0.76152  0.44627  1.0000
  C   C279      1.0  0.30397  0.73022  0.43431  1.0000
  H   H494      1.0  0.16209  0.73954  0.17313  1.0000
  C   C280      1.0  0.22149  0.78443  0.13028  1.0000
  H   H495      1.0  0.19495  0.78470  0.12017  1.0000
  H   H496      1.0  0.03662  0.71956  0.20700  1.0000
  C   C281      1.0  0.50005  0.96459  0.37845  1.0000
  Fe  Fe38      1.0  0.15341  0.65740  0.14541  1.0000
  H   H497      1.0  0.02726  0.81339  0.43127  1.0000
  S   S77       1.0  0.45972  0.96222  0.32662  1.0000
  H   H498      1.0  0.01914  0.80069  0.31957  1.0000
  C   C282      1.0  0.02740  0.65718  0.15927  1.0000
  H   H499      1.0  0.03031  0.66137  0.07117  1.0000
  C   C283      1.0  0.02528  0.81014  0.40696  1.0000
  Fe  Fe39      1.0  0.43129  0.97301  0.28198  1.0000
  S   S78       1.0  0.19600  0.65291  0.18039  1.0000
  C   C284      1.0  0.29752  0.68914  0.48405  1.0000
  S   S79       1.0  0.37274  0.97907  0.28488  1.0000
  H   H500      1.0  0.36214  0.96258  0.37518  1.0000
  C   C285      1.0  0.02941  0.66036  0.09581  1.0000
  C   C286      1.0  0.06082  0.65901  0.11233  1.0000
  H   H501      1.0  0.31261  0.67183  0.47580  1.0000
  H   H502      1.0  0.02643  0.65546  0.18382  1.0000
  H   H503      1.0  0.28687  0.74686  0.47895  1.0000
  H   H504      1.0  0.31540  0.70569  0.48906  1.0000
  H   H505      1.0  0.50424  0.93971  0.70899  1.0000
  S   S80       1.0  0.17416  0.68754  0.62357  1.0000
  S   S81       1.0  0.25410  0.66304  0.61604  1.0000
  H   H506      1.0  0.15837  0.67383  0.77726  1.0000
  Fe  Fe40      1.0  0.22300  0.68533  0.65173  1.0000
  S   S82       1.0  0.23765  0.72368  0.67439  1.0000
  H   H507      1.0  0.49301  0.93736  0.60547  1.0000
  S   S83       1.0  0.43981  0.94236  0.74577  1.0000
  H   H508      1.0  0.10515  0.74291  0.75487  1.0000
  C   C287      1.0  0.12597  0.72756  0.75577  1.0000
  Fe  Fe41      1.0  0.38273  0.95084  0.75475  1.0000
  S   S84       1.0  0.33928  0.91960  0.75815  1.0000
  Fe  Fe42      1.0  0.21343  0.76410  0.84349  1.0000
  S   S85       1.0  0.19401  0.80049  0.82018  1.0000
  S   S86       1.0  0.24120  0.73102  0.81855  1.0000
  Fe  Fe43      1.0  0.18605  0.78089  0.90674  1.0000
  S   S87       1.0  0.16464  0.81893  0.88753  1.0000
  S   S88       1.0  0.17388  0.77344  0.95733  1.0000
  Fe  Fe44      1.0  0.14533  0.79408  0.84854  1.0000
  S   S89       1.0  0.09170  0.79008  0.82686  1.0000
  Fe  Fe45      1.0  0.21548  0.82205  0.86086  1.0000
  S   S90       1.0  0.25136  0.85841  0.86095  1.0000
  S   S91       1.0  0.16377  0.75613  0.86915  1.0000
  S   S92       1.0  0.23789  0.78560  0.88291  1.0000
  C   C288      1.0  0.05427  0.80098  0.84699  1.0000
  C   C289      1.0  0.05564  0.82265  0.86663  1.0000
  H   H509      1.0  0.06747  0.80699  0.92554  1.0000
  H   H510      1.0  0.08014  0.83277  0.87012  1.0000
  C   C290      1.0  0.30629  0.97951  0.81443  1.0000
  C   C291      1.0  0.31484  0.90339  0.78736  1.0000
  C   C292      1.0  0.28664  0.88719  0.77889  1.0000
  C   C293      1.0  0.26687  0.87339  0.80097  1.0000
  C   C294      1.0  0.27499  0.87563  0.83196  1.0000
  C   C295      1.0  0.30273  0.89226  0.84046  1.0000
  C   C296      1.0  0.32260  0.90599  0.81837  1.0000
  H   H511      1.0  0.28012  0.88521  0.75501  1.0000
  H   H512      1.0  0.24518  0.86120  0.79406  1.0000
  H   H513      1.0  0.30910  0.89436  0.86436  1.0000
  H   H514      1.0  0.34406  0.91840  0.82536  1.0000
  H   H515      1.0  0.08682  0.73056  0.90663  1.0000
  H   H516      1.0  0.04809  0.78996  0.73987  1.0000
  H   H517      1.0  0.09512  0.67865  0.61500  1.0000
  C   C297      1.0  0.20818  0.72625  0.97005  1.0000
  C   C298      1.0  0.18454  0.74554  0.97997  1.0000
  C   C299      1.0  0.13790  0.73152  0.68678  1.0000
  H   H518      1.0  0.09987  0.70040  0.68800  1.0000
  H   H519      1.0  0.12776  0.73816  0.66437  1.0000
  H   H520      1.0  0.21973  0.72763  0.94753  1.0000
  H   H521      1.0  0.21210  0.71931  0.55568  1.0000
  H   H522      1.0  0.22960  0.94829  0.80030  1.0000
  C   C300      1.0  0.23621  0.72451  0.71448  1.0000
  C   C301      1.0  0.22313  0.74701  0.72927  1.0000
  C   C302      1.0  0.22267  0.74854  0.76126  1.0000
  C   C303      1.0  0.23672  0.72807  0.77865  1.0000
  C   C304      1.0  0.24932  0.70538  0.76386  1.0000
  C   C305      1.0  0.24863  0.70343  0.73186  1.0000
  H   H523      1.0  0.21337  0.76331  0.71590  1.0000
  H   H524      1.0  0.21274  0.76603  0.77232  1.0000
  H   H525      1.0  0.26011  0.68940  0.77715  1.0000
  H   H526      1.0  0.25879  0.68600  0.72059  1.0000
  H   H527      1.0  0.16086  0.71699  0.79354  1.0000
  C   C306      1.0  0.03115  0.77723  0.97096  1.0000
  N   N23       1.0  0.32329  0.79865  0.79031  1.0000
  C   C307      1.0  0.29823  0.78980  0.76588  1.0000
  C   C308      1.0  0.34989  0.77692  0.79418  1.0000
  C   C309      1.0  0.34075  0.82364  0.77934  1.0000
  C   C310      1.0  0.30249  0.80361  0.81908  1.0000
  C   C311      1.0  0.27084  0.81031  0.75555  1.0000
  C   C312      1.0  0.33546  0.75014  0.80513  1.0000
  C   C313      1.0  0.37685  0.83044  0.79265  1.0000
  C   C314      1.0  0.32316  0.81131  0.84780  1.0000
  H   H528      1.0  0.31270  0.78322  0.74503  1.0000
  H   H529      1.0  0.28309  0.77246  0.77366  1.0000
  H   H530      1.0  0.37057  0.78240  0.81056  1.0000
  H   H531      1.0  0.36399  0.77336  0.77221  1.0000
  H   H532      1.0  0.34484  0.82307  0.75413  1.0000
  H   H533      1.0  0.32364  0.84097  0.78372  1.0000
  H   H534      1.0  0.28367  0.82000  0.81564  1.0000
  H   H535      1.0  0.28504  0.78677  0.82476  1.0000
  H   H536      1.0  0.25551  0.80178  0.73650  1.0000
  H   H537      1.0  0.25187  0.81500  0.77397  1.0000
  H   H538      1.0  0.28278  0.82870  0.74682  1.0000
  H   H539      1.0  0.31848  0.74066  0.78789  1.0000
  H   H540      1.0  0.35765  0.73640  0.80887  1.0000
  H   H541      1.0  0.32120  0.75180  0.82716  1.0000
  H   H542      1.0  0.37709  0.83085  0.81783  1.0000
  H   H543      1.0  0.38431  0.85051  0.78486  1.0000
  H   H544      1.0  0.39731  0.81672  0.78404  1.0000
  H   H545      1.0  0.32790  0.83289  0.84847  1.0000
  H   H546      1.0  0.34803  0.80051  0.85035  1.0000
  H   H547      1.0  0.30771  0.80600  0.86838  1.0000
  H   H548      1.0  0.10821  0.74669  0.95125  1.0000
  C   C315      1.0  0.08831  0.68817  0.74489  1.0000
  H   H549      1.0  0.05879  0.71285  0.95160  1.0000
  H   H550      1.0  0.12144  0.65808  0.52450  1.0000
  C   C316      1.0  0.21750  0.70533  0.98958  1.0000
  C   C317      1.0  0.20305  0.71925  0.53233  1.0000
  H   H551      1.0  0.11029  0.79961  0.98467  1.0000
  H   H552      1.0  0.11213  0.82662  0.95890  1.0000
  H   H553      1.0  0.21115  0.76096  0.52606  1.0000
  H   H554      1.0  0.14965  0.73837  0.74813  1.0000
  H   H555      1.0  0.23613  0.69068  0.98177  1.0000
  H   H556      1.0  0.17449  0.70040  0.72846  1.0000
  H   H557      1.0  0.28531  0.68334  0.50613  1.0000
  C   C318      1.0  0.13267  0.72093  0.78955  1.0000
  H   H558      1.0  0.04221  0.71057  0.72912  1.0000
  H   H559      1.0  0.26856  0.94745  0.77828  1.0000
  C   C319      1.0  0.15810  0.66638  0.75359  1.0000
  H   H560      1.0  0.10591  0.78793  0.92819  1.0000
  H   H561      1.0  0.30540  0.96978  0.75252  1.0000
  H   H562      1.0  0.16097  0.71898  0.68177  1.0000
  H   H563      1.0  0.14620  0.74940  0.69932  1.0000
  N   N24       1.0  0.06059  0.77000  0.94950  1.0000
  H   H564      1.0  0.02465  0.77194  0.76813  1.0000
  H   H565      1.0  0.05721  0.73997  0.87727  1.0000
  C   C320      1.0  0.07025  0.67017  0.62135  1.0000
  H   H566      1.0  0.08452  0.67702  0.53644  1.0000
  C   C321      1.0  0.07163  0.74735  0.89746  1.0000
  N   N25       1.0  0.11857  0.70492  0.73440  1.0000
  C   C322      1.0  0.15071  0.68798  0.72978  1.0000
  C   C323      1.0  0.48982  0.97146  0.63482  1.0000
  C   C324      1.0  0.20251  0.74285  0.51546  1.0000
  C   C325      1.0  0.02505  0.83166  0.88129  1.0000
  C   C326      1.0  0.06787  0.72329  0.97230  1.0000
  S   S93       1.0  0.19548  0.66513  0.53842  1.0000
  C   C327      1.0  0.04059  0.67464  0.60318  1.0000
  S   S94       1.0  0.45822  0.95675  0.65926  1.0000
  H   H567      1.0  0.12484  0.73807  0.80391  1.0000
  C   C328      1.0  0.04518  0.75865  0.92078  1.0000
  H   H568      1.0  0.14935  0.67739  0.70754  1.0000
  C   C329      1.0  0.05355  0.70293  0.75058  1.0000
  C   C330      1.0  0.08205  0.79384  0.94116  1.0000
  H   H569      1.0  0.28428  0.96865  0.82505  1.0000
  Fe  Fe46      1.0  0.20345  0.66231  0.58999  1.0000
  C   C331      1.0  0.09471  0.81098  0.96803  1.0000
  C   C332      1.0  0.19260  0.69561  0.51880  1.0000
  C   C333      1.0  0.10881  0.71630  0.70375  1.0000
  C   C334      1.0  0.24178  0.95547  0.77880  1.0000
  H   H570      1.0  0.02624  0.84864  0.89624  1.0000
  H   H571      1.0  0.04283  0.68655  0.58284  1.0000
  H   H572      1.0  0.11697  0.70437  0.79832  1.0000
  C   C335      1.0  0.50272  0.95703  0.60968  1.0000
  C   C336      1.0  0.27502  0.98330  0.71487  1.0000
  C   C337      1.0  0.49105  0.98183  0.86306  1.0000
  H   H573      1.0  0.08653  0.73029  0.70594  1.0000
  H   H574      1.0  0.32158  0.96623  0.79938  1.0000
  Fe  Fe47      1.0  0.43588  0.96967  0.70549  1.0000
  S   S95       1.0  0.50340  0.97983  0.79996  1.0000
  C   C338      1.0  0.06795  0.65376  0.64688  1.0000
  H   H575      1.0  0.08322  0.67225  0.72785  1.0000
  H   H576      1.0  0.02574  0.74303  0.92612  1.0000
  H   H577      1.0  0.08967  0.76275  0.88903  1.0000
  H   H578      1.0  0.08825  0.71061  0.98280  1.0000
  H   H579      1.0  0.09417  0.67752  0.76629  1.0000
  C   C339      1.0  0.08414  0.75035  0.96501  1.0000
  H   H580      1.0  0.09365  0.75826  0.98710  1.0000
  H   H581      1.0  0.22691  0.94617  0.75995  1.0000
  H   H582      1.0  0.03353  0.80661  0.77338  1.0000
  S   S96       1.0  0.37801  0.97533  0.71193  1.0000
  H   H583      1.0  0.04625  0.72486  0.98916  1.0000
  H   H584      1.0  0.01880  0.81716  0.95290  1.0000
  H   H585      1.0  0.05640  0.71906  0.76749  1.0000
  H   H586      1.0  0.03020  0.77399  0.90832  1.0000
  C   C340      1.0  0.10022  0.65920  0.54183  1.0000
  H   H587      1.0  0.29265  0.97144  0.69996  1.0000
  H   H588      1.0  0.07278  0.82105  0.97991  1.0000
  Fe  Fe48      1.0  0.45132  0.97888  0.77357  1.0000
  H   H589      1.0  0.03418  0.68884  0.76008  1.0000
  H   H590      1.0  0.02132  0.77103  0.82779  1.0000
  C   C341      1.0  0.02617  0.79126  0.75654  1.0000
  H   H591      1.0  0.11184  0.66225  0.56463  1.0000
  C   C342      1.0  0.51545  0.98307  0.83920  1.0000
  C   C343      1.0  0.02225  0.78814  0.84247  1.0000
  H   H592      1.0  0.48296  0.98254  0.91192  1.0000
  H   H593      1.0  0.25066  0.97187  0.71786  1.0000
  H   H594      1.0  0.46366  0.97923  0.85795  1.0000
  H   H595      1.0  0.18443  0.65789  0.74897  1.0000
  H   H596      1.0  0.37627  0.98328  0.62205  1.0000
  H   H597      1.0  0.04139  0.78367  0.99349  1.0000
  C   C344      1.0  0.50212  0.98375  0.89372  1.0000
  H   H598      1.0  0.51595  0.89992  0.90729  1.0000
  Fe  Fe49      1.0  0.85383  0.18797  0.09381  1.0000
  S   S97       1.0  0.86210  0.14794  0.07320  1.0000
  S   S98       1.0  0.83666  0.22392  0.06769  1.0000
  Fe  Fe50      1.0  0.86769  0.16992  0.15900  1.0000
  S   S99       1.0  0.87616  0.12787  0.14341  1.0000
  S   S100      1.0  0.87696  0.18022  0.20922  1.0000
  Fe  Fe51      1.0  0.90790  0.14572  0.10541  1.0000
  S   S101      1.0  0.96041  0.13035  0.08872  1.0000
  Fe  Fe52      1.0  0.82958  0.13346  0.11249  1.0000
  S   S102      1.0  0.78292  0.10523  0.10896  1.0000
  S   S103      1.0  0.90218  0.18717  0.12247  1.0000
  S   S104      1.0  0.81859  0.17405  0.13162  1.0000
  S   S105      1.0  0.86665  0.30109  0.42290  1.0000
  H   H599      1.0  0.81911  0.25239  0.12890  1.0000
  H   H600      1.0  0.79290  0.30402  0.15968  1.0000
  H   H601      1.0  0.76957  0.02381  0.07527  1.0000
  H   H602      1.0  0.71100  0.16183  0.01443  1.0000
  H   H603      1.0  0.82957  0.26261  0.16602  1.0000
  Fe  Fe53      1.0  0.85796  0.29124  0.33474  1.0000
  S   S106      1.0  0.84658  0.28594  0.28385  1.0000
  Fe  Fe54      1.0  0.84269  0.26751  0.39707  1.0000
  S   S107      1.0  0.82336  0.22930  0.41726  1.0000
  H   H604      1.0  0.88455  0.25331  0.10883  1.0000
  H   H605      1.0  0.81966  0.01109  0.47718  1.0000
  S   S108      1.0  0.81125  0.29353  0.36621  1.0000
  S   S109      1.0  0.88734  0.26275  0.36412  1.0000
  C   C345      1.0  0.89375  0.24949  0.15642  1.0000
  C   C346      1.0  0.88676  0.26719  0.12851  1.0000
  C   C347      1.0  0.83064  0.24463  0.01038  1.0000
  C   C348      1.0  0.00330  0.30101  0.38483  1.0000
  C   C349      1.0  0.84545  0.22466  0.02821  1.0000
  H   H606      1.0  0.79751  0.99645  0.07760  1.0000
  H   H607      1.0  0.78422  0.13444  0.34586  1.0000
  C   C350      1.0  0.82038  0.22926  0.45726  1.0000
  H   H608      1.0  0.74252  0.00280  0.03615  1.0000
  C   C351      1.0  0.92156  0.23741  0.45884  1.0000
  H   H609      1.0  0.81462  0.25969  0.02103  1.0000
  H   H610      1.0  0.82645  0.14473  0.35987  1.0000
  H   H611      1.0  0.80726  0.27042  0.46113  1.0000
  H   H612      1.0  0.77466  0.01922  0.48056  1.0000
  C   C352      1.0  0.86991  0.21080  0.22801  1.0000
  C   C353      1.0  0.88966  0.21676  0.25408  1.0000
  C   C354      1.0  0.88319  0.23988  0.27110  1.0000
  C   C355      1.0  0.85660  0.25719  0.26241  1.0000
  C   C356      1.0  0.83709  0.25141  0.23613  1.0000
  C   C357      1.0  0.84358  0.22827  0.21908  1.0000
  H   H613      1.0  0.91003  0.20333  0.26121  1.0000
  H   H614      1.0  0.89877  0.24432  0.29097  1.0000
  H   H615      1.0  0.81621  0.26455  0.22944  1.0000
  H   H616      1.0  0.82755  0.22349  0.19961  1.0000
  C   C358      1.0  0.72877  0.06219  0.02894  1.0000
  C   C359      1.0  0.71360  0.06295  0.05804  1.0000
  C   C360      1.0  0.73058  0.07615  0.08215  1.0000
  C   C361      1.0  0.76306  0.08858  0.07768  1.0000
  C   C362      1.0  0.77871  0.08715  0.04878  1.0000
  C   C363      1.0  0.76151  0.07425  0.02454  1.0000
  H   H617      1.0  0.68853  0.05368  0.06193  1.0000
  H   H618      1.0  0.71834  0.07684  0.10447  1.0000
  H   H619      1.0  0.80420  0.09580  0.04529  1.0000
  H   H620      1.0  0.77561  0.18139  0.07773  1.0000
  H   H621      1.0  0.87830  0.19015  0.02785  1.0000
  C   C364      1.0  0.99856  0.13841  0.10929  1.0000
  C   C365      1.0  0.99698  0.15404  0.13560  1.0000
  H   H622      1.0  0.86528  0.30948  0.05521  1.0000
  H   H623      1.0  0.97196  0.16088  0.14409  1.0000
  Fe  Fe55      1.0  0.66840  0.01836  0.49567  1.0000
  C   C366      1.0  0.82435  0.27034  0.14292  1.0000
  C   C367      1.0  0.79311  0.00230  0.47858  1.0000
  S   S110      1.0  0.58828  0.99681  0.09065  1.0000
  Fe  Fe56      1.0  0.60497  0.99943  0.45734  1.0000
  S   S111      1.0  0.71367  0.04774  0.49357  1.0000
  C   C368      1.0  0.81225  0.25231  0.47335  1.0000
  C   C369      1.0  0.77132  0.00201  0.03245  1.0000
  C   C370      1.0  0.76109  0.18006  0.05598  1.0000
  H   H624      1.0  0.89943  0.23655  0.44255  1.0000
  H   H625      1.0  0.75809  0.20057  0.04772  1.0000
  H   H626      1.0  0.68046  0.98767  0.36634  1.0000
  H   H627      1.0  0.73528  0.17143  0.06161  1.0000
  H   H628      1.0  0.91097  0.27879  0.12434  1.0000
  S   S112      1.0  0.66692  0.98534  0.03681  1.0000
  H   H629      1.0  0.94579  0.29839  0.47342  1.0000
  C   C371      1.0  0.78996  0.28610  0.14542  1.0000
  H   H630      1.0  0.56522  0.00554  0.15223  1.0000
  H   H631      1.0  0.83402  0.27609  0.08520  1.0000
  H   H632      1.0  0.89441  0.26025  0.17830  1.0000
  Fe  Fe57      1.0  0.66365  0.01629  0.00070  1.0000
  H   H633      1.0  0.93744  0.25472  0.45233  1.0000
  H   H634      1.0  0.55110  0.02688  0.35448  1.0000
  H   H635      1.0  0.77193  0.08308  0.49365  1.0000
  H   H636      1.0  0.84871  0.98986  0.04723  1.0000
  C   C372      1.0  0.84582  0.29291  0.09771  1.0000
  H   H637      1.0  0.84209  0.15223  0.99804  1.0000
  H   H638      1.0  0.01330  0.21875  0.45659  1.0000
  S   S113      1.0  0.60564  0.02280  0.00719  1.0000
  N   N26       1.0  0.81796  0.18815  0.32184  1.0000
  C   C373      1.0  0.80023  0.20767  0.30098  1.0000
  C   C374      1.0  0.83439  0.16725  0.30176  1.0000
  C   C375      1.0  0.84633  0.20263  0.33867  1.0000
  C   C376      1.0  0.79101  0.17744  0.34384  1.0000
  C   C377      1.0  0.78618  0.23310  0.31610  1.0000
  C   C378      1.0  0.80921  0.15292  0.28000  1.0000
  C   C379      1.0  0.86893  0.18639  0.36066  1.0000
  C   C380      1.0  0.79860  0.15017  0.35815  1.0000
  H   H639      1.0  0.81821  0.21375  0.28230  1.0000
  H   H640      1.0  0.77748  0.19854  0.28935  1.0000
  H   H641      1.0  0.84798  0.15187  0.31504  1.0000
  H   H642      1.0  0.85538  0.17601  0.28725  1.0000
  H   H643      1.0  0.86436  0.21234  0.32222  1.0000
  H   H644      1.0  0.83512  0.21869  0.35297  1.0000
  H   H645      1.0  0.78640  0.19167  0.36289  1.0000
  H   H646      1.0  0.76537  0.17533  0.33217  1.0000
  H   H647      1.0  0.76970  0.24392  0.29949  1.0000
  H   H648      1.0  0.76995  0.22908  0.33659  1.0000
  H   H649      1.0  0.80780  0.24663  0.32210  1.0000
  H   H650      1.0  0.80232  0.16562  0.26031  1.0000
  H   H651      1.0  0.82253  0.13527  0.27029  1.0000
  H   H652      1.0  0.78509  0.14626  0.29172  1.0000
  H   H653      1.0  0.85350  0.17985  0.38075  1.0000
  H   H654      1.0  0.88976  0.19936  0.36982  1.0000
  H   H655      1.0  0.88231  0.16961  0.34937  1.0000
  H   H656      1.0  0.78802  0.15000  0.38183  1.0000
  H   H657      1.0  0.85262  0.29260  0.19330  1.0000
  H   H658      1.0  0.97677  0.30971  0.34289  1.0000
  H   H659      1.0  0.78832  0.00537  0.42954  1.0000
  Fe  Fe58      1.0  0.90976  0.29820  0.38761  1.0000
  H   H660      1.0  0.83263  0.18793  0.46087  1.0000
  C   C381      1.0  0.86622  0.20534  0.01423  1.0000
  C   C382      1.0  0.00185  0.30765  0.35392  1.0000
  H   H661      1.0  0.87428  0.23337  0.15793  1.0000
  H   H662      1.0  0.89547  0.28742  0.07235  1.0000
  H   H663      1.0  0.77952  0.29135  0.12268  1.0000
  H   H664      1.0  0.91968  0.23986  0.15361  1.0000
  S   S114      1.0  0.66286  0.99105  0.45532  1.0000
  N   N27       1.0  0.85517  0.28511  0.12996  1.0000
  S   S115      1.0  0.57878  0.01083  0.41221  1.0000
  C   C383      1.0  0.78887  0.01206  0.06188  1.0000
  H   H665      1.0  0.76992  0.27358  0.15666  1.0000
  C   C384      1.0  0.54466  0.99743  0.38941  1.0000
  C   C385      1.0  0.53684  0.00948  0.36134  1.0000
  H   H666      1.0  0.79223  0.12043  0.99915  1.0000
  H   H667      1.0  0.81124  0.02516  0.05639  1.0000
  C   C386      1.0  0.78242  0.16283  0.03348  1.0000
  C   C387      1.0  0.82635  0.20581  0.47325  1.0000
  S   S116      1.0  0.96498  0.29577  0.40692  1.0000
  H   H668      1.0  0.93695  0.21912  0.45525  1.0000
  H   H669      1.0  0.77381  0.07330  0.00229  1.0000
  H   H670      1.0  0.73093  0.13248  0.02807  1.0000
  C   C388      1.0  0.87608  0.30315  0.07753  1.0000
  H   H671      1.0  0.89661  0.30447  0.18753  1.0000
  H   H672      1.0  0.82544  0.30861  0.09763  1.0000
  Fe  Fe59      1.0  0.60856  0.99010  0.04186  1.0000
  C   C389      1.0  0.54594  0.99308  0.14150  1.0000
  H   H673      1.0  0.78769  0.14381  0.04528  1.0000
  C   C390      1.0  0.86863  0.30785  0.18213  1.0000
  H   H674      1.0  0.80813  0.17273  0.03110  1.0000
  C   C391      1.0  0.86309  0.31006  0.14739  1.0000
  C   C392      1.0  0.73030  0.14622  0.00820  1.0000
  H   H675      1.0  0.77585  0.01764  0.01519  1.0000
  C   C393      1.0  0.78698  0.98966  0.44712  1.0000
  S   S117      1.0  0.61157  0.02947  0.49490  1.0000
  H   H676      1.0  0.97582  0.26434  0.49338  1.0000
  C   C394      1.0  0.90668  0.23931  0.49161  1.0000
  C   C395      1.0  0.55079  0.98535  0.11086  1.0000
  H   H677      1.0  0.88505  0.25376  0.49101  1.0000
  N   N28       1.0  0.76603  0.15807  0.00269  1.0000
  H   H678      1.0  0.74434  0.19735  0.99873  1.0000
  H   H679      1.0  0.90683  0.29238  0.49496  1.0000
  H   H680      1.0  0.89345  0.22025  0.49642  1.0000
  H   H681      1.0  0.76706  0.17076  0.49576  1.0000
  S   S118      1.0  0.70794  0.04664  0.99740  1.0000
  H   H682      1.0  0.63948  0.98498  0.38503  1.0000
  H   H683      1.0  0.96934  0.21733  0.49658  1.0000
  C   C396      1.0  0.93551  0.29385  0.49658  1.0000
  Fe  Fe60      1.0  0.83996  0.19556  0.58764  1.0000
  S   S119      1.0  0.86256  0.15914  0.56626  1.0000
  S   S120      1.0  0.81526  0.22900  0.56153  1.0000
  Fe  Fe61      1.0  0.85666  0.17812  0.65281  1.0000
  S   S121      1.0  0.88111  0.14014  0.63595  1.0000
  S   S122      1.0  0.84559  0.18463  0.70361  1.0000
  Fe  Fe62      1.0  0.90642  0.16541  0.59980  1.0000
  S   S123      1.0  0.96099  0.16464  0.57880  1.0000
  Fe  Fe63      1.0  0.83519  0.13717  0.60387  1.0000
  S   S124      1.0  0.80069  0.10033  0.60169  1.0000
  S   S125      1.0  0.88516  0.20350  0.61879  1.0000
  S   S126      1.0  0.80949  0.17352  0.62302  1.0000
  H   H684      1.0  0.83987  0.13301  0.96421  1.0000
  C   C397      1.0  0.88959  0.27205  0.55064  1.0000
  C   C398      1.0  0.75948  0.98515  0.96574  1.0000
  C   C399      1.0  0.82530  0.20560  0.50529  1.0000
  H   H685      1.0  0.72776  0.11087  0.97900  1.0000
  H   H686      1.0  0.93183  0.24877  0.56587  1.0000
  Fe  Fe64      1.0  0.86141  0.28916  0.83814  1.0000
  S   S127      1.0  0.87325  0.28514  0.78723  1.0000
  Fe  Fe65      1.0  0.85831  0.26388  0.90174  1.0000
  S   S128      1.0  0.86045  0.22399  0.92451  1.0000
  C   C400      1.0  0.76335  0.18429  0.98672  1.0000
  C   C401      1.0  0.98646  0.22331  0.54213  1.0000
  S   S129      1.0  0.81702  0.27683  0.86872  1.0000
  S   S130      1.0  0.90208  0.27270  0.86928  1.0000
  H   H687      1.0  0.91509  0.14738  0.77838  1.0000
  H   H688      1.0  0.99300  0.30324  0.79620  1.0000
  H   H689      1.0  0.00355  0.24060  0.53842  1.0000
  H   H690      1.0  0.94118  0.31144  0.51082  1.0000
  C   C402      1.0  0.81707  0.22861  0.52141  1.0000
  C   C403      1.0  0.76661  0.15348  0.51110  1.0000
  H   H691      1.0  0.66957  0.16439  0.55056  1.0000
  C   C404      1.0  0.85595  0.22526  0.96452  1.0000
  C   C405      1.0  0.82498  0.01993  0.53592  1.0000
  H   H692      1.0  0.84968  0.00887  0.53231  1.0000
  H   H693      1.0  0.83085  0.18763  0.51739  1.0000
  H   H694      1.0  0.80319  0.26966  0.51767  1.0000
  H   H695      1.0  0.88718  0.19048  0.97171  1.0000
  H   H696      1.0  0.92086  0.17360  0.75122  1.0000
  C   C406      1.0  0.85076  0.21430  0.72452  1.0000
  C   C407      1.0  0.87582  0.23308  0.71646  1.0000
  C   C408      1.0  0.88194  0.25488  0.73568  1.0000
  C   C409      1.0  0.86312  0.25815  0.76310  1.0000
  C   C410      1.0  0.83721  0.23988  0.77062  1.0000
  C   C411      1.0  0.83124  0.21797  0.75152  1.0000
  H   H697      1.0  0.89106  0.23044  0.69580  1.0000
  H   H698      1.0  0.90173  0.26909  0.72946  1.0000
  H   H699      1.0  0.82185  0.24259  0.79119  1.0000
  H   H700      1.0  0.81163  0.20364  0.75780  1.0000
  C   C412      1.0  0.73678  0.06270  0.52406  1.0000
  C   C413      1.0  0.72850  0.05780  0.55464  1.0000
  C   C414      1.0  0.74847  0.06938  0.57805  1.0000
  C   C415      1.0  0.77655  0.08627  0.57124  1.0000
  C   C416      1.0  0.78490  0.09105  0.54066  1.0000
  C   C417      1.0  0.76509  0.07936  0.51723  1.0000
  H   H701      1.0  0.70688  0.04497  0.56027  1.0000
  H   H702      1.0  0.74195  0.06539  0.60165  1.0000
  H   H703      1.0  0.80700  0.10342  0.53513  1.0000
  H   H704      1.0  0.97067  0.28549  0.86327  1.0000
  H   H705      1.0  0.82384  0.26018  0.96496  1.0000
  C   C418      1.0  0.99970  0.16344  0.60076  1.0000
  C   C419      1.0  0.99870  0.16243  0.63264  1.0000
  H   H706      1.0  0.71346  0.14077  0.96018  1.0000
  H   H707      1.0  0.97378  0.16234  0.64443  1.0000
  N   N29       1.0  0.72473  0.17348  0.55151  1.0000
  C   C420      1.0  0.72417  0.19973  0.53520  1.0000
  H   H708      1.0  0.94925  0.17183  0.78254  1.0000
  C   C421      1.0  0.72171  0.17900  0.58527  1.0000
  H   H709      1.0  0.79287  0.14424  0.50919  1.0000
  C   C422      1.0  0.80992  0.25184  0.50534  1.0000
  H   H710      1.0  0.69293  0.23439  0.52505  1.0000
  H   H711      1.0  0.82317  0.03652  0.51954  1.0000
  H   H712      1.0  0.57019  0.98753  0.82847  1.0000
  H   H713      1.0  0.74774  0.21152  0.54097  1.0000
  H   H714      1.0  0.67161  0.12042  0.55738  1.0000
  C   C423      1.0  0.71407  0.13004  0.98205  1.0000
  H   H715      1.0  0.78124  0.17467  0.55187  1.0000
  H   H716      1.0  0.74321  0.19236  0.59263  1.0000
  H   H717      1.0  0.69694  0.18950  0.59069  1.0000
  C   C424      1.0  0.95643  0.22156  0.51877  1.0000
  H   H718      1.0  0.71780  0.12030  0.56050  1.0000
  H   H719      1.0  0.79286  0.98990  0.55534  1.0000
  H   H720      1.0  0.95354  0.15888  0.86147  1.0000
  H   H721      1.0  0.69330  0.22665  0.56451  1.0000
  S   S131      1.0  0.57407  0.00758  0.57182  1.0000
  H   H722      1.0  0.72190  0.16231  0.63077  1.0000
  H   H723      1.0  0.94333  0.14373  0.82511  1.0000
  H   H724      1.0  0.97685  0.22293  0.56604  1.0000
  C   C425      1.0  0.54128  0.99306  0.59523  1.0000
  H   H725      1.0  0.82522  0.16635  0.96289  1.0000
  C   C426      1.0  0.69449  0.15713  0.54031  1.0000
  H   H726      1.0  0.82604  0.02906  0.55900  1.0000
  S   S132      1.0  0.86183  0.30259  0.92637  1.0000
  N   N30       1.0  0.90300  0.19199  0.82629  1.0000
  C   C427      1.0  0.87567  0.21124  0.83773  1.0000
  C   C428      1.0  0.93814  0.20496  0.83039  1.0000
  C   C429      1.0  0.90022  0.16745  0.84564  1.0000
  C   C430      1.0  0.89544  0.18606  0.79328  1.0000
  C   C431      1.0  0.83776  0.20092  0.83959  1.0000
  C   C432      1.0  0.94535  0.22916  0.81003  1.0000
  H   H727      1.0  0.76471  0.14326  0.55841  1.0000
  C   C433      1.0  0.92182  0.16854  0.77589  1.0000
  H   H728      1.0  0.88229  0.21817  0.86111  1.0000
  H   H729      1.0  0.87474  0.22919  0.82335  1.0000
  H   H730      1.0  0.96005  0.19118  0.82581  1.0000
  H   H731      1.0  0.94154  0.21115  0.85464  1.0000
  H   H732      1.0  0.89392  0.17276  0.86982  1.0000
  H   H733      1.0  0.87818  0.15491  0.83775  1.0000
  H   H734      1.0  0.86980  0.17604  0.79087  1.0000
  H   H735      1.0  0.89212  0.20447  0.77996  1.0000
  H   H736      1.0  0.82063  0.21711  0.84804  1.0000
  H   H737      1.0  0.82751  0.19496  0.81703  1.0000
  H   H738      1.0  0.83493  0.18454  0.85611  1.0000
  H   H739      1.0  0.97133  0.23741  0.81591  1.0000
  H   H740      1.0  0.94622  0.22383  0.78547  1.0000
  H   H741      1.0  0.92613  0.24520  0.81357  1.0000
  H   H742      1.0  0.52265  0.02834  0.71221  1.0000
  H   H743      1.0  0.75453  0.00625  0.97058  1.0000
  H   H744      1.0  0.72290  0.18556  0.95137  1.0000
  H   H745      1.0  0.76923  0.01494  0.53637  1.0000
  C   C434      1.0  0.99484  0.29488  0.86904  1.0000
  H   H746      1.0  0.56731  0.02533  0.72248  1.0000
  H   H747      1.0  0.69749  0.14325  0.60441  1.0000
  C   C435      1.0  0.69611  0.12702  0.54606  1.0000
  C   C436      1.0  0.91341  0.24778  0.54646  1.0000
  Fe  Fe66      1.0  0.82265  0.31669  0.89171  1.0000
  H   H748      1.0  0.94106  0.20351  0.52444  1.0000
  C   C437      1.0  0.95449  0.26939  0.50985  1.0000
  H   H749      1.0  0.69762  0.11609  0.52408  1.0000
  N   N31       1.0  0.93266  0.24532  0.51642  1.0000
  C   C438      1.0  0.52814  0.00755  0.62027  1.0000
  C   C439      1.0  0.75988  0.16114  0.54476  1.0000
  H   H750      1.0  0.74496  0.14229  0.60431  1.0000
  C   C440      1.0  0.54682  0.01674  0.70778  1.0000
  H   H751      1.0  0.87524  0.27009  0.57264  1.0000
  C   C441      1.0  0.93274  0.14951  0.84764  1.0000
  H   H752      1.0  0.00325  0.20554  0.53954  1.0000
  H   H753      1.0  0.76355  0.20133  0.94129  1.0000
  H   H754      1.0  0.53793  0.02720  0.62444  1.0000
  Fe  Fe67      1.0  0.60333  0.99575  0.52778  1.0000
  C   C442      1.0  0.69226  0.21769  0.54140  1.0000
  H   H755      1.0  0.58930  0.99154  0.88240  1.0000
  Fe  Fe68      1.0  0.90297  0.31238  0.89107  1.0000
  H   H756      1.0  0.89707  0.22993  0.55058  1.0000
  H   H757      1.0  0.55333  0.01955  0.68345  1.0000
  H   H758      1.0  0.96795  0.27596  0.53099  1.0000
  H   H759      1.0  0.92541  0.13105  0.85964  1.0000
  C   C443      1.0  0.55100  0.98639  0.84659  1.0000
  C   C444      1.0  0.83594  0.24498  0.97861  1.0000
  C   C445      1.0  0.72163  0.15505  0.60683  1.0000
  H   H760      1.0  0.66709  0.20738  0.53810  1.0000
  C   C446      1.0  0.87132  0.20559  0.98245  1.0000
  H   H761      1.0  0.76111  0.16685  0.93994  1.0000
  C   C447      1.0  0.79260  0.00195  0.53417  1.0000
  S   S133      1.0  0.65589  0.98695  0.96209  1.0000
  C   C448      1.0  0.75178  0.18408  0.95309  1.0000
  H   H762      1.0  0.77743  0.13221  0.96395  1.0000
  H   H763      1.0  0.95134  0.28796  0.79400  1.0000
  H   H764      1.0  0.57496  0.99645  0.76900  1.0000
  H   H765      1.0  0.90497  0.29047  0.55218  1.0000
  H   H766      1.0  0.62061  0.99068  0.77351  1.0000
  H   H767      1.0  0.72511  0.19698  0.51005  1.0000
  H   H768      1.0  0.69136  0.15963  0.51521  1.0000
  H   H769      1.0  0.73349  0.98814  0.50499  1.0000
  C   C449      1.0  0.53950  0.98766  0.71526  1.0000
  C   C450      1.0  0.82606  0.14857  0.97751  1.0000
  H   H770      1.0  0.60150  0.00332  0.66745  1.0000
  H   H771      1.0  0.86946  0.27377  0.53280  1.0000
  C   C451      1.0  0.78914  0.13878  0.98570  1.0000
  C   C452      1.0  0.53762  0.98715  0.90110  1.0000
  C   C453      1.0  0.56201  0.98860  0.87723  1.0000
  Fe  Fe69      1.0  0.59797  0.99051  0.97197  1.0000
  H   H772      1.0  0.82231  0.99559  0.99319  1.0000
  S   S134      1.0  0.54998  0.98794  0.94040  1.0000
  H   H773      1.0  0.74745  0.13890  0.50269  1.0000
  C   C454      1.0  0.99490  0.31701  0.88815  1.0000
  H   H774      1.0  0.61165  0.99667  0.72005  1.0000
  H   H775      1.0  0.68663  0.12515  0.98820  1.0000
  S   S135      1.0  0.66100  0.98622  0.53019  1.0000
  H   H776      1.0  0.78830  0.19552  0.98818  1.0000
  H   H777      1.0  0.52889  0.98725  0.73892  1.0000
  C   C455      1.0  0.96564  0.30645  0.78893  1.0000
  H   H778      1.0  0.96446  0.30916  0.76388  1.0000
  N   N32       1.0  0.78978  0.98468  0.50613  1.0000
  S   S136      1.0  0.68544  0.48532  0.03764  1.0000
  C   C456      1.0  0.60639  0.48558  0.19150  1.0000
  Fe  Fe70      1.0  0.62936  0.47248  0.04371  1.0000
  S   S137      1.0  0.60720  0.45505  0.08799  1.0000
  H   H779      1.0  0.86354  0.59030  0.01578  1.0000
  H   H780      1.0  0.56819  0.50470  0.08624  1.0000
  H   H781      1.0  0.56493  0.43143  0.13481  1.0000
  H   H782      1.0  0.67504  0.44575  0.39398  1.0000
  H   H783      1.0  0.60418  0.50113  0.38177  1.0000
  S   S138      1.0  0.81169  0.36744  0.39835  1.0000
  H   H784      1.0  0.63683  0.46283  0.40542  1.0000
  H   H785      1.0  0.58162  0.40563  0.36556  1.0000
  C   C457      1.0  0.73167  0.39994  0.46870  1.0000
  C   C458      1.0  0.74485  0.37415  0.47161  1.0000
  C   C459      1.0  0.76904  0.36373  0.45025  1.0000
  C   C460      1.0  0.78055  0.37909  0.42572  1.0000
  C   C461      1.0  0.76722  0.40487  0.42277  1.0000
  C   C462      1.0  0.74277  0.41518  0.44396  1.0000
  H   H786      1.0  0.58177  0.48002  0.18015  1.0000
  H   H787      1.0  0.77900  0.34390  0.45290  1.0000
  H   H788      1.0  0.77582  0.41691  0.40383  1.0000
  H   H789      1.0  0.73257  0.43491  0.44115  1.0000
  C   C463      1.0  0.53051  0.48992  0.33921  1.0000
  H   H790      1.0  0.87936  0.56471  0.09555  1.0000
  H   H791      1.0  0.85136  0.54396  0.03281  1.0000
  H   H792      1.0  0.71653  0.61209  0.02232  1.0000
  C   C464      1.0  0.57009  0.46695  0.10832  1.0000
  C   C465      1.0  0.91817  0.56043  0.04464  1.0000
  S   S139      1.0  0.88368  0.32694  0.35575  1.0000
  H   H793      1.0  0.94734  0.60605  0.05200  1.0000
  H   H794      1.0  0.66521  0.50177  0.28095  1.0000
  H   H795      1.0  0.79075  0.63958  0.48584  1.0000
  H   H796      1.0  0.62321  0.51694  0.28152  1.0000
  H   H797      1.0  0.84676  0.46098  0.44242  1.0000
  H   H798      1.0  0.75316  0.49375  0.45253  1.0000
  H   H799      1.0  0.78115  0.46702  0.44058  1.0000
  S   S140      1.0  0.80279  0.60291  0.10572  1.0000
  H   H800      1.0  0.62264  0.40384  0.48140  1.0000
  C   C466      1.0  0.61979  0.38309  0.47414  1.0000
  Fe  Fe71      1.0  0.61742  0.48707  0.47097  1.0000
  S   S141      1.0  0.57078  0.48165  0.43840  1.0000
  C   C467      1.0  0.55598  0.49194  0.10289  1.0000
  S   S142      1.0  0.67539  0.48219  0.46236  1.0000
  C   C468      1.0  0.55614  0.48570  0.40000  1.0000
  C   C469      1.0  0.71637  0.57281  0.04093  1.0000
  C   C470      1.0  0.73143  0.55629  0.06277  1.0000
  C   C471      1.0  0.75745  0.56599  0.08252  1.0000
  C   C472      1.0  0.76906  0.59224  0.08065  1.0000
  C   C473      1.0  0.75425  0.60875  0.05867  1.0000
  C   C474      1.0  0.72798  0.59909  0.03906  1.0000
  H   H801      1.0  0.72286  0.53607  0.06460  1.0000
  H   H802      1.0  0.76869  0.55299  0.09936  1.0000
  H   H803      1.0  0.76286  0.62896  0.05685  1.0000
  H   H804      1.0  0.79034  0.49924  0.42777  1.0000
  C   C475      1.0  0.64088  0.42363  0.42525  1.0000
  H   H805      1.0  0.64864  0.51403  0.22921  1.0000
  C   C476      1.0  0.64413  0.38530  0.38864  1.0000
  N   N33       1.0  0.60104  0.49103  0.22510  1.0000
  C   C477      1.0  0.63664  0.49584  0.23870  1.0000
  C   C478      1.0  0.91533  0.62167  0.01607  1.0000
  C   C479      1.0  0.58545  0.46719  0.24071  1.0000
  C   C480      1.0  0.57897  0.51521  0.23095  1.0000
  C   C481      1.0  0.63763  0.49913  0.27378  1.0000
  H   H806      1.0  0.60616  0.45241  0.24598  1.0000
  S   S143      1.0  0.87588  0.64327  0.14382  1.0000
  H   H807      1.0  0.63273  0.37085  0.49180  1.0000
  C   C482      1.0  0.80395  0.49370  0.47560  1.0000
  H   H808      1.0  0.63333  0.43824  0.37700  1.0000
  H   H809      1.0  0.84277  0.32545  0.14356  1.0000
  H   H810      1.0  0.57374  0.47275  0.26316  1.0000
  H   H811      1.0  0.57335  0.51738  0.25580  1.0000
  H   H812      1.0  0.59319  0.53368  0.22522  1.0000
  H   H813      1.0  0.58193  0.50473  0.32873  1.0000
  H   H814      1.0  0.87599  0.59955  0.09685  1.0000
  H   H815      1.0  0.62757  0.48159  0.28601  1.0000
  H   H816      1.0  0.54564  0.41381  0.06460  1.0000
  C   C483      1.0  0.57776  0.49518  0.37661  1.0000
  H   H817      1.0  0.63342  0.36532  0.38379  1.0000
  H   H818      1.0  0.62286  0.43338  0.44188  1.0000
  H   H819      1.0  0.53430  0.53708  0.21386  1.0000
  H   H820      1.0  0.65490  0.47943  0.23268  1.0000
  H   H821      1.0  0.66640  0.42227  0.43719  1.0000
  C   C484      1.0  0.58857  0.39626  0.41466  1.0000
  C   C485      1.0  0.78066  0.48791  0.44773  1.0000
  N   N34       1.0  0.62787  0.39639  0.41741  1.0000
  H   H822      1.0  0.57885  0.37567  0.41237  1.0000
  C   C486      1.0  0.68435  0.38281  0.38882  1.0000
  H   H823      1.0  0.94718  0.56646  0.00182  1.0000
  H   H824      1.0  0.86304  0.43050  0.45655  1.0000
  H   H825      1.0  0.69717  0.40152  0.39519  1.0000
  C   C487      1.0  0.63746  0.37782  0.44300  1.0000
  C   C488      1.0  0.62155  0.50842  0.17247  1.0000
  C   C489      1.0  0.57271  0.41232  0.38838  1.0000
  C   C490      1.0  0.54295  0.51624  0.21566  1.0000
  C   C491      1.0  0.52613  0.50051  0.11915  1.0000
  H   H826      1.0  0.69341  0.36690  0.40423  1.0000
  H   H827      1.0  0.54385  0.40989  0.38888  1.0000
  H   H828      1.0  0.58058  0.41590  0.03806  1.0000
  C   C492      1.0  0.91892  0.60929  0.04799  1.0000
  C   C493      1.0  0.64668  0.44308  0.39850  1.0000
  H   H829      1.0  0.69375  0.37750  0.36557  1.0000
  Fe  Fe72      1.0  0.83849  0.32734  0.38949  1.0000
  C   C494      1.0  0.53923  0.44424  0.02904  1.0000
  C   C495      1.0  0.92652  0.58430  0.10838  1.0000
  N   N35       1.0  0.89825  0.58461  0.05467  1.0000
  C   C496      1.0  0.89306  0.58311  0.08884  1.0000
  S   S144      1.0  0.68284  0.56166  0.01587  1.0000
  C   C497      1.0  0.86239  0.58624  0.04056  1.0000
  H   H830      1.0  0.56912  0.44021  0.20407  1.0000
  C   C498      1.0  0.55735  0.45164  0.22319  1.0000
  H   H831      1.0  0.54503  0.43719  0.23889  1.0000
  H   H832      1.0  0.60515  0.52642  0.17403  1.0000
  H   H833      1.0  0.62204  0.50242  0.14804  1.0000
  H   H834      1.0  0.81404  0.56508  0.03240  1.0000
  Fe  Fe73      1.0  0.83000  0.64285  0.11153  1.0000
  H   H835      1.0  0.87532  0.46040  0.47533  1.0000
  H   H836      1.0  0.84755  0.60327  0.05032  1.0000
  H   H837      1.0  0.91121  0.62525  0.06407  1.0000
  C   C499      1.0  0.92318  0.55637  0.01001  1.0000
  C   C500      1.0  0.83941  0.56146  0.04392  1.0000
  H   H838      1.0  0.90660  0.54214  0.05440  1.0000
  C   C501      1.0  0.52446  0.45945  0.14687  1.0000
  C   C502      1.0  0.55424  0.45082  0.13048  1.0000
  H   H839      1.0  0.53620  0.46426  0.21437  1.0000
  H   H840      1.0  0.53293  0.49922  0.03804  1.0000
  C   C503      1.0  0.85350  0.45032  0.46365  1.0000
  H   H841      1.0  0.63150  0.35702  0.43672  1.0000
  H   H842      1.0  0.62383  0.46815  0.18819  1.0000
  C   C504      1.0  0.55167  0.41693  0.04011  1.0000
  H   H843      1.0  0.94503  0.56063  0.05421  1.0000
  H   H844      1.0  0.57611  0.40449  0.43566  1.0000
  H   H845      1.0  0.57736  0.43366  0.39146  1.0000
  H   H846      1.0  0.83305  0.55701  0.06804  1.0000
  H   H847      1.0  0.94393  0.56715  0.10433  1.0000
  H   H848      1.0  0.94124  0.60290  0.10507  1.0000
  C   C505      1.0  0.56502  0.49720  0.34647  1.0000
  H   H849      1.0  0.55242  0.45889  0.04380  1.0000
  H   H850      1.0  0.63741  0.39694  0.36822  1.0000
  H   H851      1.0  0.66605  0.37834  0.44743  1.0000
  H   H852      1.0  0.91884  0.58378  0.13286  1.0000
  S   S145      1.0  0.60662  0.50763  0.01999  1.0000
  Fe  Fe74      1.0  0.66299  0.51926  0.01154  1.0000
  H   H853      1.0  0.54296  0.50887  0.19198  1.0000
  H   H854      1.0  0.64892  0.51297  0.17867  1.0000
  H   H855      1.0  0.93472  0.63785  0.01388  1.0000
  H   H856      1.0  0.73637  0.36211  0.49059  1.0000
  H   H857      1.0  0.59178  0.37752  0.47410  1.0000
  H   H858      1.0  0.55055  0.44761  0.00596  1.0000
  H   H859      1.0  0.88919  0.63091  0.01323  1.0000
  H   H860      1.0  0.83003  0.50049  0.46748  1.0000
  H   H861      1.0  0.75351  0.45889  0.49299  1.0000
  S   S146      1.0  0.70114  0.41199  0.49629  1.0000
  H   H862      1.0  0.92578  0.53495  0.00516  1.0000
  C   C506      1.0  0.82140  0.44695  0.48469  1.0000
  H   H863      1.0  0.79253  0.51167  0.48626  1.0000
  H   H864      1.0  0.54118  0.40054  0.02623  1.0000
  H   H865      1.0  0.86032  0.32655  0.19330  1.0000
  S   S147      1.0  0.63097  0.44741  0.00112  1.0000
  H   H866      1.0  0.52353  0.50529  0.22946  1.0000
  H   H867      1.0  0.80119  0.43624  0.47150  1.0000
  C   C507      1.0  0.52173  0.47826  0.39266  1.0000
  H   H868      1.0  0.88727  0.31936  0.13831  1.0000
  S   S148      1.0  0.72927  0.54105  0.49645  1.0000
  H   H869      1.0  0.88928  0.32045  0.08764  1.0000
  H   H870      1.0  0.92044  0.60758  0.99734  1.0000
  S   S149      1.0  0.68468  0.48149  0.53733  1.0000
  H   H871      1.0  0.71280  0.42294  0.89855  1.0000
  Fe  Fe75      1.0  0.62636  0.48767  0.54112  1.0000
  S   S150      1.0  0.60390  0.49617  0.58892  1.0000
  C   C508      1.0  0.56167  0.49359  0.63997  1.0000
  H   H872      1.0  0.68672  0.51078  0.87832  1.0000
  H   H873      1.0  0.63196  0.46068  0.91586  1.0000
  C   C509      1.0  0.90806  0.38193  0.81504  1.0000
  H   H874      1.0  0.79398  0.49996  0.55576  1.0000
  S   S151      1.0  0.77033  0.33669  0.90327  1.0000
  H   H875      1.0  0.98071  0.63945  0.64350  1.0000
  C   C510      1.0  0.71115  0.64709  0.56425  1.0000
  C   C511      1.0  0.74381  0.41294  0.95644  1.0000
  C   C512      1.0  0.77837  0.40773  0.94702  1.0000
  C   C513      1.0  0.78715  0.38422  0.93148  1.0000
  C   C514      1.0  0.76128  0.36572  0.92481  1.0000
  C   C515      1.0  0.72669  0.37085  0.93439  1.0000
  C   C516      1.0  0.71802  0.39416  0.95044  1.0000
  H   H876      1.0  0.73150  0.43195  0.84607  1.0000
  H   H877      1.0  0.81381  0.38062  0.92424  1.0000
  H   H878      1.0  0.70651  0.35662  0.92940  1.0000
  H   H879      1.0  0.69139  0.39776  0.95774  1.0000
  H   H880      1.0  0.69401  0.41493  0.83053  1.0000
  C   C517      1.0  0.55722  0.50389  0.86065  1.0000
  H   H881      1.0  0.81596  0.52250  0.53013  1.0000
  C   C518      1.0  0.64826  0.44276  0.91270  1.0000
  C   C519      1.0  0.56683  0.48466  0.60980  1.0000
  H   H882      1.0  0.72834  0.63464  0.57890  1.0000
  C   C520      1.0  0.00549  0.64829  0.63740  1.0000
  H   H883      1.0  0.75589  0.62595  0.53045  1.0000
  H   H884      1.0  0.63197  0.39959  0.86126  1.0000
  C   C521      1.0  0.81877  0.50413  0.54349  1.0000
  C   C522      1.0  0.62308  0.41970  0.91880  1.0000
  H   H885      1.0  0.78408  0.45219  0.55767  1.0000
  H   H886      1.0  0.74190  0.44313  0.54448  1.0000
  H   H887      1.0  0.65369  0.45120  0.83521  1.0000
  S   S152      1.0  0.80237  0.60916  0.60184  1.0000
  H   H888      1.0  0.58044  0.50693  0.64994  1.0000
  H   H889      1.0  0.70625  0.46914  0.90089  1.0000
  Fe  Fe76      1.0  0.61080  0.48341  0.97676  1.0000
  S   S153      1.0  0.56315  0.47341  0.94713  1.0000
  H   H890      1.0  0.89110  0.36472  0.81087  1.0000
  S   S154      1.0  0.66488  0.49829  0.96596  1.0000
  C   C523      1.0  0.55105  0.48019  0.90868  1.0000
  C   C524      1.0  0.75036  0.55875  0.52642  1.0000
  C   C525      1.0  0.73679  0.55965  0.55611  1.0000
  C   C526      1.0  0.75349  0.57478  0.57882  1.0000
  C   C527      1.0  0.78409  0.58915  0.57240  1.0000
  C   C528      1.0  0.79835  0.58760  0.54292  1.0000
  C   C529      1.0  0.78133  0.57275  0.52004  1.0000
  H   H891      1.0  0.71309  0.54899  0.56151  1.0000
  H   H892      1.0  0.74232  0.57557  0.60155  1.0000
  H   H893      1.0  0.82195  0.59836  0.53758  1.0000
  C   C530      1.0  0.69235  0.42038  0.88083  1.0000
  H   H894      1.0  0.83865  0.50820  0.56124  1.0000
  C   C531      1.0  0.83139  0.48073  0.52359  1.0000
  C   C532      1.0  0.76949  0.44581  0.53720  1.0000
  H   H895      1.0  0.63056  0.41180  0.82304  1.0000
  H   H896      1.0  0.67019  0.61762  0.56773  1.0000
  N   N36       1.0  0.66675  0.44307  0.88219  1.0000
  H   H897      1.0  0.66466  0.63894  0.53582  1.0000
  C   C533      1.0  0.64104  0.44326  0.85623  1.0000
  Fe  Fe77      1.0  0.84337  0.64204  0.60719  1.0000
  C   C534      1.0  0.68447  0.62826  0.54938  1.0000
  H   H898      1.0  0.65086  0.49573  0.85934  1.0000
  C   C535      1.0  0.68821  0.46804  0.88096  1.0000
  C   C536      1.0  0.94751  0.32932  0.80626  1.0000
  N   N37       1.0  0.80690  0.47192  0.49873  1.0000
  H   H899      1.0  0.59530  0.41828  0.84859  1.0000
  H   H900      1.0  0.59028  0.50952  0.90010  1.0000
  C   C537      1.0  0.71185  0.41636  0.85023  1.0000
  C   C538      1.0  0.62425  0.41662  0.84720  1.0000
  H   H901      1.0  0.75815  0.48477  0.51944  1.0000
  H   H902      1.0  0.83763  0.46419  0.53930  1.0000
  H   H903      1.0  0.70526  0.46827  0.86038  1.0000
  H   H904      1.0  0.69726  0.61287  0.53511  1.0000
  H   H905      1.0  0.65196  0.49797  0.90055  1.0000
  C   C539      1.0  0.66772  0.49431  0.87977  1.0000
  H   H906      1.0  0.57078  0.51843  0.84705  1.0000
  H   H907      1.0  0.68013  0.40131  0.88663  1.0000
  H   H908      1.0  0.61302  0.42140  0.94253  1.0000
  H   H909      1.0  0.79853  0.42208  0.95160  1.0000
  H   H910      1.0  0.90865  0.39446  0.79435  1.0000
  S   S155      1.0  0.62543  0.51980  0.50558  1.0000
  H   H911      1.0  0.72665  0.39748  0.85131  1.0000
  H   H912      1.0  0.59974  0.42082  0.90401  1.0000
  H   H913      1.0  0.00451  0.33720  0.83219  1.0000
  S   S156      1.0  0.86420  0.32997  0.85843  1.0000
  H   H914      1.0  0.85699  0.48671  0.51370  1.0000
  C   C540      1.0  0.56854  0.49874  0.89069  1.0000
  H   H915      1.0  0.66770  0.44297  0.93158  1.0000
  S   S157      1.0  0.95533  0.33163  0.90109  1.0000
  S   S158      1.0  0.61570  0.45548  0.50719  1.0000
  C   C541      1.0  0.77099  0.46633  0.51129  1.0000
  H   H916      1.0  0.61917  0.45719  0.86140  1.0000
  S   S159      1.0  0.73429  0.44374  0.97415  1.0000
  H   H917      1.0  0.77880  0.42617  0.52945  1.0000
  H   H918      1.0  0.00691  0.39180  0.76073  1.0000
  H   H919      1.0  0.63576  0.40013  0.91709  1.0000
  C   C542      1.0  0.00260  0.35256  0.81438  1.0000
  H   H920      1.0  0.92042  0.33011  0.79735  1.0000
  C   C543      1.0  0.53262  0.48529  0.65748  1.0000
  Fe  Fe78      1.0  0.68466  0.46350  0.99263  1.0000
  H   H921      1.0  0.94488  0.32307  0.83054  1.0000
  C   C544      1.0  0.54234  0.46736  0.59728  1.0000
  H   H922      1.0  0.54586  0.46034  0.57414  1.0000
  H   H923      1.0  0.01606  0.57078  0.54537  1.0000
  C   C545      1.0  0.52830  0.49063  0.84817  1.0000
  H   H924      1.0  0.89534  0.39367  0.83346  1.0000
  H   H925      1.0  0.52923  0.49227  0.68065  1.0000
  S   S160      1.0  0.89083  0.64098  0.63796  1.0000
  C   C546      1.0  0.74952  0.64501  0.51956  1.0000
  C   C547      1.0  0.52222  0.46688  0.89615  1.0000
  H   H926      1.0  0.82919  0.43271  0.50271  1.0000
  H   H927      1.0  0.73084  0.64002  0.50103  1.0000
  C   C548      1.0  0.94528  0.37430  0.82527  1.0000
  H   H928      1.0  0.94338  0.36566  0.84859  1.0000
  H   H929      1.0  0.52286  0.41720  0.97690  1.0000
  Fe  Fe79      1.0  0.68344  0.51195  0.50050  1.0000
  H   H930      1.0  0.97227  0.40704  0.78286  1.0000
  Fe  Fe80      1.0  0.67394  0.45226  0.49976  1.0000
  H   H931      1.0  0.93693  0.36331  0.76201  1.0000
  H   H932      1.0  0.01605  0.60584  0.54355  1.0000
  N   N38       1.0  0.96510  0.35590  0.80420  1.0000
  C   C549      1.0  0.96382  0.36479  0.77148  1.0000
  H   H933      1.0  0.97925  0.35119  0.75668  1.0000
  C   C550      1.0  0.97823  0.39251  0.76473  1.0000
  H   H934      1.0  0.96535  0.40040  0.74401  1.0000
  H   H935      1.0  0.95896  0.39327  0.82867  1.0000
  H   H936      1.0  0.79215  0.57222  0.49719  1.0000
  H   H937      1.0  0.90062  0.56283  0.99630  1.0000
  H   H938      1.0  0.01031  0.38131  0.85132  1.0000
  Fe  Fe81      1.0  0.83946  0.70125  0.09733  1.0000
  S   S161      1.0  0.82056  0.73763  0.07266  1.0000
  Fe  Fe82      1.0  0.85422  0.68181  0.16158  1.0000
  S   S162      1.0  0.85043  0.68791  0.21321  1.0000
  S   S163      1.0  0.88539  0.70624  0.12863  1.0000
  S   S164      1.0  0.80640  0.67966  0.13185  1.0000
  C   C551      1.0  0.78105  0.95401  0.04371  1.0000
  C   C552      1.0  0.79368  0.81849  0.18599  1.0000
  C   C553      1.0  0.99600  0.65890  0.14278  1.0000
  H   H939      1.0  0.78563  0.83952  0.18509  1.0000
  H   H940      1.0  0.68396  0.94041  0.35695  1.0000
  H   H941      1.0  0.60303  0.95637  0.40395  1.0000
  Fe  Fe83      1.0  0.85400  0.80024  0.34067  1.0000
  S   S165      1.0  0.87417  0.83825  0.36070  1.0000
  S   S166      1.0  0.85926  0.79509  0.28891  1.0000
  Fe  Fe84      1.0  0.83583  0.77912  0.40379  1.0000
  S   S167      1.0  0.85443  0.81527  0.42834  1.0000
  S   S168      1.0  0.82062  0.74098  0.42676  1.0000
  Fe  Fe85      1.0  0.82644  0.83773  0.39144  1.0000
  S   S169      1.0  0.79842  0.87763  0.39733  1.0000
  Fe  Fe86      1.0  0.90021  0.81305  0.39587  1.0000
  S   S170      1.0  0.95477  0.81672  0.41560  1.0000
  S   S171      1.0  0.80441  0.80134  0.36872  1.0000
  S   S172      1.0  0.88354  0.77534  0.37402  1.0000
  H   H942      1.0  0.99866  0.74768  0.27705  1.0000
  C   C554      1.0  0.99236  0.81079  0.39295  1.0000
  C   C555      1.0  0.99018  0.80701  0.36139  1.0000
  C   C556      1.0  0.95958  0.71452  0.24063  1.0000
  H   H943      1.0  0.96499  0.80786  0.35033  1.0000
  C   C557      1.0  0.71091  0.90762  0.46192  1.0000
  C   C558      1.0  0.72181  0.88113  0.46309  1.0000
  C   C559      1.0  0.74871  0.87160  0.44376  1.0000
  C   C560      1.0  0.76497  0.88847  0.42289  1.0000
  C   C561      1.0  0.75409  0.91500  0.42181  1.0000
  C   C562      1.0  0.72734  0.92452  0.44123  1.0000
  H   H944      1.0  0.75177  0.76618  0.19618  1.0000
  H   H945      1.0  0.75668  0.85115  0.44484  1.0000
  H   H946      1.0  0.76643  0.92822  0.40572  1.0000
  H   H947      1.0  0.71916  0.94486  0.44001  1.0000
  H   H948      1.0  0.82797  0.69621  0.02698  1.0000
  S   S173      1.0  0.59806  0.95823  0.00743  1.0000
  H   H949      1.0  0.79653  0.76664  0.20460  1.0000
  H   H950      1.0  0.88546  0.77456  0.47787  1.0000
  C   C563      1.0  0.97858  0.70589  0.30794  1.0000
  C   C564      1.0  0.99691  0.66035  0.11094  1.0000
  C   C565      1.0  0.83842  0.79013  0.12466  1.0000
  H   H951      1.0  0.71577  0.76118  0.15798  1.0000
  H   H952      1.0  0.83474  0.69846  0.46761  1.0000
  C   C566      1.0  0.82465  0.73828  0.03247  1.0000
  H   H953      1.0  0.93568  0.72686  0.42804  1.0000
  C   C567      1.0  0.83001  0.71592  0.48126  1.0000
  C   C568      1.0  0.82236  0.73987  0.46684  1.0000
  H   H954      1.0  0.83036  0.75150  0.14314  1.0000
  H   H955      1.0  0.87465  0.97950  0.01559  1.0000
  H   H956      1.0  0.82101  0.78061  0.03006  1.0000
  C   C569      1.0  0.66683  0.94712  0.37604  1.0000
  H   H957      1.0  0.80988  0.78085  0.47363  1.0000
  C   C570      1.0  0.81905  0.97702  0.00641  1.0000
  C   C571      1.0  0.85120  0.71823  0.23332  1.0000
  C   C572      1.0  0.86273  0.74153  0.21965  1.0000
  C   C573      1.0  0.86422  0.76505  0.23682  1.0000
  C   C574      1.0  0.85467  0.76542  0.26789  1.0000
  C   C575      1.0  0.84298  0.74214  0.28149  1.0000
  C   C576      1.0  0.84129  0.71869  0.26426  1.0000
  H   H958      1.0  0.87124  0.74120  0.19609  1.0000
  H   H959      1.0  0.87356  0.78293  0.22619  1.0000
  H   H960      1.0  0.83540  0.74217  0.30532  1.0000
  H   H961      1.0  0.83236  0.70074  0.27502  1.0000
  H   H962      1.0  0.83929  0.81104  0.13194  1.0000
  H   H963      1.0  0.75790  0.72195  0.17134  1.0000
  H   H964      1.0  0.00000  0.70279  0.29104  1.0000
  H   H965      1.0  0.79478  0.94031  0.46899  1.0000
  C   C577      1.0  0.82387  0.77209  0.15005  1.0000
  C   C578      1.0  0.99666  0.71031  0.33896  1.0000
  H   H966      1.0  0.78634  0.81111  0.20897  1.0000
  C   C579      1.0  0.82788  0.71500  0.01551  1.0000
  H   H967      1.0  0.86572  0.78405  0.11936  1.0000
  H   H968      1.0  0.70680  0.90155  0.37041  1.0000
  H   H969      1.0  0.82370  0.78857  0.10309  1.0000
  S   S174      1.0  0.85965  0.66445  0.07495  1.0000
  H   H970      1.0  0.77663  0.72218  0.20855  1.0000
  H   H971      1.0  0.77410  0.74238  0.12571  1.0000
  C   C580      1.0  0.52568  0.96921  0.09731  1.0000
  C   C581      1.0  0.77774  0.76058  0.18662  1.0000
  H   H972      1.0  0.83983  0.77591  0.17068  1.0000
  H   H973      1.0  0.59004  0.96305  0.35688  1.0000
  H   H974      1.0  0.57301  0.89494  0.99828  1.0000
  H   H975      1.0  0.74912  0.95950  0.48717  1.0000
  H   H976      1.0  0.77833  0.81399  0.13865  1.0000
  C   C582      1.0  0.65643  0.97549  0.36765  1.0000
  C   C583      1.0  0.92721  0.73377  0.32165  1.0000
  S   S175      1.0  0.59310  0.96627  0.48993  1.0000
  H   H977      1.0  0.82249  0.81789  0.18349  1.0000
  C   C584      1.0  0.81336  0.93887  0.48802  1.0000
  H   H978      1.0  0.71425  0.74563  0.12192  1.0000
  H   H979      1.0  0.88642  0.71737  0.35058  1.0000
  H   H980      1.0  0.71379  0.78122  0.12419  1.0000
  N   N39       1.0  0.78534  0.77471  0.15706  1.0000
  H   H981      1.0  0.89015  0.70089  0.31489  1.0000
  N   N40       1.0  0.95448  0.72761  0.29767  1.0000
  H   H982      1.0  0.90786  0.74822  0.31287  1.0000
  C   C585      1.0  0.93624  0.71878  0.26906  1.0000
  C   C586      1.0  0.94943  0.75173  0.46660  1.0000
  C   C587      1.0  0.97582  0.75208  0.29207  1.0000
  H   H983      1.0  0.73038  0.96864  0.00281  1.0000
  H   H984      1.0  0.57008  0.91158  0.39962  1.0000
  C   C588      1.0  0.90560  0.71016  0.33331  1.0000
  C   C589      1.0  0.95602  0.77570  0.27821  1.0000
  H   H985      1.0  0.97302  0.73279  0.23339  1.0000
  H   H986      1.0  0.77095  0.77351  0.10934  1.0000
  H   H987      1.0  0.91559  0.73304  0.26275  1.0000
  H   H988      1.0  0.89889  0.74332  0.44437  1.0000
  H   H989      1.0  0.97112  0.65865  0.15462  1.0000
  H   H990      1.0  0.73064  0.69616  0.48285  1.0000
  H   H991      1.0  0.74631  0.80481  0.16569  1.0000
  C   C590      1.0  0.82372  0.76253  0.01714  1.0000
  C   C591      1.0  0.52597  0.97493  0.39791  1.0000
  H   H992      1.0  0.93910  0.74365  0.34176  1.0000
  H   H993      1.0  0.96456  0.68669  0.30896  1.0000
  H   H994      1.0  0.97776  0.71263  0.35804  1.0000
  H   H995      1.0  0.95658  0.76727  0.44982  1.0000
  N   N41       1.0  0.78276  0.97555  0.02008  1.0000
  Fe  Fe87      1.0  0.65178  0.95963  0.48963  1.0000
  H   H996      1.0  0.92189  0.69509  0.34472  1.0000
  H   H997      1.0  0.92228  0.69984  0.27277  1.0000
  H   H998      1.0  0.94523  0.77126  0.25537  1.0000
  H   H999      1.0  0.97439  0.79242  0.27535  1.0000
  H   H1000     1.0  0.93467  0.78278  0.29337  1.0000
  N   N42       1.0  0.63759  0.92780  0.38165  1.0000
  C   C592      1.0  0.65395  0.90189  0.39096  1.0000
  C   C593      1.0  0.61572  0.93718  0.40833  1.0000
  C   C594      1.0  0.77476  0.80316  0.16051  1.0000
  C   C595      1.0  0.61656  0.92338  0.35304  1.0000
  C   C596      1.0  0.68196  0.89036  0.36918  1.0000
  C   C597      1.0  0.58661  0.91823  0.41879  1.0000
  H   H1001     1.0  0.68840  0.86997  0.37650  1.0000
  C   C598      1.0  0.58719  0.94353  0.34610  1.0000
  H   H1002     1.0  0.66618  0.90359  0.41384  1.0000
  H   H1003     1.0  0.63375  0.88630  0.39344  1.0000
  H   H1004     1.0  0.98702  0.75944  0.31380  1.0000
  H   H1005     1.0  0.63264  0.94086  0.42851  1.0000
  H   H1006     1.0  0.56119  0.93533  0.35217  1.0000
  C   C599      1.0  0.77941  0.73030  0.18514  1.0000
  H   H1007     1.0  0.63412  0.92251  0.33270  1.0000
  H   H1008     1.0  0.60344  0.90382  0.35403  1.0000
  H   H1009     1.0  0.67283  0.88932  0.34526  1.0000
  C   C600      1.0  0.72505  0.76298  0.13416  1.0000
  H   H1010     1.0  0.64428  0.97644  0.34478  1.0000
  H   H1011     1.0  0.56938  0.92861  0.43542  1.0000
  H   H1012     1.0  0.58625  0.94707  0.32111  1.0000
  H   H1013     1.0  0.59760  0.90097  0.43097  1.0000
  H   H1014     1.0  0.72498  0.94390  0.04451  1.0000
  C   C601      1.0  0.81628  0.76238  0.48455  1.0000
  H   H1015     1.0  0.80488  0.72336  0.17610  1.0000
  H   H1016     1.0  0.96711  0.81552  0.49026  1.0000
  H   H1017     1.0  0.68379  0.94840  0.39650  1.0000
  C   C602      1.0  0.76528  0.76286  0.13093  1.0000
  H   H1018     1.0  0.97882  0.69843  0.24393  1.0000
  H   H1019     1.0  0.73705  0.96928  0.07169  1.0000
  C   C603      1.0  0.74560  0.95085  0.06017  1.0000
  C   C604      1.0  0.92377  0.73326  0.45001  1.0000
  H   H1020     1.0  0.80066  0.95666  0.06190  1.0000
  H   H1021     1.0  0.91831  0.79759  0.46945  1.0000
  H   H1022     1.0  0.85312  0.95516  0.03791  1.0000
  Fe  Fe88      1.0  0.65625  0.95644  0.99902  1.0000
  H   H1023     1.0  0.78778  0.93463  0.03310  1.0000
  Fe  Fe89      1.0  0.90367  0.66772  0.10873  1.0000
  H   H1024     1.0  0.91827  0.71519  0.46336  1.0000
  H   H1025     1.0  0.94265  0.70845  0.22131  1.0000
  H   H1026     1.0  0.70921  0.86781  0.47891  1.0000
  C   C605      1.0  0.85020  0.97533  0.02849  1.0000
  S   S176      1.0  0.67559  0.91833  0.48556  1.0000
  H   H1027     1.0  0.97418  0.74067  0.47023  1.0000
  H   H1028     1.0  0.74812  0.93556  0.07811  1.0000
  S   S177      1.0  0.95822  0.66131  0.08906  1.0000
  H   H1029     1.0  0.78161  0.67345  0.49343  1.0000
  C   C606      1.0  0.90877  0.78424  0.48776  1.0000
  H   H1030     1.0  0.52899  0.96311  0.07380  1.0000
  H   H1031     1.0  0.53135  0.96560  0.41951  1.0000
  H   H1032     1.0  0.80778  0.97528  0.44116  1.0000
  H   H1033     1.0  0.83872  0.93264  0.47779  1.0000
  H   H1034     1.0  0.99742  0.79180  0.47414  1.0000
  N   N43       1.0  0.93608  0.76398  0.49587  1.0000
  C   C607      1.0  0.98488  0.79887  0.49552  1.0000
  H   H1035     1.0  0.01293  0.69276  0.34425  1.0000
  H   H1036     1.0  0.01456  0.72746  0.33845  1.0000
  H   H1037     1.0  0.76071  0.98081  0.44503  1.0000
  S   S178      1.0  0.68586  0.91719  0.99693  1.0000
  Fe  Fe90      1.0  0.85289  0.70054  0.59444  1.0000
  S   S179      1.0  0.83102  0.73659  0.57089  1.0000
  Fe  Fe91      1.0  0.87139  0.67951  0.65795  1.0000
  S   S180      1.0  0.87633  0.68542  0.70961  1.0000
  S   S181      1.0  0.90027  0.70449  0.62406  1.0000
  S   S182      1.0  0.82222  0.67870  0.63017  1.0000
  H   H1038     1.0  0.92729  0.70264  0.52958  1.0000
  H   H1039     1.0  0.75097  0.70044  0.87208  1.0000
  H   H1040     1.0  0.95779  0.78378  0.53532  1.0000
  H   H1041     1.0  0.88257  0.79030  0.53251  1.0000
  C   C608      1.0  0.94337  0.72067  0.52653  1.0000
  C   C609      1.0  0.76139  0.74382  0.83802  1.0000
  Fe  Fe92      1.0  0.84924  0.79741  0.83820  1.0000
  S   S183      1.0  0.86560  0.83791  0.85337  1.0000
  S   S184      1.0  0.84318  0.78922  0.78725  1.0000
  Fe  Fe93      1.0  0.84314  0.77874  0.90373  1.0000
  S   S185      1.0  0.85957  0.81752  0.92402  1.0000
  S   S186      1.0  0.83122  0.74049  0.92790  1.0000
  Fe  Fe94      1.0  0.82339  0.83565  0.88940  1.0000
  S   S187      1.0  0.78902  0.87271  0.89338  1.0000
  Fe  Fe95      1.0  0.90029  0.81692  0.88654  1.0000
  S   S188      1.0  0.95548  0.83109  0.89580  1.0000
  S   S189      1.0  0.80422  0.79667  0.87145  1.0000
  S   S190      1.0  0.88677  0.77670  0.86903  1.0000
  H   H1042     1.0  0.93652  0.84283  0.81797  1.0000
  C   C610      1.0  0.99292  0.81907  0.87653  1.0000
  C   C611      1.0  0.99163  0.79708  0.85726  1.0000
  H   H1043     1.0  0.74686  0.69006  0.81991  1.0000
  H   H1044     1.0  0.96711  0.78698  0.85388  1.0000
  C   C612      1.0  0.71463  0.90519  0.96801  1.0000
  C   C613      1.0  0.73105  0.88059  0.97189  1.0000
  C   C614      1.0  0.75400  0.87032  0.94944  1.0000
  C   C615      1.0  0.76070  0.88457  0.92276  1.0000
  C   C616      1.0  0.74416  0.90916  0.91891  1.0000
  C   C617      1.0  0.72133  0.91943  0.94138  1.0000
  H   H1045     1.0  0.99738  0.81804  0.72876  1.0000
  H   H1046     1.0  0.76646  0.85138  0.95274  1.0000
  H   H1047     1.0  0.74914  0.92034  0.89836  1.0000
  H   H1048     1.0  0.70892  0.93832  0.93808  1.0000
  C   C618      1.0  0.85719  0.69761  0.86677  1.0000
  C   C619      1.0  0.99229  0.79853  0.73939  1.0000
  H   H1049     1.0  0.82551  0.78230  0.97353  1.0000
  H   H1050     1.0  0.64845  0.92075  0.88320  1.0000
  C   C620      1.0  0.81823  0.76097  0.51651  1.0000
  H   H1051     1.0  0.51736  0.98155  0.70062  1.0000
  C   C621      1.0  0.78459  0.69693  0.78393  1.0000
  H   H1052     1.0  0.00600  0.80678  0.51017  1.0000
  N   N44       1.0  0.73294  0.66349  0.54258  1.0000
  C   C622      1.0  0.82675  0.73718  0.53091  1.0000
  H   H1053     1.0  0.81351  0.77847  0.53010  1.0000
  H   H1054     1.0  0.54949  0.88941  0.94648  1.0000
  C   C623      1.0  0.82933  0.74021  0.96818  1.0000
  H   H1055     1.0  0.95046  0.73133  0.77038  1.0000
  H   H1056     1.0  0.76360  0.65221  0.86389  1.0000
  H   H1057     1.0  0.83929  0.69627  0.52399  1.0000
  H   H1058     1.0  0.75161  0.71133  0.51525  1.0000
  H   H1059     1.0  0.83197  0.69785  0.97056  1.0000
  H   H1060     1.0  0.72603  0.86935  0.99239  1.0000
  C   C624      1.0  0.86795  0.71480  0.73047  1.0000
  C   C625      1.0  0.87646  0.71573  0.76165  1.0000
  C   C626      1.0  0.86937  0.73839  0.77935  1.0000
  C   C627      1.0  0.85330  0.76029  0.76607  1.0000
  C   C628      1.0  0.84533  0.75952  0.73481  1.0000
  C   C629      1.0  0.85264  0.73693  0.71706  1.0000
  H   H1061     1.0  0.88865  0.69877  0.77210  1.0000
  H   H1062     1.0  0.87631  0.73892  0.80323  1.0000
  H   H1063     1.0  0.83307  0.77641  0.72426  1.0000
  H   H1064     1.0  0.84598  0.73650  0.69310  1.0000
  H   H1065     1.0  0.86186  0.71914  0.86720  1.0000
  H   H1066     1.0  0.76392  0.76208  0.82422  1.0000
  N   N45       1.0  0.59250  0.90690  0.92107  1.0000
  C   C630      1.0  0.56791  0.91618  0.89645  1.0000
  C   C631      1.0  0.61891  0.92846  0.92609  1.0000
  C   C632      1.0  0.57114  0.90361  0.94988  1.0000
  C   C633      1.0  0.60908  0.88113  0.91124  1.0000
  C   C634      1.0  0.52882  0.92820  0.70862  1.0000
  H   H1067     1.0  0.66206  0.94928  0.90419  1.0000
  H   H1068     1.0  0.72129  0.94447  0.53153  1.0000
  C   C635      1.0  0.64567  0.87462  0.92412  1.0000
  H   H1069     1.0  0.55705  0.93591  0.90235  1.0000
  H   H1070     1.0  0.58195  0.91865  0.87434  1.0000
  H   H1071     1.0  0.63861  0.92283  0.94335  1.0000
  H   H1072     1.0  0.60586  0.94631  0.93574  1.0000
  H   H1073     1.0  0.81217  0.69273  0.77782  1.0000
  Fe  Fe96      1.0  0.91715  0.66635  0.60259  1.0000
  H   H1074     1.0  0.98672  0.80354  0.97789  1.0000
  H   H1075     1.0  0.61210  0.88021  0.88596  1.0000
  H   H1076     1.0  0.54878  0.94529  0.74943  1.0000
  H   H1077     1.0  0.98662  0.76126  0.51749  1.0000
  C   C636      1.0  0.77816  0.66422  0.88068  1.0000
  H   H1078     1.0  0.55846  0.92270  0.95636  1.0000
  H   H1079     1.0  0.77657  0.66204  0.57375  1.0000
  H   H1080     1.0  0.74056  0.73230  0.82695  1.0000
  C   C637      1.0  0.59054  0.89325  0.97806  1.0000
  H   H1081     1.0  0.63308  0.97730  0.67217  1.0000
  C   C638      1.0  0.53654  0.89814  0.88945  1.0000
  H   H1082     1.0  0.66626  0.88728  0.91407  1.0000
  H   H1083     1.0  0.65270  0.85403  0.91790  1.0000
  H   H1084     1.0  0.64723  0.87605  0.94923  1.0000
  H   H1085     1.0  0.59143  0.96354  0.77621  1.0000
  H   H1086     1.0  0.81290  0.73590  0.81883  1.0000
  H   H1087     1.0  0.80574  0.65365  0.52061  1.0000
  C   C639      1.0  0.63903  0.93748  0.89731  1.0000
  C   C640      1.0  0.77549  0.68749  0.81647  1.0000
  H   H1088     1.0  0.84742  0.69112  0.88938  1.0000
  C   C641      1.0  0.59628  0.98224  0.76388  1.0000
  S   S191      1.0  0.97317  0.66568  0.58475  1.0000
  S   S192      1.0  0.87153  0.66422  0.57004  1.0000
  H   H1089     1.0  0.81125  0.73847  0.85847  1.0000
  H   H1090     1.0  0.55507  0.96477  0.66434  1.0000
  H   H1091     1.0  0.80484  0.65610  0.88366  1.0000
  N   N46       1.0  0.79600  0.70005  0.84195  1.0000
  H   H1092     1.0  0.98991  0.79138  0.93991  1.0000
  H   H1093     1.0  0.95624  0.72525  0.54858  1.0000
  H   H1094     1.0  0.76643  0.94188  0.54116  1.0000
  H   H1095     1.0  0.96377  0.71536  0.50965  1.0000
  C   C642      1.0  0.79714  0.72959  0.83888  1.0000
  C   C643      1.0  0.77866  0.69364  0.87197  1.0000
  C   C644      1.0  0.81884  0.96446  0.50674  1.0000
  C   C645      1.0  0.75798  0.96799  0.99480  1.0000
  C   C646      1.0  0.82637  0.76353  0.98511  1.0000
  H   H1096     1.0  0.84599  0.69588  0.81912  1.0000
  H   H1097     1.0  0.92229  0.80956  0.81479  1.0000
  C   C647      1.0  0.74671  0.69699  0.58529  1.0000
  H   H1098     1.0  0.88309  0.68810  0.86330  1.0000
  H   H1099     1.0  0.93524  0.74839  0.73759  1.0000
  C   C648      1.0  0.75388  0.97250  0.50690  1.0000
  C   C649      1.0  0.83284  0.68946  0.84048  1.0000
  H   H1100     1.0  0.62259  0.95055  0.88308  1.0000
  N   N47       1.0  0.95942  0.79946  0.75849  1.0000
  H   H1101     1.0  0.91607  0.81443  0.52371  1.0000
  C   C650      1.0  0.92861  0.80402  0.73784  1.0000
  C   C651      1.0  0.95375  0.77388  0.77521  1.0000
  C   C652      1.0  0.96289  0.82140  0.78152  1.0000
  H   H1102     1.0  0.69154  0.69313  0.54340  1.0000
  C   C653      1.0  0.92744  0.83085  0.72140  1.0000
  C   C654      1.0  0.95555  0.74861  0.75552  1.0000
  C   C655      1.0  0.93028  0.82698  0.80131  1.0000
  H   H1103     1.0  0.76923  0.70721  0.59582  1.0000
  H   H1104     1.0  0.98430  0.81714  0.79777  1.0000
  H   H1105     1.0  0.90357  0.80189  0.75058  1.0000
  H   H1106     1.0  0.92758  0.78874  0.71963  1.0000
  H   H1107     1.0  0.97261  0.77163  0.79418  1.0000
  H   H1108     1.0  0.92760  0.77371  0.78645  1.0000
  C   C656      1.0  0.91962  0.74371  0.51643  1.0000
  H   H1109     1.0  0.97055  0.84017  0.77027  1.0000
  H   H1110     1.0  0.54434  0.87725  0.88647  1.0000
  C   C657      1.0  0.78379  0.65387  0.50415  1.0000
  H   H1111     1.0  0.82343  0.95789  0.53063  1.0000
  H   H1112     1.0  0.94993  0.83351  0.70568  1.0000
  H   H1113     1.0  0.90345  0.83163  0.70725  1.0000
  H   H1114     1.0  0.92572  0.84764  0.73756  1.0000
  H   H1115     1.0  0.98159  0.74543  0.74499  1.0000
  H   H1116     1.0  0.77959  0.68783  0.54732  1.0000
  C   C658      1.0  0.52831  0.96773  0.58999  1.0000
  H   H1117     1.0  0.90779  0.83395  0.78767  1.0000
  H   H1118     1.0  0.76453  0.66209  0.90301  1.0000
  H   H1119     1.0  0.53809  0.95634  0.57084  1.0000
  C   C659      1.0  0.72659  0.70377  0.50640  1.0000
  C   C660      1.0  0.82994  0.71596  0.98349  1.0000
  H   H1120     1.0  0.70945  0.72144  0.50530  1.0000
  H   H1121     1.0  0.77899  0.71819  0.78063  1.0000
  H   H1122     1.0  0.69593  0.65982  0.58022  1.0000
  H   H1123     1.0  0.75261  0.74917  0.86146  1.0000
  H   H1124     1.0  0.91000  0.75291  0.53796  1.0000
  H   H1125     1.0  0.82318  0.96064  0.98971  1.0000
  H   H1126     1.0  0.59169  0.86432  0.91714  1.0000
  C   C661      1.0  0.70913  0.68283  0.52689  1.0000
  H   H1127     1.0  0.79094  0.70468  0.89106  1.0000
  H   H1128     1.0  0.76267  0.94724  0.98738  1.0000
  C   C662      1.0  0.60647  0.98212  0.66387  1.0000
  H   H1129     1.0  0.58101  0.92880  0.72685  1.0000
  C   C663      1.0  0.83246  0.71461  0.51319  1.0000
  H   H1130     1.0  0.73229  0.68722  0.60411  1.0000
  H   H1131     1.0  0.73863  0.97872  0.94993  1.0000
  H   H1132     1.0  0.62320  0.96337  0.72633  1.0000
  H   H1133     1.0  0.98939  0.78465  0.71986  1.0000
  H   H1134     1.0  0.61422  0.90469  0.98344  1.0000
  C   C664      1.0  0.96621  0.77631  0.51252  1.0000
  C   C665      1.0  0.55843  0.94268  0.72557  1.0000
  N   N48       1.0  0.56971  0.96868  0.71201  1.0000
  C   C666      1.0  0.76049  0.67697  0.56149  1.0000
  H   H1135     1.0  0.58957  0.94373  0.67530  1.0000
  H   H1136     1.0  0.89560  0.73549  0.50620  1.0000
  C   C667      1.0  0.74541  0.95607  0.53558  1.0000
  H   H1137     1.0  0.73997  0.96896  0.55556  1.0000
  C   C668      1.0  0.60145  0.97783  0.72927  1.0000
  H   H1138     1.0  0.52430  0.90473  0.86781  1.0000
  H   H1139     1.0  0.69052  0.67228  0.51182  1.0000
  H   H1140     1.0  0.83301  0.66755  0.83931  1.0000
  H   H1141     1.0  0.59709  0.87205  0.97555  1.0000
  H   H1142     1.0  0.60659  0.97873  0.63878  1.0000
  H   H1143     1.0  0.87490  0.81529  0.50498  1.0000
  C   C669      1.0  0.00562  0.79858  0.95940  1.0000
  H   H1144     1.0  0.53571  0.92323  0.68468  1.0000
  H   H1145     1.0  0.73050  0.71264  0.57486  1.0000
  C   C670      1.0  0.57886  0.96399  0.67874  1.0000
  H   H1146     1.0  0.76828  0.68604  0.76726  1.0000
  H   H1147     1.0  0.78461  0.98279  0.95329  1.0000
  H   H1148     1.0  0.01466  0.75974  0.97600  1.0000
  H   H1149     1.0  0.77937  0.66573  0.81634  1.0000
  C   C671      1.0  0.00825  0.66327  0.61076  1.0000
  C   C672      1.0  0.89525  0.80182  0.51410  1.0000
  H   H1150     1.0  0.84393  0.97341  0.49908  1.0000
  H   H1151     1.0  0.80533  0.92239  0.50313  1.0000
  H   H1152     1.0  0.52322  0.90935  0.72047  1.0000
