data_image0
_chemical_formula_structural       SCFeSC2H4CH2Fe2SFeSFeSFeS2FeS2FeSFeS3C6H4C6H5CH9C2H4NC2H3FeHC6H5CH2CH2NC8H20N2HC3HC4H5SH4CHCH3SH2SCHNC8H8SH13CHCH2CH3C2H2C2H5SH7CH3CH4CSNHC2HCH4CH2C4SC2NHC2H5C2HCH2CH3CHCHFeH2SCH2FeH2CSCH2C2H2SC2H2CHCHSHC2S2HFeSH3CH2FeSFeS3FeS2FeS2FeSFeS3C6H4C6H5C2H3C3HC6H4C2H5SH7FeSH2SHCHSH10CHCH7C3HCHCHSFeC2H4C2HC3H5C2NC8H20NC3FeCHC2SC2NH4FeC4H12FeSH3C4H4C2HCNH4FeH3NC2HSH2CSCH2CH3FeH2FeC3FeS2FeS2FeSFeS3HC2HCHFeSFeS2HCFeSCSHC3H3CH2C7H4CH4C6H4C6H4CHCHCSCH2CH7CNC8H20CHNC5H8SHCFeHCH3C2HCH3CH5CH4C2H8NHSH3CHCHCH4SHFeH2NFeCH2CNHCHCH3SH4NHCHCHCHCSCHCH4C2H6C2H2C2H5CHCH4CHCH2C2H4S3HSHSCFeSFeS2FeS2H5CFeS2FeS2FeSFeS3HC2FeH3CH7NC2HCSH3C2HCH2SFeSC2H2C6H4C6H4C6H7CH3C2HNHCH3C2HSCHCH4FeCH3NC8H20NC8H18C2HSHFeH3CSCH3C2HCH6SCH2CH2SH2C3HCH5CH3NSH2SH2CH4SHCH2C4H3CFeCHFeCFeCNHCHC2HSCFeSCHCH5CHFeSFeS3FeS2FeS2FeSFeS3C6H4C6H5CH2CH3CHSH2SH3CH4SHC7H4SH3CNC2H8CHNC8H20NC8H20C2NCHCH2C3H8CHCHCH2CHNCHCH2C3HC2FeH3C2H5SHCHCH6FeCHCNH2CHCHFeSFeHCSCHC5H2C2SH8SC3SCSHNCHS2HFeSC2H2CHFeSFeS3FeS2FeS2FeSFeS3C6H4C6H10C2H2C6H11C2H3CH7CH5CH2SHC4HCH3NHCH2CHCH3CH3NH3NH4SHCHSCH3CHC3NC8H8C2H6CH4CH4S2H2FeH2CHNC4HCHCH4CHFeHSH2CH2CSH4CH2CH2C2H3C2SHCHCHCFeH4C2H3CH5C3H3C5H4CHFeS2FeS2FeSFeS3H6FeSFeS2H2FeSHSH2CH5C9H4C2H2C7H4C6H4CHCHSH2CH2CH3CH4CH3CHSCH2CH2NC8H20CH2CH2CSHSH2CH2SCHCH3CH3CNC2HCH3CH4CH2CH8C3FeCHNH6CH2CHSH3NCHNH2CH2CHC2HC3H3SCHCSC2SFeSFeCSFeHCH2C2NSFeHCHCHC2SCFeSFeS2FeS2H3C2HFeS2FeS2FeSFeS3H8CSH4C4HC2H2SCHNH2CH3CH3C6H4C6H4C6H5NC8H22SHCH3CH3CH11C4HNC7H7CH7NHC2H2CH3CH4CH3C2FeSHCSHCHNC2SCH3CH2CH2C4H5CSHFe2SHCH3SH2Fe2HFeCHCS3C2HC2HCFe2CSCHSH2CHCH3Fe2S2FeS2FeSFeS3C3S2HFeSFeS3C6H4C6H7SH3SH4FeHCH3CHC2H3C6H4C3H2C2HCH5C3H3CH2CH2S2HC3NHCH4CNH9NHC3H3C2H3CH3NC2HCHCH2SHCH7CH2CNC3HCHCH8CH3S2H3FeH4CH2CH6C2HC2HCSHC2HCHCH6CH4C3SH2FeNHC2H5NH2FeCSHC2HSCH3SHFeSFeSFeSFeS2FeS2FeSFeS3CHCH4C2HC6H4C6H4C6H4CH3C2HNH2CH2C2HFeH2CHCH2CSCHC3H8CH3CH4CHNC8H15CH8CH9SHCHSH2C2HC2HCHCH3NSH3CH3FeH5C3HCH2CSNH3NC8H3CFeCHC2H4CH4CHNCH6C2HCSHCH2C3HCFeS2FeS2C2HSHFe2S2FeS2FeSFeS4H4SH4C7H4C6H4C6H5CH4SCH5C2HCH3CHNC5HC3HCH5SH2CH2CHSHSCNC5HC2H7FeHC2FeCH6CH10CHCH3CHNH2C2H12C2H9Fe2CH2NH6CNHC2H3CHCHCHCH7CFeH2SC2NHCHCH4SCH3NHC3H2CH5CHC2H2CS2CSCHFeHS2HSHFeS2FeS2FeSFeS3FeS2FeS2HSCHCHC3SH4CFeH3CH2CSH2C2H3C6H4C6H4C6H5CH6SNC8H20NC6HCH5CH17SCH2NC5H2CH7SH5CHSHCHCNC5HC2HCH6CFeHCH4C2HSHCH3CHCH2CFeCH2CH2CFeNSH2SHCH4CH2FeS2FeS2FeSFeS3HCH2CHFeSFeS3C6H4C6H5FeSH3CH4CH13C6H6CH4CSHFeC4H3CH5FeH5NHC4H3SHCSHSH2SH3CHSH2CHCHCSNC8H8CHCH10CNC8H13SH2CH3NC9H4C2H5FeH3C2HCSH2SHC2H3C3FeCSC2HCHCHFeH2C2H2CFeCSH3S3H2SH2FeSFeS3FeS2FeS2FeSFeS3CHCH2C3HC7H4C6H4C6H4NHCH2CHCFeCH2C2FeC3H2CH2CHNC8H20CH6SH3FeHCH3CSNCHCHCHS2HCNC8H19SH2CH2SH2FeH8C2H4SC2H3CHNHC3H3CH3CHCH3FeC2H4CSCH2FeH2C2HC2H8CH3CNH2C2H2CFeS2FeS2CH4Fe2S2FeS2FeSFeS4H3FeSHCH2C7H4C6H4C6H5C2HCHSH2CH2FeH2FeHSHCH2NC8H23CHCHCHCHSHCH2C4NH2NC7H9C2H7C3H3FeHC2HCH4CH3CH4CSH3CHCSNH2CSHCHCH2CH2CSHFeHSHC2H3NHSHCH2CHCH7CHFeHCHSHCH2FeCSHS2HFeS2FeS2FeSFeS3FeS2FeS2HCH3C2H2CH3FeHCH4C2HCH2C2H3C6H4C6H4C6H9C2H2NC8H20NCH2CHC2HNC2SH5CH2CHCNC4H10NC2HC2H2CH8SH3SHCHCH2NC2H5CH4NHC2H3CHC2H2CH5CHSNH3C2HCH3CH5CHCH3CSHCH3C2H2CH3CNH2CH2C3FeCHCH3CH4C2HC3SC2H4Fe2HCSC3H
_chemical_formula_sum              "S384 C1344 Fe192 H2304 N96"
_cell_length_a       55.2646
_cell_length_b       45.9116
_cell_length_c       75.8444
_cell_angle_alpha    90.5118
_cell_angle_beta     89.6426
_cell_angle_gamma    89.5072

_space_group_name_H-M_alt    "P 1"
_space_group_IT_number       1

loop_
  _space_group_symop_operation_xyz
  'x, y, z'

loop_
  _atom_site_type_symbol
  _atom_site_label
  _atom_site_symmetry_multiplicity
  _atom_site_fract_x
  _atom_site_fract_y
  _atom_site_fract_z
  _atom_site_occupancy
  S   S1        1.0  0.01280  0.25840  0.22602  1.0000
  C   C1        1.0  0.22989  0.44878  0.05127  1.0000
  Fe  Fe1       1.0  0.02050  0.26711  0.19716  1.0000
  S   S2        1.0  0.06030  0.26225  0.18871  1.0000
  C   C2        1.0  0.31070  0.08089  0.04519  1.0000
  C   C3        1.0  0.08576  0.23460  0.06597  1.0000
  H   H1        1.0  0.39944  0.45517  0.14875  1.0000
  H   H2        1.0  0.47001  0.39524  0.18526  1.0000
  H   H3        1.0  0.43057  0.38104  0.18302  1.0000
  H   H4        1.0  0.07682  0.18250  0.22092  1.0000
  C   C4        1.0  0.05495  0.17902  0.16522  1.0000
  H   H5        1.0  0.11180  0.26521  0.07450  1.0000
  H   H6        1.0  0.06889  0.23216  0.05840  1.0000
  Fe  Fe2       1.0  0.30737  0.50731  0.11848  1.0000
  Fe  Fe3       1.0  0.29347  0.04390  0.10677  1.0000
  S   S3        1.0  0.29045  0.09340  0.10699  1.0000
  Fe  Fe4       1.0  0.26338  0.47393  0.10435  1.0000
  S   S4        1.0  0.23099  0.44357  0.10630  1.0000
  Fe  Fe5       1.0  0.47392  0.01467  0.19495  1.0000
  S   S5        1.0  0.30333  0.46365  0.10469  1.0000
  Fe  Fe6       1.0  0.20054  0.27641  0.10166  1.0000
  S   S6        1.0  0.16776  0.29393  0.08817  1.0000
  S   S7        1.0  0.22855  0.30578  0.11437  1.0000
  Fe  Fe7       1.0  0.18701  0.21337  0.09362  1.0000
  S   S8        1.0  0.15298  0.22703  0.07942  1.0000
  S   S9        1.0  0.19250  0.16422  0.09460  1.0000
  Fe  Fe8       1.0  0.17631  0.26091  0.06692  1.0000
  S   S10       1.0  0.17608  0.27887  0.03912  1.0000
  Fe  Fe9       1.0  0.14727  0.25859  0.10207  1.0000
  S   S11       1.0  0.10929  0.27084  0.11221  1.0000
  S   S12       1.0  0.21068  0.24545  0.07956  1.0000
  S   S13       1.0  0.17970  0.24285  0.11710  1.0000
  C   C5        1.0  0.23166  0.40505  0.10725  1.0000
  C   C6        1.0  0.25183  0.38964  0.11333  1.0000
  C   C7        1.0  0.25092  0.35910  0.11497  1.0000
  C   C8        1.0  0.23011  0.34364  0.11010  1.0000
  C   C9        1.0  0.21025  0.35900  0.10346  1.0000
  C   C10       1.0  0.21087  0.38958  0.10238  1.0000
  H   H7        1.0  0.26784  0.40134  0.11732  1.0000
  H   H8        1.0  0.26630  0.34744  0.12027  1.0000
  H   H9        1.0  0.19411  0.34745  0.09973  1.0000
  H   H10       1.0  0.19517  0.40135  0.09770  1.0000
  C   C11       1.0  0.26301  0.11275  0.10380  1.0000
  C   C12       1.0  0.24134  0.09837  0.10042  1.0000
  C   C13       1.0  0.21995  0.11452  0.09763  1.0000
  C   C14       1.0  0.21999  0.14514  0.09824  1.0000
  C   C15       1.0  0.24171  0.15955  0.10157  1.0000
  C   C16       1.0  0.26314  0.14338  0.10434  1.0000
  H   H11       1.0  0.24099  0.07480  0.10001  1.0000
  H   H12       1.0  0.20321  0.10321  0.09510  1.0000
  H   H13       1.0  0.24196  0.18311  0.10204  1.0000
  H   H14       1.0  0.27985  0.15469  0.10690  1.0000
  H   H15       1.0  0.26614  0.45910  0.04286  1.0000
  C   C17       1.0  0.26386  0.14258  0.05467  1.0000
  H   H16       1.0  0.43624  0.17966  0.26325  1.0000
  H   H17       1.0  0.16116  0.21885  0.03129  1.0000
  H   H18       1.0  0.27274  0.07669  0.07086  1.0000
  H   H19       1.0  0.45346  0.43572  0.20234  1.0000
  H   H20       1.0  0.03745  0.17710  0.15822  1.0000
  H   H21       1.0  0.06969  0.13355  0.22544  1.0000
  H   H22       1.0  0.12396  0.34403  0.07094  1.0000
  H   H23       1.0  0.03214  0.16109  0.22456  1.0000
  H   H24       1.0  0.28492  0.43578  0.06741  1.0000
  C   C18       1.0  0.42091  0.01479  0.16541  1.0000
  C   C19       1.0  0.05330  0.27642  0.03902  1.0000
  H   H25       1.0  0.29756  0.06618  0.16601  1.0000
  H   H26       1.0  0.07617  0.31390  0.03487  1.0000
  H   H27       1.0  0.05985  0.48798  0.25205  1.0000
  H   H28       1.0  0.04495  0.11161  0.21796  1.0000
  N   N1        1.0  0.26581  0.41252  0.04690  1.0000
  C   C20       1.0  0.32201  0.07278  0.06307  1.0000
  C   C21       1.0  0.25346  0.44046  0.04146  1.0000
  H   H29       1.0  0.25212  0.13780  0.06618  1.0000
  H   H30       1.0  0.12589  0.29515  0.01845  1.0000
  H   H31       1.0  0.42675  0.02206  0.13767  1.0000
  Fe  Fe10      1.0  0.30457  0.48967  0.07954  1.0000
  H   H32       1.0  0.25879  0.41859  0.07507  1.0000
  C   C22       1.0  0.09571  0.26672  0.13340  1.0000
  C   C23       1.0  0.07169  0.27634  0.13605  1.0000
  C   C24       1.0  0.06038  0.27451  0.15274  1.0000
  C   C25       1.0  0.07311  0.26341  0.16711  1.0000
  C   C26       1.0  0.09708  0.25356  0.16445  1.0000
  C   C27       1.0  0.10823  0.25489  0.14766  1.0000
  H   H33       1.0  0.06174  0.28541  0.12512  1.0000
  H   H34       1.0  0.04195  0.28219  0.15455  1.0000
  H   H35       1.0  0.10709  0.24481  0.17544  1.0000
  H   H36       1.0  0.12654  0.24693  0.14578  1.0000
  H   H37       1.0  0.41182  0.44752  0.20801  1.0000
  C   C28       1.0  0.41389  0.01528  0.14761  1.0000
  H   H38       1.0  0.40702  0.41704  0.24395  1.0000
  H   H39       1.0  0.46935  0.37096  0.20400  1.0000
  C   C29       1.0  0.28684  0.12327  0.05472  1.0000
  H   H40       1.0  0.28142  0.36871  0.07012  1.0000
  H   H41       1.0  0.33795  0.15631  0.15671  1.0000
  N   N2        1.0  0.16739  0.33242  0.15224  1.0000
  C   C30       1.0  0.18584  0.35511  0.14730  1.0000
  C   C31       1.0  0.15788  0.31986  0.13521  1.0000
  C   C32       1.0  0.18048  0.30910  0.16249  1.0000
  C   C33       1.0  0.14799  0.34711  0.16333  1.0000
  C   C34       1.0  0.19984  0.36925  0.16265  1.0000
  C   C35       1.0  0.14335  0.34118  0.12363  1.0000
  C   C36       1.0  0.16775  0.27957  0.16453  1.0000
  C   C37       1.0  0.12444  0.33009  0.16685  1.0000
  H   H42       1.0  0.19972  0.34549  0.13827  1.0000
  H   H43       1.0  0.17738  0.37340  0.13997  1.0000
  H   H44       1.0  0.14603  0.30088  0.13737  1.0000
  H   H45       1.0  0.17313  0.31092  0.12706  1.0000
  H   H46       1.0  0.19835  0.30392  0.15618  1.0000
  H   H47       1.0  0.18457  0.31692  0.17607  1.0000
  H   H48       1.0  0.15519  0.35291  0.17656  1.0000
  H   H49       1.0  0.14272  0.36860  0.15773  1.0000
  H   H50       1.0  0.18771  0.38096  0.17205  1.0000
  H   H51       1.0  0.21128  0.35321  0.16969  1.0000
  H   H52       1.0  0.21239  0.38568  0.15711  1.0000
  H   H53       1.0  0.13535  0.32887  0.11247  1.0000
  H   H54       1.0  0.12804  0.35150  0.13090  1.0000
  H   H55       1.0  0.15504  0.35807  0.11775  1.0000
  H   H56       1.0  0.17826  0.26593  0.17383  1.0000
  H   H57       1.0  0.16748  0.26733  0.15188  1.0000
  H   H58       1.0  0.14924  0.28154  0.16995  1.0000
  H   H59       1.0  0.12516  0.31885  0.17975  1.0000
  H   H60       1.0  0.11972  0.31415  0.15650  1.0000
  H   H61       1.0  0.10887  0.34556  0.16729  1.0000
  N   N3        1.0  0.42631  0.40356  0.20820  1.0000
  N   N4        1.0  0.04243  0.16379  0.19686  1.0000
  H   H62       1.0  0.06502  0.19671  0.15854  1.0000
  C   C38       1.0  0.40987  0.42706  0.21571  1.0000
  C   C39       1.0  0.42278  0.37500  0.21761  1.0000
  C   C40       1.0  0.39318  0.39299  0.18492  1.0000
  H   H63       1.0  0.43186  0.44127  0.23862  1.0000
  C   C41       1.0  0.41313  0.43495  0.23532  1.0000
  C   C42       1.0  0.43727  0.37031  0.23480  1.0000
  C   C43       1.0  0.41995  0.39938  0.18898  1.0000
  C   C44       1.0  0.17217  0.25898  0.01926  1.0000
  H   H64       1.0  0.02090  0.14449  0.17597  1.0000
  H   H65       1.0  0.32362  0.09612  0.03889  1.0000
  H   H66       1.0  0.39056  0.42083  0.21460  1.0000
  H   H67       1.0  0.40328  0.37179  0.22076  1.0000
  H   H68       1.0  0.27463  0.05051  0.05361  1.0000
  S   S14       1.0  0.27887  0.01395  0.08604  1.0000
  H   H69       1.0  0.42497  0.41886  0.18118  1.0000
  H   H70       1.0  0.00438  0.42645  0.23616  1.0000
  H   H71       1.0  0.29158  0.12085  0.06888  1.0000
  H   H72       1.0  0.26919  0.16582  0.05556  1.0000
  C   C45       1.0  0.07350  0.29704  0.04516  1.0000
  H   H73       1.0  0.12578  0.25521  0.04054  1.0000
  C   C46       1.0  0.48617  0.15716  0.24902  1.0000
  H   H74       1.0  0.01098  0.19165  0.25325  1.0000
  H   H75       1.0  0.44202  0.39029  0.24209  1.0000
  H   H76       1.0  0.45393  0.35722  0.23220  1.0000
  S   S15       1.0  0.33190  0.02801  0.10364  1.0000
  H   H77       1.0  0.07979  0.14857  0.19539  1.0000
  H   H78       1.0  0.32528  0.06216  0.17852  1.0000
  S   S16       1.0  0.26468  0.49710  0.07844  1.0000
  C   C47       1.0  0.47547  0.41752  0.26512  1.0000
  H   H79       1.0  0.10016  0.22035  0.06020  1.0000
  N   N5        1.0  0.33987  0.09565  0.14944  1.0000
  C   C48       1.0  0.31803  0.11557  0.15121  1.0000
  C   C49       1.0  0.33058  0.06487  0.14959  1.0000
  C   C50       1.0  0.35161  0.10149  0.13181  1.0000
  C   C51       1.0  0.35700  0.10209  0.16441  1.0000
  C   C52       1.0  0.32260  0.14839  0.14871  1.0000
  C   C53       1.0  0.31597  0.05631  0.16612  1.0000
  C   C54       1.0  0.37381  0.08266  0.12673  1.0000
  C   C55       1.0  0.37501  0.07761  0.16955  1.0000
  H   H80       1.0  0.30372  0.10928  0.14165  1.0000
  H   H81       1.0  0.30946  0.11350  0.16446  1.0000
  H   H82       1.0  0.34526  0.04858  0.14806  1.0000
  H   H83       1.0  0.31876  0.06103  0.13798  1.0000
  H   H84       1.0  0.33816  0.09893  0.12104  1.0000
  H   H85       1.0  0.35806  0.12431  0.13109  1.0000
  H   H86       1.0  0.36776  0.12190  0.16152  1.0000
  H   H87       1.0  0.34653  0.10727  0.17666  1.0000
  S   S17       1.0  0.45312  0.49651  0.22526  1.0000
  H   H88       1.0  0.32554  0.15358  0.13459  1.0000
  H   H89       1.0  0.30619  0.16082  0.15295  1.0000
  H   H90       1.0  0.00434  0.13261  0.21402  1.0000
  H   H91       1.0  0.39168  0.38562  0.17097  1.0000
  H   H92       1.0  0.21499  0.43387  0.04769  1.0000
  H   H93       1.0  0.37931  0.08800  0.11302  1.0000
  H   H94       1.0  0.36998  0.05905  0.12670  1.0000
  H   H95       1.0  0.38957  0.08764  0.13517  1.0000
  H   H96       1.0  0.39248  0.08749  0.17350  1.0000
  H   H97       1.0  0.37941  0.06171  0.15904  1.0000
  H   H98       1.0  0.36850  0.06581  0.18137  1.0000
  H   H99       1.0  0.48945  0.40130  0.20354  1.0000
  H   H100      1.0  0.05620  0.19734  0.23715  1.0000
  C   C56       1.0  0.23149  0.37925  0.05885  1.0000
  H   H101      1.0  0.04230  0.26896  0.05040  1.0000
  C   C57       1.0  0.06123  0.13970  0.19723  1.0000
  H   H102      1.0  0.06886  0.19625  0.18925  1.0000
  H   H103      1.0  0.40147  0.45413  0.23854  1.0000
  C   C58       1.0  0.45207  0.41407  0.20877  1.0000
  H   H104      1.0  0.38189  0.41306  0.18614  1.0000
  H   H105      1.0  0.23890  0.36203  0.06756  1.0000
  H   H106      1.0  0.01617  0.10711  0.19752  1.0000
  C   C59       1.0  0.48772  0.12708  0.24498  1.0000
  C   C60       1.0  0.06250  0.12104  0.21409  1.0000
  H   H107      1.0  0.26092  0.36646  0.04211  1.0000
  H   H108      1.0  0.05988  0.25735  0.03135  1.0000
  C   C61       1.0  0.11161  0.27833  0.01809  1.0000
  C   C62       1.0  0.27655  0.09532  0.02714  1.0000
  H   H109      1.0  0.25315  0.14100  0.04247  1.0000
  H   H110      1.0  0.06551  0.30966  0.05639  1.0000
  H   H111      1.0  0.03837  0.20640  0.18512  1.0000
  H   H112      1.0  0.23299  0.06157  0.06360  1.0000
  H   H113      1.0  0.31346  0.03231  0.16607  1.0000
  S   S18       1.0  0.45069  0.02555  0.17097  1.0000
  H   H114      1.0  0.31186  0.05529  0.06969  1.0000
  H   H115      1.0  0.02068  0.49134  0.23730  1.0000
  H   H116      1.0  0.42812  0.35652  0.20875  1.0000
  H   H117      1.0  0.00162  0.27226  0.26453  1.0000
  H   H118      1.0  0.09696  0.24430  0.03374  1.0000
  H   H119      1.0  0.23454  0.09747  0.05510  1.0000
  H   H120      1.0  0.02245  0.19319  0.21413  1.0000
  C   C63       1.0  0.01870  0.15295  0.18966  1.0000
  H   H121      1.0  0.22419  0.47092  0.04710  1.0000
  H   H122      1.0  0.08157  0.27790  0.07668  1.0000
  H   H123      1.0  0.99953  0.37390  0.22874  1.0000
  C   C64       1.0  0.39093  0.47523  0.15323  1.0000
  H   H124      1.0  0.29145  0.39268  0.08728  1.0000
  H   H125      1.0  0.30174  0.42584  0.03870  1.0000
  H   H126      1.0  0.06574  0.15871  0.16355  1.0000
  H   H127      1.0  0.45829  0.41802  0.22238  1.0000
  C   C65       1.0  0.36906  0.48448  0.14542  1.0000
  S   S19       1.0  0.32384  0.47354  0.05482  1.0000
  N   N6        1.0  0.09716  0.28327  0.05051  1.0000
  H   H128      1.0  0.47920  0.17204  0.23927  1.0000
  C   C66       1.0  0.24967  0.38654  0.04395  1.0000
  C   C67       1.0  0.31332  0.48747  0.03456  1.0000
  H   H129      1.0  0.34056  0.06397  0.06072  1.0000
  C   C68       1.0  0.05116  0.18755  0.18478  1.0000
  H   H130      1.0  0.09222  0.34074  0.06747  1.0000
  H   H131      1.0  0.05870  0.12444  0.18589  1.0000
  H   H132      1.0  0.22530  0.39798  0.06693  1.0000
  H   H133      1.0  0.46824  0.43949  0.26523  1.0000
  C   C69       1.0  0.26965  0.07357  0.05648  1.0000
  H   H134      1.0  0.06077  0.21619  0.21694  1.0000
  H   H135      1.0  0.30824  0.39077  0.06721  1.0000
  C   C70       1.0  0.27408  0.41560  0.06575  1.0000
  C   C71       1.0  0.09425  0.26643  0.06742  1.0000
  C   C72       1.0  0.11502  0.30740  0.05393  1.0000
  C   C73       1.0  0.28961  0.39022  0.07276  1.0000
  S   S20       1.0  0.28528  0.01316  0.12891  1.0000
  C   C74       1.0  0.05934  0.19415  0.22277  1.0000
  C   C75       1.0  0.03786  0.17745  0.21475  1.0000
  N   N7        1.0  0.28542  0.09376  0.04589  1.0000
  H   H136      1.0  0.38572  0.37558  0.19334  1.0000
  C   C76       1.0  0.24208  0.07526  0.05356  1.0000
  C   C77       1.0  0.16405  0.23016  0.01901  1.0000
  H   H137      1.0  0.10801  0.31638  0.08232  1.0000
  H   H138      1.0  0.23200  0.44987  0.06576  1.0000
  H   H139      1.0  0.42632  0.35704  0.24402  1.0000
  H   H140      1.0  0.23714  0.06612  0.04048  1.0000
  H   H141      1.0  0.04322  0.48268  0.21065  1.0000
  C   C78       1.0  0.00646  0.12808  0.19975  1.0000
  C   C79       1.0  0.47105  0.39390  0.19984  1.0000
  H   H142      1.0  0.07522  0.10252  0.21173  1.0000
  C   C80       1.0  0.49269  0.40929  0.25239  1.0000
  H   H143      1.0  0.31119  0.06077  0.03686  1.0000
  H   H144      1.0  0.23922  0.38910  0.03154  1.0000
  C   C81       1.0  0.04587  0.50449  0.21678  1.0000
  H   H145      1.0  0.30208  0.13632  0.04941  1.0000
  H   H146      1.0  0.32364  0.09180  0.07207  1.0000
  H   H147      1.0  0.36090  0.47155  0.13509  1.0000
  C   C82       1.0  0.28825  0.40877  0.03556  1.0000
  H   H148      1.0  0.21504  0.36961  0.05290  1.0000
  C   C83       1.0  0.10792  0.26397  0.03623  1.0000
  H   H149      1.0  0.29751  0.38770  0.03834  1.0000
  Fe  Fe11      1.0  0.49076  0.47715  0.22447  1.0000
  H   H150      1.0  0.08220  0.22634  0.07947  1.0000
  H   H151      1.0  0.11709  0.32156  0.04220  1.0000
  S   S21       1.0  0.99616  0.30687  0.19677  1.0000
  C   C84       1.0  0.10908  0.32805  0.06960  1.0000
  H   H152      1.0  0.13334  0.29813  0.05645  1.0000
  H   H153      1.0  0.24831  0.43971  0.02733  1.0000
  Fe  Fe12      1.0  0.45607  0.49875  0.19563  1.0000
  H   H154      1.0  0.25752  0.10292  0.02638  1.0000
  H   H155      1.0  0.04121  0.28827  0.02982  1.0000
  C   C85       1.0  0.40190  0.49173  0.16669  1.0000
  S   S22       1.0  0.42913  0.47836  0.17634  1.0000
  C   C86       1.0  0.35766  0.51022  0.15116  1.0000
  H   H156      1.0  0.00533  0.17124  0.18892  1.0000
  H   H157      1.0  0.27634  0.07308  0.02109  1.0000
  C   C87       1.0  0.00198  0.17115  0.25540  1.0000
  C   C88       1.0  0.99576  0.41221  0.24553  1.0000
  H   H158      1.0  0.06356  0.50399  0.22353  1.0000
  H   H159      1.0  0.48175  0.11906  0.23230  1.0000
  S   S23       1.0  0.49288  0.47716  0.19471  1.0000
  C   C89       1.0  0.05295  0.50462  0.26153  1.0000
  C   C90       1.0  0.29580  0.50958  0.03421  1.0000
  H   H160      1.0  0.29265  0.13752  0.01986  1.0000
  H   H161      1.0  0.33575  0.45873  0.01870  1.0000
  C   C91       1.0  0.32215  0.47580  0.01854  1.0000
  H   H162      1.0  0.26414  0.01529  0.02260  1.0000
  C   C92       1.0  0.49317  0.16812  0.26562  1.0000
  H   H163      1.0  0.29616  0.45598  0.44767  1.0000
  S   S24       1.0  0.48986  0.20622  0.27010  1.0000
  H   H164      1.0  0.14457  0.08396  0.33734  1.0000
  C   C93       1.0  0.42131  0.18436  0.31782  1.0000
  C   C94       1.0  0.05736  0.50922  0.36028  1.0000
  S   S25       1.0  0.99703  0.04943  0.33028  1.0000
  S   S26       1.0  0.45703  0.26019  0.30238  1.0000
  H   H165      1.0  0.43353  0.22669  0.43294  1.0000
  Fe  Fe13      1.0  0.46640  0.25133  0.33070  1.0000
  S   S27       1.0  0.43926  0.23102  0.35004  1.0000
  H   H166      1.0  0.42908  0.20789  0.27906  1.0000
  H   H167      1.0  0.40941  0.29340  0.43850  1.0000
  H   H168      1.0  0.33767  0.21686  0.51256  1.0000
  C   C95       1.0  0.25480  0.48206  0.41786  1.0000
  H   H169      1.0  0.42050  0.09637  0.29768  1.0000
  H   H170      1.0  0.09022  0.07383  0.37695  1.0000
  Fe  Fe14      1.0  0.20675  0.04141  0.42939  1.0000
  S   S28       1.0  0.23997  0.06988  0.42534  1.0000
  Fe  Fe15      1.0  0.18274  0.47948  0.42184  1.0000
  S   S29       1.0  0.19496  0.43500  0.41125  1.0000
  S   S30       1.0  0.17022  0.05910  0.43678  1.0000
  S   S31       1.0  0.14432  0.49181  0.42950  1.0000
  Fe  Fe16      1.0  0.27522  0.23755  0.42394  1.0000
  S   S32       1.0  0.31497  0.22649  0.42599  1.0000
  S   S33       1.0  0.24320  0.20821  0.41745  1.0000
  Fe  Fe17      1.0  0.28209  0.30105  0.43640  1.0000
  S   S34       1.0  0.32208  0.29430  0.43963  1.0000
  S   S35       1.0  0.26574  0.34341  0.44732  1.0000
  Fe  Fe18      1.0  0.32133  0.27033  0.41355  1.0000
  S   S36       1.0  0.35025  0.28577  0.39395  1.0000
  Fe  Fe19      1.0  0.31273  0.25147  0.45172  1.0000
  S   S37       1.0  0.33022  0.23422  0.47649  1.0000
  S   S38       1.0  0.28146  0.27994  0.40955  1.0000
  S   S39       1.0  0.27291  0.25966  0.45046  1.0000
  C   C96       1.0  0.21431  0.40959  0.42162  1.0000
  C   C97       1.0  0.22361  0.38595  0.41168  1.0000
  C   C98       1.0  0.23987  0.36585  0.41920  1.0000
  C   C99       1.0  0.24660  0.36894  0.43684  1.0000
  C   C100      1.0  0.23711  0.39238  0.44682  1.0000
  C   C101      1.0  0.22115  0.41274  0.43924  1.0000
  H   H171      1.0  0.21847  0.38345  0.39801  1.0000
  H   H172      1.0  0.24716  0.34799  0.41137  1.0000
  H   H173      1.0  0.24204  0.39473  0.46054  1.0000
  H   H174      1.0  0.21401  0.43075  0.44704  1.0000
  C   C102      1.0  0.24290  0.17006  0.42127  1.0000
  C   C103      1.0  0.26409  0.15317  0.42063  1.0000
  C   C104      1.0  0.26290  0.12261  0.42214  1.0000
  C   C105      1.0  0.24063  0.10860  0.42469  1.0000
  C   C106      1.0  0.21955  0.12560  0.42598  1.0000
  C   C107      1.0  0.22063  0.15608  0.42396  1.0000
  H   H175      1.0  0.28133  0.16357  0.41849  1.0000
  H   H176      1.0  0.27934  0.10971  0.42120  1.0000
  H   H177      1.0  0.20242  0.11520  0.42842  1.0000
  H   H178      1.0  0.20414  0.16891  0.42453  1.0000
  H   H179      1.0  0.45138  0.12002  0.30939  1.0000
  C   C108      1.0  0.26779  0.48623  0.45499  1.0000
  C   C109      1.0  0.42305  0.23654  0.44414  1.0000
  H   H180      1.0  0.45038  0.14752  0.28379  1.0000
  H   H181      1.0  0.41547  0.26339  0.40228  1.0000
  H   H182      1.0  0.22591  0.05778  0.38984  1.0000
  C   C110      1.0  0.31879  0.24835  0.49669  1.0000
  C   C111      1.0  0.30323  0.27251  0.49699  1.0000
  C   C112      1.0  0.32561  0.23553  0.51270  1.0000
  H   H183      1.0  0.29800  0.28270  0.48477  1.0000
  C   C113      1.0  0.41374  0.24660  0.36123  1.0000
  C   C114      1.0  0.39777  0.22814  0.37031  1.0000
  C   C115      1.0  0.37779  0.23954  0.37992  1.0000
  C   C116      1.0  0.37377  0.26967  0.38083  1.0000
  C   C117      1.0  0.38953  0.28804  0.37152  1.0000
  C   C118      1.0  0.40933  0.27663  0.36174  1.0000
  H   H184      1.0  0.40092  0.20486  0.36995  1.0000
  H   H185      1.0  0.36563  0.22504  0.38670  1.0000
  H   H186      1.0  0.38656  0.31136  0.37203  1.0000
  H   H187      1.0  0.42137  0.29113  0.35483  1.0000
  C   C119      1.0  0.19975  0.11432  0.36522  1.0000
  C   C120      1.0  0.46810  0.39750  0.27812  1.0000
  H   H188      1.0  0.28277  0.30267  0.51321  1.0000
  H   H189      1.0  0.39738  0.20812  0.29930  1.0000
  H   H190      1.0  0.47704  0.13674  0.33311  1.0000
  H   H191      1.0  0.01658  0.06405  0.38988  1.0000
  H   H192      1.0  0.03732  0.02053  0.38614  1.0000
  S   S40       1.0  0.15301  0.02966  0.48357  1.0000
  H   H193      1.0  0.09988  0.49052  0.39112  1.0000
  H   H194      1.0  0.42206  0.29975  0.40836  1.0000
  H   H195      1.0  0.36755  0.19763  0.44138  1.0000
  H   H196      1.0  0.43391  0.12866  0.32859  1.0000
  H   H197      1.0  0.41901  0.17823  0.33194  1.0000
  H   H198      1.0  0.38161  0.18860  0.31655  1.0000
  H   H199      1.0  0.38422  0.29788  0.46181  1.0000
  Fe  Fe20      1.0  0.48106  0.29957  0.30472  1.0000
  S   S41       1.0  0.03219  0.49341  0.34922  1.0000
  H   H200      1.0  0.46166  0.17086  0.33516  1.0000
  H   H201      1.0  0.14635  0.10973  0.39423  1.0000
  S   S42       1.0  0.12611  0.04727  0.39895  1.0000
  H   H202      1.0  0.37715  0.23223  0.45981  1.0000
  C   C121      1.0  0.01202  0.49575  0.39489  1.0000
  H   H203      1.0  0.23616  0.50203  0.39589  1.0000
  S   S43       1.0  0.19245  0.01148  0.40806  1.0000
  H   H204      1.0  0.25192  0.50310  0.42486  1.0000
  H   H205      1.0  0.39717  0.22148  0.32140  1.0000
  H   H206      1.0  0.18208  0.48434  0.48362  1.0000
  H   H207      1.0  0.43946  0.27086  0.41773  1.0000
  H   H208      1.0  0.47900  0.16184  0.31546  1.0000
  H   H209      1.0  0.06206  0.05447  0.35429  1.0000
  H   H210      1.0  0.37167  0.18584  0.41923  1.0000
  H   H211      1.0  0.17359  0.06774  0.39554  1.0000
  H   H212      1.0  0.43632  0.20039  0.31756  1.0000
  H   H213      1.0  0.31676  0.42459  0.41852  1.0000
  C   C122      1.0  0.16266  0.08531  0.36270  1.0000
  H   H214      1.0  0.40870  0.17792  0.27485  1.0000
  C   C123      1.0  0.47770  0.36897  0.27854  1.0000
  H   H215      1.0  0.29720  0.39585  0.41181  1.0000
  H   H216      1.0  0.23884  0.46882  0.42172  1.0000
  H   H217      1.0  0.20784  0.11243  0.51197  1.0000
  H   H218      1.0  0.21235  0.14640  0.38486  1.0000
  H   H219      1.0  0.20817  0.11002  0.35207  1.0000
  H   H220      1.0  0.16888  0.05855  0.33875  1.0000
  H   H221      1.0  0.40092  0.22378  0.41306  1.0000
  C   C124      1.0  0.20104  0.06013  0.36710  1.0000
  C   C125      1.0  0.09009  0.05072  0.37405  1.0000
  C   C126      1.0  0.42781  0.18412  0.27636  1.0000
  H   H222      1.0  0.02300  0.49669  0.40710  1.0000
  C   C127      1.0  0.38814  0.22768  0.42420  1.0000
  H   H223      1.0  0.36300  0.25899  0.44718  1.0000
  C   C128      1.0  0.16550  0.11351  0.39787  1.0000
  H   H224      1.0  0.03994  0.01845  0.40933  1.0000
  S   S44       1.0  0.46888  0.34535  0.29598  1.0000
  Fe  Fe21      1.0  0.02354  0.01321  0.32401  1.0000
  C   C129      1.0  0.19429  0.09549  0.51492  1.0000
  C   C130      1.0  0.25258  0.48850  0.39801  1.0000
  H   H225      1.0  0.06506  0.46997  0.37470  1.0000
  H   H226      1.0  0.23433  0.13609  0.36897  1.0000
  H   H227      1.0  0.20424  0.05839  0.35264  1.0000
  H   H228      1.0  0.25020  0.46825  0.39014  1.0000
  C   C131      1.0  0.10604  0.03205  0.38309  1.0000
  C   C132      1.0  0.39800  0.20127  0.31320  1.0000
  H   H229      1.0  0.18635  0.13225  0.36322  1.0000
  C   C133      1.0  0.30022  0.48333  0.41788  1.0000
  C   C134      1.0  0.00541  0.06150  0.37787  1.0000
  C   C135      1.0  0.40547  0.14066  0.30242  1.0000
  H   H230      1.0  0.40670  0.27331  0.47097  1.0000
  H   H231      1.0  0.43410  0.25506  0.44909  1.0000
  H   H232      1.0  0.19688  0.46287  0.51159  1.0000
  H   H233      1.0  0.23371  0.03493  0.37172  1.0000
  H   H234      1.0  0.26098  0.42643  0.41552  1.0000
  C   C136      1.0  0.40262  0.27689  0.42899  1.0000
  C   C137      1.0  0.21953  0.12733  0.37730  1.0000
  N   N8        1.0  0.19567  0.29189  0.44052  1.0000
  C   C138      1.0  0.20332  0.27716  0.45736  1.0000
  C   C139      1.0  0.19448  0.32420  0.44422  1.0000
  C   C140      1.0  0.21531  0.28605  0.42699  1.0000
  C   C141      1.0  0.17174  0.27957  0.43462  1.0000
  C   C142      1.0  0.20645  0.24367  0.45643  1.0000
  C   C143      1.0  0.17783  0.33383  0.45966  1.0000
  C   C144      1.0  0.21098  0.29778  0.40832  1.0000
  C   C145      1.0  0.15521  0.29958  0.42353  1.0000
  H   H235      1.0  0.22071  0.28640  0.46223  1.0000
  H   H236      1.0  0.18980  0.28119  0.46805  1.0000
  H   H237      1.0  0.18891  0.33669  0.43244  1.0000
  H   H238      1.0  0.21278  0.33238  0.44748  1.0000
  H   H239      1.0  0.23288  0.29495  0.43165  1.0000
  H   H240      1.0  0.21837  0.26233  0.42503  1.0000
  H   H241      1.0  0.17474  0.25910  0.42686  1.0000
  H   H242      1.0  0.16055  0.27302  0.44618  1.0000
  H   H243      1.0  0.20864  0.23519  0.47000  1.0000
  H   H244      1.0  0.19065  0.23261  0.45056  1.0000
  H   H245      1.0  0.22308  0.23709  0.44916  1.0000
  H   H246      1.0  0.17357  0.35744  0.45843  1.0000
  H   H247      1.0  0.16054  0.32181  0.46001  1.0000
  H   H248      1.0  0.18719  0.33104  0.47246  1.0000
  H   H249      1.0  0.22793  0.29507  0.40050  1.0000
  H   H250      1.0  0.20632  0.32125  0.40814  1.0000
  H   H251      1.0  0.19706  0.28483  0.40138  1.0000
  H   H252      1.0  0.14752  0.31785  0.43147  1.0000
  H   H253      1.0  0.13963  0.28669  0.41870  1.0000
  H   H254      1.0  0.16427  0.30864  0.41181  1.0000
  N   N9        1.0  0.27788  0.46692  0.42331  1.0000
  C   C146      1.0  0.44160  0.16664  0.29042  1.0000
  C   C147      1.0  0.38080  0.19712  0.43035  1.0000
  C   C148      1.0  0.29825  0.41590  0.42009  1.0000
  Fe  Fe22      1.0  0.16903  0.02240  0.45618  1.0000
  C   C149      1.0  0.42270  0.21416  0.45930  1.0000
  H   H255      1.0  0.37165  0.23790  0.41841  1.0000
  C   C150      1.0  0.99729  0.12665  0.27291  1.0000
  C   C151      1.0  0.44418  0.13854  0.31747  1.0000
  S   S45       1.0  0.00518  0.10663  0.29216  1.0000
  C   C152      1.0  0.22630  0.05679  0.37528  1.0000
  C   C153      1.0  0.40961  0.11319  0.29086  1.0000
  N   N10       1.0  0.39892  0.24784  0.43782  1.0000
  H   H256      1.0  0.02283  0.16062  0.27856  1.0000
  H   H257      1.0  0.41810  0.11839  0.27799  1.0000
  H   H258      1.0  0.27189  0.48096  0.46893  1.0000
  H   H259      1.0  0.40626  0.20077  0.46026  1.0000
  Fe  Fe23      1.0  0.49092  0.23470  0.29527  1.0000
  C   C154      1.0  0.07403  0.03981  0.36120  1.0000
  C   C155      1.0  0.27767  0.46157  0.44295  1.0000
  C   C156      1.0  0.42099  0.27722  0.41353  1.0000
  C   C157      1.0  0.38088  0.25252  0.45259  1.0000
  H   H260      1.0  0.42592  0.22515  0.47218  1.0000
  H   H261      1.0  0.39686  0.18363  0.43359  1.0000
  H   H262      1.0  0.30329  0.48211  0.40336  1.0000
  H   H263      1.0  0.22818  0.11199  0.38650  1.0000
  H   H264      1.0  0.26804  0.50118  0.39293  1.0000
  H   H265      1.0  0.29528  0.40882  0.43389  1.0000
  H   H266      1.0  0.15155  0.10528  0.36512  1.0000
  H   H267      1.0  0.31669  0.47262  0.42326  1.0000
  H   H268      1.0  0.26631  0.44234  0.44608  1.0000
  H   H269      1.0  0.37587  0.27273  0.47844  1.0000
  H   H270      1.0  0.43812  0.19871  0.45745  1.0000
  H   H271      1.0  0.15197  0.06697  0.36821  1.0000
  Fe  Fe24      1.0  0.15538  0.02733  0.41672  1.0000
  S   S46       1.0  0.02705  0.02495  0.29528  1.0000
  H   H272      1.0  0.39633  0.13377  0.31483  1.0000
  H   H273      1.0  0.38507  0.28575  0.42405  1.0000
  H   H274      1.0  0.28119  0.44018  0.39953  1.0000
  C   C158      1.0  0.18208  0.08838  0.39129  1.0000
  C   C159      1.0  0.17624  0.49344  0.49616  1.0000
  C   C160      1.0  0.46659  0.15326  0.32564  1.0000
  C   C161      1.0  0.00875  0.15343  0.26973  1.0000
  H   H275      1.0  0.01787  0.47594  0.38749  1.0000
  H   H276      1.0  0.01668  0.05341  0.36673  1.0000
  H   H277      1.0  0.23916  0.07290  0.36990  1.0000
  H   H278      1.0  0.45514  0.40432  0.28811  1.0000
  C   C162      1.0  0.07031  0.49229  0.37249  1.0000
  C   C163      1.0  0.16322  0.08104  0.34248  1.0000
  H   H279      1.0  0.45716  0.18051  0.29413  1.0000
  C   C164      1.0  0.38768  0.27548  0.46665  1.0000
  N   N11       1.0  0.18694  0.08748  0.37171  1.0000
  H   H280      1.0  0.19888  0.08940  0.39908  1.0000
  H   H281      1.0  0.39170  0.15393  0.29552  1.0000
  H   H282      1.0  0.18972  0.08466  0.50220  1.0000
  H   H283      1.0  0.16577  0.11433  0.41249  1.0000
  Fe  Fe25      1.0  0.99846  0.05933  0.30092  1.0000
  H   H284      1.0  0.17142  0.13499  0.39302  1.0000
  H   H285      1.0  0.99916  0.08370  0.37424  1.0000
  H   H286      1.0  0.19043  0.04051  0.37081  1.0000
  N   N12       1.0  0.42781  0.15793  0.30669  1.0000
  C   C165      1.0  0.27857  0.43765  0.41400  1.0000
  C   C166      1.0  0.29465  0.28385  0.51315  1.0000
  H   H287      1.0  0.17487  0.09713  0.33580  1.0000
  S   S47       1.0  0.48815  0.29241  0.33377  1.0000
  H   H288      1.0  0.24781  0.48780  0.45407  1.0000
  H   H289      1.0  0.99885  0.02260  0.41125  1.0000
  C   C167      1.0  0.18457  0.48130  0.51202  1.0000
  S   S48       1.0  0.20015  0.50605  0.44328  1.0000
  C   C168      1.0  0.09012  0.50388  0.38184  1.0000
  H   H290      1.0  0.00198  0.25141  0.28420  1.0000
  H   H291      1.0  0.39182  0.10319  0.28796  1.0000
  C   C169      1.0  0.16577  0.01508  0.50289  1.0000
  H   H292      1.0  0.06660  0.50661  0.27216  1.0000
  H   H293      1.0  0.03619  0.49629  0.26760  1.0000
  H   H294      1.0  0.27570  0.50771  0.45223  1.0000
  Fe  Fe26      1.0  0.00706  0.51058  0.32760  1.0000
  H   H295      1.0  0.35731  0.36509  0.65394  1.0000
  H   H296      1.0  0.12625  0.11486  0.60364  1.0000
  Fe  Fe27      1.0  0.48126  0.28733  0.73156  1.0000
  C   C170      1.0  0.24643  0.11213  0.56033  1.0000
  C   C171      1.0  0.20454  0.35185  0.57515  1.0000
  C   C172      1.0  0.34569  0.35346  0.62781  1.0000
  Fe  Fe28      1.0  0.26805  0.28217  0.61111  1.0000
  S   S49       1.0  0.30030  0.30127  0.59788  1.0000
  S   S50       1.0  0.23724  0.31084  0.62146  1.0000
  Fe  Fe29      1.0  0.28497  0.21942  0.60332  1.0000
  S   S51       1.0  0.31828  0.23496  0.58887  1.0000
  S   S52       1.0  0.28344  0.17003  0.60671  1.0000
  Fe  Fe30      1.0  0.32195  0.26651  0.61159  1.0000
  S   S53       1.0  0.35913  0.27798  0.62251  1.0000
  Fe  Fe31      1.0  0.29369  0.26806  0.57651  1.0000
  S   S54       1.0  0.29031  0.28681  0.54903  1.0000
  S   S55       1.0  0.29001  0.24964  0.62668  1.0000
  S   S56       1.0  0.26009  0.25033  0.58919  1.0000
  H   H297      1.0  0.13086  0.09931  0.66670  1.0000
  C   C173      1.0  0.30794  0.37298  0.65334  1.0000
  C   C174      1.0  0.31679  0.24672  0.52891  1.0000
  H   H298      1.0  0.22041  0.06399  0.57092  1.0000
  C   C175      1.0  0.17692  0.49270  0.52843  1.0000
  H   H299      1.0  0.33695  0.36292  0.68108  1.0000
  Fe  Fe32      1.0  0.20414  0.47852  0.61118  1.0000
  S   S57       1.0  0.23403  0.44946  0.62223  1.0000
  Fe  Fe33      1.0  0.18974  0.03906  0.60640  1.0000
  S   S58       1.0  0.19019  0.08874  0.60591  1.0000
  S   S59       1.0  0.17213  0.46106  0.59669  1.0000
  H   H300      1.0  0.18228  0.42124  0.65494  1.0000
  C   C176      1.0  0.17443  0.44213  0.65042  1.0000
  Fe  Fe34      1.0  0.44908  0.25513  0.70442  1.0000
  S   S60       1.0  0.40960  0.24914  0.69599  1.0000
  C   C177      1.0  0.10564  0.42504  0.65195  1.0000
  S   S61       1.0  0.45698  0.24819  0.73336  1.0000
  H   H301      1.0  0.46034  0.04463  0.73493  1.0000
  C   C178      1.0  0.34619  0.34759  0.64782  1.0000
  C   C179      1.0  0.15281  0.01743  0.51884  1.0000
  C   C180      1.0  0.23401  0.10190  0.54320  1.0000
  H   H302      1.0  0.30474  0.37540  0.63898  1.0000
  H   H303      1.0  0.12535  0.37463  0.65816  1.0000
  H   H304      1.0  0.47875  0.42070  0.73905  1.0000
  C   C181      1.0  0.12045  0.38906  0.62111  1.0000
  H   H305      1.0  0.21467  0.33609  0.58335  1.0000
  H   H306      1.0  0.44731  0.05194  0.75615  1.0000
  C   C182      1.0  0.28597  0.36308  0.57097  1.0000
  C   C183      1.0  0.37287  0.26904  0.64289  1.0000
  C   C184      1.0  0.36015  0.25547  0.65648  1.0000
  C   C185      1.0  0.37170  0.24956  0.67262  1.0000
  C   C186      1.0  0.39608  0.25696  0.67534  1.0000
  C   C187      1.0  0.40878  0.27048  0.66172  1.0000
  C   C188      1.0  0.39718  0.27659  0.64563  1.0000
  H   H307      1.0  0.34140  0.24968  0.65464  1.0000
  H   H308      1.0  0.36171  0.23918  0.68312  1.0000
  H   H309      1.0  0.42753  0.27633  0.66360  1.0000
  H   H310      1.0  0.40719  0.28717  0.63522  1.0000
  C   C189      1.0  0.30134  0.27103  0.52916  1.0000
  H   H311      1.0  0.13884  0.41490  0.68522  1.0000
  H   H312      1.0  0.20583  0.37311  0.54998  1.0000
  H   H313      1.0  0.32213  0.23676  0.54117  1.0000
  H   H314      1.0  0.09955  0.44232  0.64275  1.0000
  C   C190      1.0  0.25724  0.14787  0.60618  1.0000
  C   C191      1.0  0.25996  0.11747  0.60763  1.0000
  C   C192      1.0  0.23966  0.09903  0.60750  1.0000
  C   C193      1.0  0.21638  0.11087  0.60600  1.0000
  C   C194      1.0  0.21364  0.14124  0.60445  1.0000
  C   C195      1.0  0.23395  0.15966  0.60450  1.0000
  H   H315      1.0  0.27788  0.10811  0.60894  1.0000
  H   H316      1.0  0.24205  0.07572  0.60872  1.0000
  H   H317      1.0  0.19571  0.15062  0.60326  1.0000
  H   H318      1.0  0.23158  0.18299  0.60336  1.0000
  C   C196      1.0  0.23676  0.34932  0.61996  1.0000
  C   C197      1.0  0.21441  0.36411  0.62044  1.0000
  C   C198      1.0  0.21333  0.39476  0.62016  1.0000
  C   C199      1.0  0.23462  0.41097  0.62033  1.0000
  C   C200      1.0  0.25701  0.39618  0.61971  1.0000
  C   C201      1.0  0.25806  0.36549  0.61908  1.0000
  H   H319      1.0  0.19783  0.35177  0.62095  1.0000
  H   H320      1.0  0.19610  0.40584  0.62020  1.0000
  H   H321      1.0  0.27357  0.40857  0.61964  1.0000
  H   H322      1.0  0.27532  0.35433  0.61843  1.0000
  C   C202      1.0  0.00372  0.41396  0.75305  1.0000
  H   H323      1.0  0.16843  0.06736  0.56505  1.0000
  C   C203      1.0  0.10502  0.06250  0.61194  1.0000
  H   H324      1.0  0.09447  0.40569  0.64875  1.0000
  C   C204      1.0  0.14698  0.44479  0.65399  1.0000
  S   S62       1.0  0.47093  0.29637  0.70345  1.0000
  C   C205      1.0  0.16749  0.08642  0.55624  1.0000
  H   H325      1.0  0.03235  0.38803  0.76449  1.0000
  H   H326      1.0  0.10279  0.13491  0.61588  1.0000
  C   C206      1.0  0.45876  0.03625  0.74852  1.0000
  H   H327      1.0  0.14253  0.06651  0.61959  1.0000
  H   H328      1.0  0.25986  0.33133  0.56143  1.0000
  H   H329      1.0  0.16638  0.39496  0.68026  1.0000
  H   H330      1.0  0.17127  0.10230  0.65468  1.0000
  H   H331      1.0  0.15970  0.07981  0.54340  1.0000
  H   H332      1.0  0.16985  0.06871  0.66632  1.0000
  H   H333      1.0  0.23451  0.12660  0.56837  1.0000
  C   C207      1.0  0.46644  0.14958  0.75274  1.0000
  N   N13       1.0  0.36007  0.16724  0.63212  1.0000
  C   C208      1.0  0.33601  0.15438  0.63737  1.0000
  C   C209      1.0  0.37386  0.14403  0.62194  1.0000
  C   C210      1.0  0.35501  0.19307  0.62041  1.0000
  C   C211      1.0  0.37285  0.17654  0.64873  1.0000
  C   C212      1.0  0.31775  0.17549  0.64638  1.0000
  C   C213      1.0  0.38041  0.11630  0.63228  1.0000
  C   C214      1.0  0.37541  0.20263  0.60778  1.0000
  C   C215      1.0  0.39907  0.18737  0.64688  1.0000
  H   H334      1.0  0.32675  0.14492  0.62562  1.0000
  H   H335      1.0  0.33846  0.13611  0.64674  1.0000
  H   H336      1.0  0.39115  0.15225  0.61654  1.0000
  H   H337      1.0  0.36335  0.13721  0.61011  1.0000
  H   H338      1.0  0.33920  0.18858  0.61174  1.0000
  H   H339      1.0  0.34977  0.21256  0.62843  1.0000
  H   H340      1.0  0.36282  0.19472  0.65526  1.0000
  H   H341      1.0  0.37255  0.15920  0.65890  1.0000
  H   H342      1.0  0.30059  0.16368  0.64880  1.0000
  H   H343      1.0  0.32420  0.18342  0.65935  1.0000
  H   H344      1.0  0.31305  0.19416  0.63789  1.0000
  H   H345      1.0  0.39111  0.12126  0.64424  1.0000
  H   H346      1.0  0.36418  0.10352  0.63582  1.0000
  H   H347      1.0  0.39185  0.10191  0.62375  1.0000
  H   H348      1.0  0.37011  0.22355  0.60159  1.0000
  H   H349      1.0  0.37803  0.18670  0.59682  1.0000
  H   H350      1.0  0.39277  0.20650  0.61448  1.0000
  H   H351      1.0  0.39942  0.21100  0.64394  1.0000
  H   H352      1.0  0.40998  0.17529  0.63696  1.0000
  H   H353      1.0  0.40866  0.18396  0.65955  1.0000
  C   C216      1.0  0.48164  0.40564  0.74970  1.0000
  H   H354      1.0  0.26443  0.36712  0.51677  1.0000
  N   N14       1.0  0.24247  0.37387  0.56024  1.0000
  C   C217      1.0  0.21824  0.35942  0.55801  1.0000
  C   C218      1.0  0.24056  0.40028  0.57208  1.0000
  C   C219      1.0  0.25965  0.35253  0.56861  1.0000
  C   C220      1.0  0.20411  0.07226  0.52767  1.0000
  C   C221      1.0  0.22248  0.42391  0.56625  1.0000
  H   H355      1.0  0.08853  0.06869  0.66715  1.0000
  H   H356      1.0  0.22270  0.44215  0.57598  1.0000
  H   H357      1.0  0.23571  0.39395  0.58570  1.0000
  H   H358      1.0  0.25840  0.41116  0.57333  1.0000
  H   H359      1.0  0.25327  0.34657  0.58202  1.0000
  H   H360      1.0  0.49262  0.22910  0.76143  1.0000
  H   H361      1.0  0.47793  0.36746  0.73293  1.0000
  H   H362      1.0  0.12863  0.06173  0.66127  1.0000
  S   S63       1.0  0.48594  0.31691  0.75598  1.0000
  H   H363      1.0  0.20362  0.41594  0.56578  1.0000
  C   C222      1.0  0.09728  0.50151  0.63967  1.0000
  Fe  Fe35      1.0  0.18192  0.49366  0.57583  1.0000
  H   H364      1.0  0.18393  0.45999  0.65745  1.0000
  C   C223      1.0  0.99915  0.12155  0.74752  1.0000
  H   H365      1.0  0.06196  0.49013  0.62999  1.0000
  H   H366      1.0  0.13538  0.02838  0.51909  1.0000
  H   H367      1.0  0.12177  0.36817  0.62826  1.0000
  C   C224      1.0  0.48356  0.03313  0.75760  1.0000
  C   C225      1.0  0.12462  0.06560  0.62635  1.0000
  H   H368      1.0  0.30153  0.32373  0.63646  1.0000
  C   C226      1.0  0.19235  0.10118  0.55437  1.0000
  H   H369      1.0  0.15598  0.38130  0.65246  1.0000
  H   H370      1.0  0.36056  0.31690  0.67764  1.0000
  H   H371      1.0  0.06269  0.07691  0.65414  1.0000
  C   C227      1.0  0.09752  0.43452  0.67061  1.0000
  H   H372      1.0  0.14051  0.46407  0.64659  1.0000
  H   H373      1.0  0.26571  0.39973  0.54322  1.0000
  H   H374      1.0  0.23593  0.02777  0.53789  1.0000
  H   H375      1.0  0.13965  0.37632  0.68611  1.0000
  H   H376      1.0  0.15458  0.10212  0.56249  1.0000
  C   C228      1.0  0.09576  0.09690  0.64432  1.0000
  H   H377      1.0  0.28892  0.37063  0.58474  1.0000
  H   H378      1.0  0.22030  0.33864  0.55047  1.0000
  H   H379      1.0  0.24750  0.34052  0.52856  1.0000
  H   H380      1.0  0.32206  0.30074  0.64750  1.0000
  C   C229      1.0  0.28269  0.37621  0.66189  1.0000
  C   C230      1.0  0.28804  0.30638  0.66092  1.0000
  H   H381      1.0  0.31016  0.34370  0.68454  1.0000
  H   H382      1.0  0.28309  0.37540  0.67647  1.0000
  H   H383      1.0  0.26982  0.36008  0.65649  1.0000
  H   H384      1.0  0.27514  0.39794  0.65846  1.0000
  H   H385      1.0  0.27193  0.30325  0.65241  1.0000
  H   H386      1.0  0.28194  0.31980  0.67225  1.0000
  H   H387      1.0  0.29301  0.28437  0.66576  1.0000
  H   H388      1.0  0.29114  0.38090  0.56205  1.0000
  N   N15       1.0  0.12178  0.09066  0.63929  1.0000
  H   H389      1.0  0.16873  0.06829  0.64275  1.0000
  S   S64       1.0  0.47962  0.22567  0.69512  1.0000
  H   H390      1.0  0.34219  0.31585  0.69694  1.0000
  H   H391      1.0  0.15508  0.40696  0.62668  1.0000
  H   H392      1.0  0.01595  0.42909  0.74686  1.0000
  C   C231      1.0  0.30897  0.31899  0.64973  1.0000
  H   H393      1.0  0.45441  0.16224  0.74454  1.0000
  C   C232      1.0  0.32689  0.34334  0.67650  1.0000
  H   H394      1.0  0.34041  0.37629  0.62494  1.0000
  C   C233      1.0  0.21740  0.05719  0.55697  1.0000
  H   H395      1.0  0.18960  0.12220  0.54742  1.0000
  H   H396      1.0  0.14481  0.45116  0.66801  1.0000
  H   H397      1.0  0.20160  0.04235  0.55751  1.0000
  H   H398      1.0  0.07802  0.44065  0.67019  1.0000
  S   S65       1.0  0.11183  0.49157  0.61946  1.0000
  H   H399      1.0  0.31868  0.39232  0.65745  1.0000
  Fe  Fe36      1.0  0.48869  0.22116  0.72404  1.0000
  H   H400      1.0  0.21937  0.06122  0.52060  1.0000
  H   H401      1.0  0.17850  0.44497  0.63621  1.0000
  N   N16       1.0  0.32189  0.34531  0.65699  1.0000
  Fe  Fe37      1.0  0.15085  0.49754  0.60990  1.0000
  C   C234      1.0  0.34150  0.31632  0.68231  1.0000
  H   H402      1.0  0.24122  0.01975  0.56039  1.0000
  H   H403      1.0  0.26260  0.12517  0.55685  1.0000
  C   C235      1.0  0.13975  0.39141  0.65893  1.0000
  N   N17       1.0  0.21197  0.08314  0.54555  1.0000
  H   H404      1.0  0.09535  0.08271  0.60843  1.0000
  C   C236      1.0  0.14642  0.39532  0.67862  1.0000
  H   H405      1.0  0.17739  0.10592  0.51987  1.0000
  C   C237      1.0  0.01298  0.39065  0.76312  1.0000
  H   H406      1.0  0.33302  0.29575  0.67793  1.0000
  H   H407      1.0  0.27810  0.34908  0.53495  1.0000
  H   H408      1.0  0.29874  0.34484  0.56799  1.0000
  S   S66       1.0  0.18726  0.47591  0.54796  1.0000
  H   H409      1.0  0.35690  0.32717  0.64933  1.0000
  H   H410      1.0  0.36423  0.35016  0.62232  1.0000
  H   H411      1.0  0.19773  0.10741  0.56799  1.0000
  H   H412      1.0  0.10124  0.39602  0.62000  1.0000
  N   N18       1.0  0.13221  0.41845  0.64912  1.0000
  H   H413      1.0  0.33382  0.33818  0.62062  1.0000
  C   C238      1.0  0.13599  0.41313  0.62958  1.0000
  H   H414      1.0  0.25293  0.09377  0.56847  1.0000
  C   C239      1.0  0.00526  0.15024  0.75261  1.0000
  H   H415      1.0  0.24790  0.09068  0.53482  1.0000
  C   C240      1.0  0.25126  0.38308  0.54226  1.0000
  H   H416      1.0  0.08468  0.10333  0.63288  1.0000
  C   C241      1.0  0.45696  0.12826  0.76411  1.0000
  S   S67       1.0  0.15891  0.02088  0.59061  1.0000
  C   C242      1.0  0.13300  0.11800  0.63210  1.0000
  H   H417      1.0  0.23652  0.39432  0.53493  1.0000
  C   C243      1.0  0.26076  0.35830  0.53011  1.0000
  H   H418      1.0  0.22755  0.43320  0.55330  1.0000
  H   H419      1.0  0.12704  0.38498  0.60742  1.0000
  H   H420      1.0  0.48271  0.47607  0.73266  1.0000
  H   H421      1.0  0.13156  0.15064  0.61169  1.0000
  C   C244      1.0  0.16276  0.08047  0.65467  1.0000
  C   C245      1.0  0.12238  0.12988  0.61487  1.0000
  H   H422      1.0  0.22932  0.12211  0.53594  1.0000
  H   H423      1.0  0.09180  0.04542  0.61557  1.0000
  H   H424      1.0  0.13254  0.43344  0.62201  1.0000
  H   H425      1.0  0.09462  0.11607  0.65343  1.0000
  H   H426      1.0  0.18722  0.34123  0.57162  1.0000
  H   H427      1.0  0.11372  0.05431  0.59961  1.0000
  C   C246      1.0  0.13493  0.08300  0.65608  1.0000
  C   C247      1.0  0.07211  0.49780  0.64124  1.0000
  H   H428      1.0  0.13208  0.13584  0.64217  1.0000
  H   H429      1.0  0.19974  0.37150  0.58305  1.0000
  C   C248      1.0  0.23904  0.03796  0.55098  1.0000
  C   C249      1.0  0.08235  0.07173  0.65339  1.0000
  H   H430      1.0  0.45550  0.50133  0.75547  1.0000
  H   H431      1.0  0.43761  0.12491  0.76465  1.0000
  H   H432      1.0  0.25634  0.04997  0.55092  1.0000
  H   H433      1.0  0.09899  0.41637  0.68008  1.0000
  H   H434      1.0  0.08436  0.05095  0.64602  1.0000
  C   C250      1.0  0.48129  0.37536  0.74614  1.0000
  H   H435      1.0  0.15255  0.11455  0.62912  1.0000
  C   C251      1.0  0.45630  0.50972  0.74170  1.0000
  H   H436      1.0  0.10696  0.45411  0.67553  1.0000
  H   H437      1.0  0.12466  0.04454  0.63350  1.0000
  H   H438      1.0  0.48900  0.05522  0.76170  1.0000
  H   H439      1.0  0.04057  0.50040  0.65833  1.0000
  C   C252      1.0  0.48520  0.35543  0.75971  1.0000
  H   H440      1.0  0.45711  0.20759  0.76275  1.0000
  C   C253      1.0  0.05991  0.50356  0.65731  1.0000
  H   H441      1.0  0.19001  0.05537  0.52903  1.0000
  H   H442      1.0  0.00741  0.11167  0.73594  1.0000
  C   C254      1.0  0.49140  0.15413  0.75179  1.0000
  C   C255      1.0  0.46418  0.48398  0.72967  1.0000
  H   H443      1.0  0.45188  0.46541  0.73213  1.0000
  H   H444      1.0  0.44894  0.01527  0.74844  1.0000
  H   H445      1.0  0.46275  0.48934  0.71550  1.0000
  H   H446      1.0  0.01826  0.16217  0.74484  1.0000
  S   S68       1.0  0.99648  0.04912  0.70130  1.0000
  S   S69       1.0  0.06201  0.01138  0.69651  1.0000
  S   S70       1.0  0.21505  0.50971  0.58985  1.0000
  H   H447      1.0  0.49232  0.07654  0.72588  1.0000
  S   S71       1.0  0.18236  0.01111  0.63018  1.0000
  H   H448      1.0  0.11179  0.01188  0.68559  1.0000
  S   S72       1.0  0.02217  0.26479  0.80165  1.0000
  C   C256      1.0  0.33369  0.10696  0.85008  1.0000
  Fe  Fe38      1.0  0.00869  0.26113  0.82945  1.0000
  S   S73       1.0  0.03074  0.25127  0.85433  1.0000
  Fe  Fe39      1.0  0.27289  0.03090  0.92394  1.0000
  S   S74       1.0  0.30269  0.04926  0.94035  1.0000
  S   S75       1.0  0.24633  0.05989  0.90936  1.0000
  Fe  Fe40      1.0  0.29029  0.46680  0.92332  1.0000
  S   S76       1.0  0.32079  0.47734  0.94188  1.0000
  S   S77       1.0  0.28669  0.41973  0.91392  1.0000
  H   H449      1.0  0.09694  0.33461  0.86666  1.0000
  H   H450      1.0  0.46719  0.27047  0.81631  1.0000
  H   H451      1.0  0.09069  0.20279  0.81678  1.0000
  H   H452      1.0  0.21941  0.09099  0.98701  1.0000
  H   H453      1.0  0.08644  0.15109  0.81030  1.0000
  C   C257      1.0  0.28672  0.13947  0.87424  1.0000
  Fe  Fe41      1.0  0.16259  0.24845  0.90204  1.0000
  S   S78       1.0  0.20104  0.26480  0.90027  1.0000
  S   S79       1.0  0.14268  0.25217  0.87566  1.0000
  Fe  Fe42      1.0  0.16843  0.23520  0.94162  1.0000
  S   S80       1.0  0.20629  0.25175  0.94229  1.0000
  S   S81       1.0  0.15482  0.21370  0.96662  1.0000
  Fe  Fe43      1.0  0.19285  0.28860  0.92563  1.0000
  S   S82       1.0  0.19773  0.33696  0.93185  1.0000
  Fe  Fe44      1.0  0.21097  0.22621  0.91705  1.0000
  S   S83       1.0  0.24511  0.19817  0.91569  1.0000
  S   S84       1.0  0.15398  0.27390  0.92682  1.0000
  S   S85       1.0  0.17349  0.20803  0.91690  1.0000
  H   H454      1.0  0.25163  0.08865  0.98442  1.0000
  C   C258      1.0  0.05437  0.14192  0.79495  1.0000
  C   C259      1.0  0.31345  0.48615  0.00229  1.0000
  Fe  Fe45      1.0  0.29473  0.50961  0.95420  1.0000
  H   H455      1.0  0.17838  0.39204  0.87442  1.0000
  H   H456      1.0  0.32082  0.09362  0.84237  1.0000
  H   H457      1.0  0.18195  0.29570  0.00329  1.0000
  C   C260      1.0  0.17575  0.27341  0.00323  1.0000
  H   H458      1.0  0.30143  0.40188  0.00873  1.0000
  H   H459      1.0  0.28425  0.16260  0.87840  1.0000
  H   H460      1.0  0.07776  0.23060  0.79129  1.0000
  H   H461      1.0  0.06815  0.13175  0.78606  1.0000
  H   H462      1.0  0.11795  0.26146  0.00848  1.0000
  H   H463      1.0  0.32884  0.05715  0.89472  1.0000
  H   H464      1.0  0.09004  0.31251  0.88555  1.0000
  N   N19       1.0  0.05791  0.17814  0.82154  1.0000
  C   C261      1.0  0.06322  0.17646  0.84105  1.0000
  C   C262      1.0  0.16226  0.23099  0.98678  1.0000
  H   H465      1.0  0.09377  0.35047  0.88836  1.0000
  C   C263      1.0  0.17103  0.25943  0.98707  1.0000
  S   S86       1.0  0.36429  0.02385  0.91788  1.0000
  H   H466      1.0  0.17364  0.27099  0.97484  1.0000
  H   H467      1.0  0.04623  0.16007  0.78751  1.0000
  H   H468      1.0  0.34556  0.07290  0.86752  1.0000
  C   C264      1.0  0.15885  0.21634  0.00280  1.0000
  C   C265      1.0  0.18067  0.13781  0.94306  1.0000
  H   H469      1.0  0.10057  0.15877  0.83856  1.0000
  C   C266      1.0  0.20303  0.12507  0.95239  1.0000
  H   H470      1.0  0.32277  0.14092  0.88494  1.0000
  H   H471      1.0  0.30564  0.07717  0.90586  1.0000
  S   S87       1.0  0.00306  0.20013  0.77310  1.0000
  Fe  Fe46      1.0  0.48712  0.48396  0.79559  1.0000
  S   S88       1.0  0.48615  0.45514  0.77043  1.0000
  C   C267      1.0  0.07092  0.20429  0.81436  1.0000
  C   C268      1.0  0.23610  0.12824  0.97319  1.0000
  H   H472      1.0  0.18596  0.15610  0.93450  1.0000
  H   H473      1.0  0.21736  0.12201  0.94215  1.0000
  C   C269      1.0  0.26182  0.39697  0.91904  1.0000
  C   C270      1.0  0.26201  0.36788  0.91300  1.0000
  C   C271      1.0  0.24261  0.34912  0.91684  1.0000
  C   C272      1.0  0.22280  0.35935  0.92673  1.0000
  C   C273      1.0  0.22255  0.38848  0.93263  1.0000
  C   C274      1.0  0.24196  0.40720  0.92886  1.0000
  H   H474      1.0  0.27728  0.35977  0.90539  1.0000
  H   H475      1.0  0.24303  0.32677  0.91220  1.0000
  H   H476      1.0  0.20730  0.39660  0.94029  1.0000
  H   H477      1.0  0.24155  0.42950  0.93358  1.0000
  C   C275      1.0  0.24527  0.09817  0.91236  1.0000
  C   C276      1.0  0.26300  0.11292  0.92192  1.0000
  C   C277      1.0  0.26257  0.14355  0.92297  1.0000
  C   C278      1.0  0.24401  0.15969  0.91497  1.0000
  C   C279      1.0  0.22575  0.14492  0.90597  1.0000
  C   C280      1.0  0.22657  0.11431  0.90449  1.0000
  H   H478      1.0  0.27736  0.10087  0.92818  1.0000
  H   H479      1.0  0.27675  0.15484  0.92997  1.0000
  H   H480      1.0  0.21142  0.15714  0.89969  1.0000
  H   H481      1.0  0.21272  0.10310  0.89711  1.0000
  C   C281      1.0  0.06186  0.25354  0.86023  1.0000
  C   C282      1.0  0.06886  0.24475  0.87721  1.0000
  C   C283      1.0  0.09338  0.24474  0.88231  1.0000
  C   C284      1.0  0.11132  0.25314  0.87037  1.0000
  C   C285      1.0  0.10434  0.26220  0.85343  1.0000
  C   C286      1.0  0.07976  0.26270  0.84843  1.0000
  H   H482      1.0  0.05518  0.23767  0.88646  1.0000
  H   H483      1.0  0.09842  0.23770  0.89537  1.0000
  H   H484      1.0  0.11804  0.26887  0.84409  1.0000
  H   H485      1.0  0.07470  0.26999  0.83544  1.0000
  H   H486      1.0  0.20463  0.12653  0.00841  1.0000
  H   H487      1.0  0.28209  0.11600  0.00178  1.0000
  H   H488      1.0  0.35190  0.10868  0.87477  1.0000
  C   C287      1.0  0.34178  0.09447  0.90850  1.0000
  H   H489      1.0  0.18844  0.15986  0.00896  1.0000
  H   H490      1.0  0.20067  0.18348  0.95661  1.0000
  H   H491      1.0  0.49097  0.23128  0.81819  1.0000
  C   C288      1.0  0.37665  0.01723  0.89650  1.0000
  C   C289      1.0  0.32198  0.07961  0.89734  1.0000
  H   H492      1.0  0.33796  0.11778  0.91132  1.0000
  N   N20       1.0  0.31530  0.09483  0.88047  1.0000
  H   H493      1.0  0.23301  0.08185  0.96586  1.0000
  C   C290      1.0  0.44910  0.21027  0.77606  1.0000
  H   H494      1.0  0.45899  0.20939  0.80351  1.0000
  H   H495      1.0  0.26917  0.12861  0.87687  1.0000
  H   H496      1.0  0.09149  0.16931  0.86042  1.0000
  C   C291      1.0  0.41240  0.01541  0.87714  1.0000
  C   C292      1.0  0.40140  0.02235  0.89351  1.0000
  H   H497      1.0  0.23032  0.17238  0.95026  1.0000
  S   S89       1.0  0.48996  0.47219  0.82427  1.0000
  C   C293      1.0  0.29655  0.01395  0.00667  1.0000
  H   H498      1.0  0.41229  0.03120  0.90406  1.0000
  C   C294      1.0  0.33744  0.09514  0.86878  1.0000
  H   H499      1.0  0.44272  0.25645  0.80307  1.0000
  H   H500      1.0  0.29054  0.13920  0.85991  1.0000
  H   H501      1.0  0.24971  0.13005  0.96233  1.0000
  H   H502      1.0  0.35125  0.50338  0.87997  1.0000
  Fe  Fe47      1.0  0.29188  0.01556  0.96015  1.0000
  C   C295      1.0  0.23461  0.09563  0.97791  1.0000
  H   H503      1.0  0.99603  0.16239  0.82300  1.0000
  H   H504      1.0  0.35126  0.10605  0.84287  1.0000
  H   H505      1.0  0.02071  0.13707  0.82408  1.0000
  N   N21       1.0  0.37089  0.42153  0.89189  1.0000
  C   C296      1.0  0.39597  0.43304  0.88810  1.0000
  C   C297      1.0  0.36108  0.43822  0.90765  1.0000
  C   C298      1.0  0.35538  0.42706  0.87590  1.0000
  C   C299      1.0  0.37327  0.38934  0.89537  1.0000
  C   C300      1.0  0.40751  0.42397  0.87024  1.0000
  C   C301      1.0  0.37604  0.43559  0.92468  1.0000
  C   C302      1.0  0.32771  0.42744  0.87855  1.0000
  C   C303      1.0  0.35040  0.37315  0.90156  1.0000
  H   H506      1.0  0.39602  0.45727  0.88856  1.0000
  H   H507      1.0  0.40902  0.42616  0.89842  1.0000
  H   H508      1.0  0.34234  0.43196  0.91110  1.0000
  H   H509      1.0  0.35959  0.46181  0.90453  1.0000
  H   H510      1.0  0.35960  0.44867  0.87020  1.0000
  H   H511      1.0  0.35948  0.41080  0.86528  1.0000
  H   H512      1.0  0.37950  0.37765  0.88324  1.0000
  H   H513      1.0  0.38795  0.38467  0.90496  1.0000
  H   H514      1.0  0.40894  0.40003  0.86861  1.0000
  H   H515      1.0  0.39772  0.43353  0.85891  1.0000
  H   H516      1.0  0.42617  0.43277  0.86957  1.0000
  H   H517      1.0  0.39399  0.44598  0.92338  1.0000
  H   H518      1.0  0.36653  0.44747  0.93552  1.0000
  H   H519      1.0  0.37804  0.41267  0.92893  1.0000
  H   H520      1.0  0.31889  0.43005  0.86554  1.0000
  H   H521      1.0  0.32172  0.44631  0.88674  1.0000
  H   H522      1.0  0.32068  0.40714  0.88423  1.0000
  H   H523      1.0  0.34037  0.36410  0.89014  1.0000
  H   H524      1.0  0.33785  0.38635  0.90980  1.0000
  H   H525      1.0  0.35584  0.35476  0.91014  1.0000
  N   N22       1.0  0.14353  0.35111  0.88773  1.0000
  C   C304      1.0  0.16901  0.34047  0.89096  1.0000
  C   C305      1.0  0.13490  0.36745  0.90398  1.0000
  C   C306      1.0  0.14244  0.37128  0.87221  1.0000
  C   C307      1.0  0.12795  0.32512  0.88379  1.0000
  C   C308      1.0  0.18260  0.32723  0.87491  1.0000
  C   C309      1.0  0.12926  0.34867  0.92021  1.0000
  C   C310      1.0  0.15900  0.39812  0.87333  1.0000
  C   C311      1.0  0.10074  0.33138  0.88089  1.0000
  H   H526      1.0  0.18051  0.35815  0.89644  1.0000
  H   H527      1.0  0.16906  0.32333  0.90122  1.0000
  H   H528      1.0  0.11857  0.38095  0.90124  1.0000
  H   H529      1.0  0.14875  0.38341  0.90837  1.0000
  H   H530      1.0  0.14663  0.35938  0.85968  1.0000
  H   H531      1.0  0.12367  0.37975  0.87043  1.0000
  H   H532      1.0  0.13427  0.31401  0.87150  1.0000
  H   H533      1.0  0.12989  0.30792  0.89398  1.0000
  H   H534      1.0  0.20116  0.32103  0.87909  1.0000
  H   H535      1.0  0.17393  0.30704  0.87002  1.0000
  H   H536      1.0  0.18476  0.34287  0.86400  1.0000
  H   H537      1.0  0.12391  0.36316  0.93140  1.0000
  H   H538      1.0  0.11399  0.33362  0.91787  1.0000
  H   H539      1.0  0.14540  0.33629  0.92451  1.0000
  H   H540      1.0  0.15382  0.41272  0.88449  1.0000
  H   H541      1.0  0.15705  0.41097  0.86107  1.0000
  H   H542      1.0  0.07842  0.19249  0.78665  1.0000
  H   H543      1.0  0.37311  0.49256  0.85184  1.0000
  C   C312      1.0  0.48552  0.41655  0.76689  1.0000
  C   C313      1.0  0.19363  0.14261  0.98236  1.0000
  H   H544      1.0  0.01397  0.16141  0.84245  1.0000
  S   S90       1.0  0.46757  0.04565  0.83483  1.0000
  H   H545      1.0  0.46815  0.26488  0.77549  1.0000
  Fe  Fe48      1.0  0.47221  0.04566  0.80530  1.0000
  H   H546      1.0  0.19785  0.10273  0.95645  1.0000
  H   H547      1.0  0.34295  0.08344  0.92144  1.0000
  H   H548      1.0  0.28437  0.03704  0.86011  1.0000
  C   C314      1.0  0.03104  0.18312  0.81987  1.0000
  S   S91       1.0  0.45900  0.08415  0.78846  1.0000
  C   C315      1.0  0.21743  0.17292  0.96159  1.0000
  H   H549      1.0  0.04048  0.12491  0.79699  1.0000
  H   H550      1.0  0.17288  0.12094  0.93422  1.0000
  H   H551      1.0  0.05479  0.15683  0.84692  1.0000
  C   C316      1.0  0.22738  0.19454  0.97531  1.0000
  C   C317      1.0  0.06654  0.15033  0.81265  1.0000
  H   H552      1.0  0.30028  0.12692  0.89900  1.0000
  C   C318      1.0  0.29130  0.11492  0.01473  1.0000
  H   H553      1.0  0.16627  0.14504  0.95240  1.0000
  H   H554      1.0  0.21934  0.16036  0.00273  1.0000
  H   H555      1.0  0.06446  0.22444  0.82126  1.0000
  H   H556      1.0  0.32035  0.47712  0.99002  1.0000
  H   H557      1.0  0.32776  0.13005  0.85037  1.0000
  H   H558      1.0  0.27899  0.07771  0.88130  1.0000
  S   S92       1.0  0.01040  0.34244  0.78456  1.0000
  C   C319      1.0  0.30050  0.04622  0.86676  1.0000
  H   H559      1.0  0.06354  0.13151  0.82155  1.0000
  H   H560      1.0  0.28824  0.08876  0.86004  1.0000
  C   C320      1.0  0.01481  0.15937  0.82786  1.0000
  H   H561      1.0  0.28099  0.43179  0.01070  1.0000
  H   H562      1.0  0.02536  0.18593  0.80605  1.0000
  S   S93       1.0  0.42298  0.49416  0.84172  1.0000
  H   H563      1.0  0.43157  0.01890  0.87519  1.0000
  H   H564      1.0  0.04990  0.21185  0.78998  1.0000
  C   C321      1.0  0.30722  0.12565  0.88521  1.0000
  C   C322      1.0  0.29486  0.07806  0.87216  1.0000
  C   C323      1.0  0.47224  0.11102  0.77463  1.0000
  H   H565      1.0  0.30960  0.10572  0.01204  1.0000
  C   C324      1.0  0.09016  0.17525  0.84628  1.0000
  H   H566      1.0  0.47664  0.18656  0.78947  1.0000
  H   H567      1.0  0.17944  0.15939  0.97970  1.0000
  H   H568      1.0  0.09874  0.19694  0.84514  1.0000
  H   H569      1.0  0.24454  0.13945  0.98451  1.0000
  H   H570      1.0  0.24429  0.18687  0.98154  1.0000
  C   C325      1.0  0.06884  0.20965  0.79442  1.0000
  H   H571      1.0  0.00975  0.49128  0.78834  1.0000
  H   H572      1.0  0.26981  0.39463  0.01107  1.0000
  H   H573      1.0  0.02589  0.20407  0.82643  1.0000
  N   N23       1.0  0.21253  0.14241  0.96787  1.0000
  S   S94       1.0  0.26358  0.49677  0.93689  1.0000
  H   H574      1.0  0.23193  0.21515  0.96854  1.0000
  H   H575      1.0  0.05496  0.19535  0.84827  1.0000
  S   S95       1.0  0.28190  0.02907  0.98820  1.0000
  H   H576      1.0  0.30391  0.03226  0.87830  1.0000
  H   H577      1.0  0.43821  0.23062  0.77662  1.0000
  C   C326      1.0  0.37047  0.50730  0.87893  1.0000
  H   H578      1.0  0.18401  0.12138  0.98255  1.0000
  H   H579      1.0  0.21342  0.20033  0.98536  1.0000
  H   H580      1.0  0.35987  0.09199  0.90219  1.0000
  H   H581      1.0  0.15191  0.19440  0.00267  1.0000
  S   S96       1.0  0.30104  0.50048  0.90331  1.0000
  H   H582      1.0  0.43635  0.19193  0.77786  1.0000
  C   C327      1.0  0.20261  0.14759  0.00146  1.0000
  H   H583      1.0  0.31580  0.04438  0.85729  1.0000
  H   H584      1.0  0.45242  0.29315  0.80059  1.0000
  C   C328      1.0  0.46854  0.20882  0.79054  1.0000
  C   C329      1.0  0.29591  0.50831  0.00202  1.0000
  C   C330      1.0  0.38291  0.50123  0.86299  1.0000
  C   C331      1.0  0.48918  0.36630  0.77687  1.0000
  H   H585      1.0  0.49159  0.27865  0.78886  1.0000
  H   H586      1.0  0.09460  0.28759  0.01280  1.0000
  H   H587      1.0  0.99771  0.50525  0.81579  1.0000
  C   C332      1.0  0.40800  0.50571  0.86142  1.0000
  Fe  Fe49      1.0  0.32595  0.01427  0.92758  1.0000
  C   C333      1.0  0.47719  0.26187  0.78845  1.0000
  H   H588      1.0  0.48045  0.02156  0.77025  1.0000
  Fe  Fe50      1.0  0.45983  0.50521  0.82929  1.0000
  C   C334      1.0  0.99748  0.37074  0.77148  1.0000
  Fe  Fe51      1.0  0.99533  0.30185  0.79849  1.0000
  C   C335      1.0  0.45888  0.27055  0.80305  1.0000
  N   N24       1.0  0.48797  0.23169  0.78974  1.0000
  H   H589      1.0  0.49230  0.40451  0.79375  1.0000
  C   C336      1.0  0.48923  0.39659  0.78048  1.0000
  H   H590      1.0  0.49222  0.35121  0.78751  1.0000
  C   C337      1.0  0.28449  0.40930  0.01540  1.0000
  C   C338      1.0  0.99458  0.16376  0.76753  1.0000
  H   H591      1.0  0.99853  0.48477  0.76686  1.0000
  S   S97       1.0  0.01255  0.75690  0.22716  1.0000
  C   C339      1.0  0.25642  0.84455  0.04765  1.0000
  Fe  Fe52      1.0  0.01492  0.76750  0.19814  1.0000
  S   S98       1.0  0.05420  0.76399  0.18821  1.0000
  C   C340      1.0  0.47073  0.87876  0.25528  1.0000
  H   H592      1.0  0.24612  0.82567  0.04231  1.0000
  C   C341      1.0  0.05668  0.81657  0.22814  1.0000
  H   H593      1.0  0.20752  0.84262  0.04072  1.0000
  H   H594      1.0  0.26511  0.91184  0.05435  1.0000
  H   H595      1.0  0.04312  0.82867  0.19320  1.0000
  H   H596      1.0  0.10083  0.85237  0.23177  1.0000
  H   H597      1.0  0.42097  0.89862  0.14658  1.0000
  C   C342      1.0  0.04524  0.85247  0.19487  1.0000
  H   H598      1.0  0.43834  0.85590  0.20400  1.0000
  Fe  Fe53      1.0  0.27131  0.53805  0.09388  1.0000
  S   S99       1.0  0.25567  0.58013  0.08285  1.0000
  Fe  Fe54      1.0  0.27411  0.98132  0.10775  1.0000
  S   S100      1.0  0.23882  0.95645  0.10687  1.0000
  S   S101      1.0  0.31176  0.53221  0.09320  1.0000
  S   S102      1.0  0.31108  0.96123  0.10454  1.0000
  Fe  Fe55      1.0  0.20267  0.79252  0.11382  1.0000
  S   S103      1.0  0.17379  0.80501  0.09456  1.0000
  S   S104      1.0  0.23070  0.82227  0.12615  1.0000
  Fe  Fe56      1.0  0.19139  0.72711  0.11060  1.0000
  S   S105      1.0  0.16191  0.73490  0.09078  1.0000
  S   S106      1.0  0.19957  0.68297  0.12288  1.0000
  Fe  Fe57      1.0  0.18746  0.76687  0.07833  1.0000
  S   S107      1.0  0.20151  0.77241  0.05022  1.0000
  Fe  Fe58      1.0  0.15057  0.77218  0.10886  1.0000
  S   S108      1.0  0.11025  0.77973  0.11480  1.0000
  S   S109      1.0  0.21771  0.75613  0.09697  1.0000
  S   S110      1.0  0.17863  0.76258  0.12930  1.0000
  C   C343      1.0  0.23663  0.91954  0.11311  1.0000
  C   C344      1.0  0.21522  0.90443  0.10945  1.0000
  C   C345      1.0  0.21305  0.87472  0.11354  1.0000
  C   C346      1.0  0.23224  0.85994  0.12155  1.0000
  C   C347      1.0  0.25349  0.87520  0.12554  1.0000
  C   C348      1.0  0.25577  0.90484  0.12122  1.0000
  H   H599      1.0  0.20027  0.91574  0.10331  1.0000
  H   H600      1.0  0.19652  0.86329  0.11058  1.0000
  H   H601      1.0  0.26836  0.86394  0.13180  1.0000
  H   H602      1.0  0.27229  0.91631  0.12420  1.0000
  C   C349      1.0  0.23935  0.60796  0.09410  1.0000
  C   C350      1.0  0.22998  0.60413  0.11108  1.0000
  C   C351      1.0  0.21783  0.62733  0.11975  1.0000
  C   C352      1.0  0.21479  0.65440  0.11146  1.0000
  C   C353      1.0  0.22395  0.65810  0.09442  1.0000
  C   C354      1.0  0.23614  0.63496  0.08579  1.0000
  H   H603      1.0  0.23197  0.58327  0.11743  1.0000
  H   H604      1.0  0.21069  0.62426  0.13290  1.0000
  H   H605      1.0  0.22169  0.67881  0.08789  1.0000
  H   H606      1.0  0.24327  0.63805  0.07262  1.0000
  H   H607      1.0  0.44601  0.64162  0.24648  1.0000
  C   C355      1.0  0.38069  0.99748  0.17303  1.0000
  H   H608      1.0  0.27758  0.80724  0.07343  1.0000
  H   H609      1.0  0.15132  0.75768  0.04209  1.0000
  C   C356      1.0  0.26515  0.81511  0.08396  1.0000
  H   H610      1.0  0.40823  0.89153  0.19330  1.0000
  H   H611      1.0  0.39818  0.92446  0.14149  1.0000
  H   H612      1.0  0.42240  0.96212  0.21758  1.0000
  C   C357      1.0  0.41211  0.93041  0.16809  1.0000
  H   H613      1.0  0.39127  0.89482  0.15617  1.0000
  S   S111      1.0  0.47205  0.54348  0.19588  1.0000
  H   H614      1.0  0.24532  0.88354  0.03217  1.0000
  H   H615      1.0  0.27472  0.83509  0.04986  1.0000
  S   S112      1.0  0.99416  0.82729  0.25359  1.0000
  H   H616      1.0  0.35233  0.99518  0.02205  1.0000
  H   H617      1.0  0.39950  0.95304  0.20211  1.0000
  H   H618      1.0  0.48407  0.60255  0.20972  1.0000
  C   C358      1.0  0.46183  0.63617  0.25416  1.0000
  H   H619      1.0  0.18533  0.86486  0.05180  1.0000
  H   H620      1.0  0.06625  0.80438  0.25522  1.0000
  H   H621      1.0  0.08549  0.82115  0.19784  1.0000
  H   H622      1.0  0.06197  0.85978  0.18815  1.0000
  S   S113      1.0  0.45691  0.58119  0.23977  1.0000
  H   H623      1.0  0.41389  0.92510  0.21531  1.0000
  C   C359      1.0  0.46171  0.94238  0.15625  1.0000
  C   C360      1.0  0.09499  0.77663  0.13546  1.0000
  C   C361      1.0  0.06954  0.77856  0.13605  1.0000
  C   C362      1.0  0.05669  0.77511  0.15206  1.0000
  C   C363      1.0  0.06919  0.76960  0.16768  1.0000
  C   C364      1.0  0.09464  0.76794  0.16710  1.0000
  C   C365      1.0  0.10746  0.77157  0.15114  1.0000
  H   H624      1.0  0.05969  0.78257  0.12402  1.0000
  H   H625      1.0  0.03714  0.77649  0.15226  1.0000
  H   H626      1.0  0.10453  0.76385  0.17910  1.0000
  H   H627      1.0  0.12701  0.77064  0.15097  1.0000
  S   S114      1.0  0.32951  0.52248  0.14238  1.0000
  H   H628      1.0  0.42440  0.87427  0.17594  1.0000
  H   H629      1.0  0.04769  0.56280  0.22227  1.0000
  H   H630      1.0  0.24503  0.91932  0.07286  1.0000
  C   C366      1.0  0.39053  0.00662  0.14250  1.0000
  N   N25       1.0  0.06259  0.84843  0.22650  1.0000
  C   C367      1.0  0.05920  0.86194  0.24462  1.0000
  C   C368      1.0  0.04455  0.86249  0.21431  1.0000
  H   H631      1.0  0.04407  0.90601  0.24064  1.0000
  H   H632      1.0  0.46176  0.96358  0.16332  1.0000
  H   H633      1.0  0.06621  0.53948  0.24542  1.0000
  H   H634      1.0  0.03738  0.81393  0.23209  1.0000
  H   H635      1.0  0.02578  0.85916  0.21935  1.0000
  H   H636      1.0  0.04712  0.88644  0.21377  1.0000
  H   H637      1.0  0.47178  0.91444  0.17749  1.0000
  H   H638      1.0  0.47888  0.62102  0.18959  1.0000
  C   C369      1.0  0.26218  0.90855  0.06859  1.0000
  H   H639      1.0  0.07692  0.90404  0.23903  1.0000
  N   N26       1.0  0.12147  0.67406  0.12646  1.0000
  C   C370      1.0  0.13785  0.64849  0.13060  1.0000
  C   C371      1.0  0.13453  0.70130  0.13209  1.0000
  C   C372      1.0  0.11813  0.67433  0.10672  1.0000
  C   C373      1.0  0.09763  0.67028  0.13599  1.0000
  C   C374      1.0  0.12915  0.61823  0.12441  1.0000
  C   C375      1.0  0.14210  0.70264  0.15163  1.0000
  C   C376      1.0  0.10248  0.69905  0.09918  1.0000
  C   C377      1.0  0.08244  0.69818  0.13978  1.0000
  H   H640      1.0  0.15616  0.65161  0.12473  1.0000
  H   H641      1.0  0.14070  0.64663  0.14505  1.0000
  H   H642      1.0  0.12394  0.72130  0.12948  1.0000
  H   H643      1.0  0.15125  0.70395  0.12408  1.0000
  H   H644      1.0  0.13610  0.67510  0.09994  1.0000
  H   H645      1.0  0.10934  0.65402  0.10206  1.0000
  H   H646      1.0  0.08594  0.65479  0.12864  1.0000
  H   H647      1.0  0.10085  0.66033  0.14914  1.0000
  H   H648      1.0  0.11027  0.61383  0.12852  1.0000
  H   H649      1.0  0.13117  0.61546  0.10992  1.0000
  H   H650      1.0  0.14085  0.60125  0.13042  1.0000
  H   H651      1.0  0.15802  0.68836  0.15408  1.0000
  H   H652      1.0  0.14790  0.72510  0.15496  1.0000
  H   H653      1.0  0.12711  0.69703  0.16071  1.0000
  H   H654      1.0  0.08320  0.69683  0.10303  1.0000
  H   H655      1.0  0.10314  0.69768  0.08454  1.0000
  H   H656      1.0  0.10923  0.72089  0.10272  1.0000
  H   H657      1.0  0.06291  0.69269  0.13932  1.0000
  H   H658      1.0  0.08504  0.71610  0.13038  1.0000
  H   H659      1.0  0.08552  0.70632  0.15341  1.0000
  N   N27       1.0  0.30646  0.62146  0.12651  1.0000
  C   C378      1.0  0.32255  0.62389  0.11045  1.0000
  C   C379      1.0  0.32148  0.62850  0.14253  1.0000
  C   C380      1.0  0.28538  0.64242  0.12575  1.0000
  C   C381      1.0  0.29659  0.59103  0.12724  1.0000
  C   C382      1.0  0.31012  0.62017  0.09243  1.0000
  C   C383      1.0  0.33945  0.60450  0.14828  1.0000
  C   C384      1.0  0.29188  0.67468  0.12314  1.0000
  C   C385      1.0  0.28087  0.58398  0.14359  1.0000
  H   H660      1.0  0.33205  0.64516  0.11029  1.0000
  H   H661      1.0  0.33722  0.60714  0.11074  1.0000
  H   H662      1.0  0.30991  0.63413  0.15415  1.0000
  H   H663      1.0  0.33235  0.64847  0.14032  1.0000
  H   H664      1.0  0.27271  0.63625  0.11509  1.0000
  H   H665      1.0  0.27428  0.64134  0.13803  1.0000
  H   H666      1.0  0.28495  0.58658  0.11563  1.0000
  H   H667      1.0  0.31124  0.57436  0.12593  1.0000
  H   H668      1.0  0.32352  0.62436  0.08179  1.0000
  H   H669      1.0  0.30392  0.59754  0.09039  1.0000
  H   H670      1.0  0.29486  0.63558  0.09047  1.0000
  H   H671      1.0  0.35117  0.61315  0.15892  1.0000
  H   H672      1.0  0.32991  0.58544  0.15380  1.0000
  H   H673      1.0  0.35147  0.59703  0.13737  1.0000
  H   H674      1.0  0.30341  0.68308  0.13392  1.0000
  H   H675      1.0  0.27488  0.68784  0.12328  1.0000
  H   H676      1.0  0.30071  0.67837  0.11019  1.0000
  H   H677      1.0  0.26138  0.58721  0.14070  1.0000
  H   H678      1.0  0.28522  0.59710  0.15541  1.0000
  H   H679      1.0  0.28396  0.56094  0.14739  1.0000
  C   C386      1.0  0.09882  0.83236  0.20624  1.0000
  C   C387      1.0  0.00523  0.54056  0.25282  1.0000
  N   N28       1.0  0.24576  0.85561  0.06481  1.0000
  C   C388      1.0  0.24202  0.82955  0.07655  1.0000
  H   H680      1.0  0.07298  0.85347  0.25395  1.0000
  C   C389      1.0  0.26288  0.87621  0.07401  1.0000
  H   H681      1.0  0.36784  0.99064  0.18296  1.0000
  H   H682      1.0  0.01598  0.56498  0.21944  1.0000
  C   C390      1.0  0.44460  0.87774  0.19988  1.0000
  C   C391      1.0  0.03028  0.59356  0.23953  1.0000
  C   C392      1.0  0.22141  0.87012  0.06247  1.0000
  H   H683      1.0  0.23037  0.83540  0.08806  1.0000
  H   H684      1.0  0.23210  0.81200  0.06953  1.0000
  H   H685      1.0  0.03477  0.61112  0.23010  1.0000
  H   H686      1.0  0.21415  0.87756  0.07550  1.0000
  H   H687      1.0  0.25912  0.87656  0.08843  1.0000
  H   H688      1.0  0.28196  0.86852  0.07254  1.0000
  H   H689      1.0  0.27482  0.82974  0.09321  1.0000
  H   H690      1.0  0.06176  0.90212  0.25992  1.0000
  C   C393      1.0  0.03028  0.56400  0.22970  1.0000
  H   H691      1.0  0.00582  0.68926  0.25439  1.0000
  C   C394      1.0  0.37382  0.99757  0.15519  1.0000
  H   H692      1.0  0.41523  0.95277  0.16316  1.0000
  C   C395      1.0  0.20179  0.85127  0.05379  1.0000
  H   H693      1.0  0.45185  0.87901  0.25164  1.0000
  H   H694      1.0  0.22258  0.89027  0.05463  1.0000
  C   C396      1.0  0.48603  0.90096  0.24912  1.0000
  H   H695      1.0  0.09164  0.80337  0.23994  1.0000
  N   N29       1.0  0.43279  0.91993  0.17929  1.0000
  C   C397      1.0  0.18686  0.76139  0.03064  1.0000
  H   H696      1.0  0.19632  0.83310  0.06243  1.0000
  C   C398      1.0  0.07202  0.79936  0.24147  1.0000
  H   H697      1.0  0.09001  0.87618  0.21520  1.0000
  H   H698      1.0  0.25988  0.79582  0.09179  1.0000
  C   C399      1.0  0.45587  0.91685  0.16864  1.0000
  C   C400      1.0  0.08825  0.85365  0.22037  1.0000
  C   C401      1.0  0.48880  0.62230  0.20226  1.0000
  H   H699      1.0  0.05815  0.80485  0.21544  1.0000
  C   C402      1.0  0.41680  0.94537  0.20779  1.0000
  C   C403      1.0  0.43704  0.94199  0.19378  1.0000
  Fe  Fe59      1.0  0.47189  0.54036  0.22554  1.0000
  H   H700      1.0  0.15691  0.83887  0.02976  1.0000
  H   H701      1.0  0.45400  0.93694  0.20096  1.0000
  H   H702      1.0  0.11069  0.84468  0.19714  1.0000
  C   C404      1.0  0.06070  0.89546  0.24582  1.0000
  C   C405      1.0  0.47252  0.65770  0.26494  1.0000
  H   H703      1.0  0.27369  0.53713  0.01797  1.0000
  H   H704      1.0  0.25878  0.85519  0.01981  1.0000
  H   H705      1.0  0.43997  0.96399  0.18819  1.0000
  H   H706      1.0  0.39526  0.93274  0.17608  1.0000
  H   H707      1.0  0.28453  0.99884  0.04982  1.0000
  S   S115      1.0  0.47376  0.92848  0.23506  1.0000
  H   H708      1.0  0.00263  0.52064  0.26073  1.0000
  C   C406      1.0  0.40536  0.91070  0.15229  1.0000
  H   H709      1.0  0.45602  0.89655  0.16052  1.0000
  C   C407      1.0  0.42630  0.89069  0.18673  1.0000
  H   H710      1.0  0.27686  0.92027  0.07559  1.0000
  H   H711      1.0  0.11079  0.81585  0.21242  1.0000
  H   H712      1.0  0.02985  0.86279  0.18784  1.0000
  H   H713      1.0  0.44599  0.89110  0.21205  1.0000
  H   H714      1.0  0.48189  0.64188  0.20940  1.0000
  H   H715      1.0  0.04659  0.52046  0.20589  1.0000
  Fe  Fe60      1.0  0.31656  0.99601  0.08413  1.0000
  C   C408      1.0  0.25971  0.86677  0.03272  1.0000
  H   H716      1.0  0.46285  0.87480  0.19395  1.0000
  C   C409      1.0  0.47158  0.60774  0.25308  1.0000
  N   N30       1.0  0.02730  0.53754  0.24111  1.0000
  H   H717      1.0  0.04145  0.85572  0.25038  1.0000
  H   H718      1.0  0.46520  0.67959  0.26531  1.0000
  C   C410      1.0  0.16198  0.75624  0.03010  1.0000
  H   H719      1.0  0.01219  0.59895  0.24499  1.0000
  C   C411      1.0  0.04925  0.53458  0.25277  1.0000
  H   H720      1.0  0.06903  0.77567  0.23933  1.0000
  Fe  Fe61      1.0  0.32303  0.99519  0.12438  1.0000
  S   S116      1.0  0.33537  0.98882  0.05775  1.0000
  Fe  Fe62      1.0  0.48880  0.97086  0.22336  1.0000
  H   H721      1.0  0.44894  0.94353  0.14505  1.0000
  C   C412      1.0  0.33302  0.99924  0.02214  1.0000
  S   S117      1.0  0.34447  0.98553  0.14944  1.0000
  C   C413      1.0  0.28713  0.51988  0.01804  1.0000
  H   H722      1.0  0.35992  0.54652  0.16931  1.0000
  C   C414      1.0  0.39063  0.51761  0.17232  1.0000
  C   C415      1.0  0.31993  0.99684  0.03799  1.0000
  C   C416      1.0  0.40406  0.00622  0.17815  1.0000
  C   C417      1.0  0.29494  0.00176  0.03791  1.0000
  C   C418      1.0  0.99568  0.66963  0.25682  1.0000
  H   H723      1.0  0.27762  0.87750  0.03367  1.0000
  H   H724      1.0  0.00765  0.55833  0.26269  1.0000
  C   C419      1.0  0.02442  0.51115  0.22937  1.0000
  C   C420      1.0  0.36859  0.52667  0.16467  1.0000
  S   S118      1.0  0.46318  0.00967  0.22344  1.0000
  H   H725      1.0  0.04383  0.59438  0.25024  1.0000
  H   H726      1.0  0.40902  0.00640  0.19192  1.0000
  H   H727      1.0  0.38557  0.00655  0.12872  1.0000
  H   H728      1.0  0.00841  0.51361  0.22072  1.0000
  H   H729      1.0  0.39873  0.53049  0.18270  1.0000
  H   H730      1.0  0.28909  0.51905  0.04641  1.0000
  H   H731      1.0  0.04853  0.55096  0.26371  1.0000
  H   H732      1.0  0.48011  0.93909  0.15055  1.0000
  S   S119      1.0  0.26689  0.51586  0.11994  1.0000
  C   C421      1.0  0.49210  0.60108  0.26300  1.0000
  C   C422      1.0  0.47958  0.85625  0.26620  1.0000
  C   C423      1.0  0.99446  0.92723  0.26237  1.0000
  S   S120      1.0  0.99435  0.96583  0.26531  1.0000
  C   C424      1.0  0.28338  0.01073  0.02240  1.0000
  S   S121      1.0  0.05390  0.99469  0.34126  1.0000
  H   H733      1.0  0.44340  0.84914  0.35322  1.0000
  N   N31       1.0  0.46063  0.79762  0.38499  1.0000
  C   C425      1.0  0.29850  0.64381  0.45634  1.0000
  H   H734      1.0  0.47320  0.82239  0.40755  1.0000
  S   S122      1.0  0.14802  0.53200  0.47701  1.0000
  S   S123      1.0  0.47184  0.75739  0.29283  1.0000
  H   H735      1.0  0.01317  0.95646  0.35749  1.0000
  Fe  Fe63      1.0  0.46086  0.76074  0.32165  1.0000
  S   S124      1.0  0.42099  0.76744  0.32918  1.0000
  C   C426      1.0  0.15992  0.51689  0.49658  1.0000
  C   C427      1.0  0.27097  0.67928  0.49848  1.0000
  H   H736      1.0  0.31522  0.88002  0.45820  1.0000
  H   H737      1.0  0.18922  0.68504  0.37252  1.0000
  C   C428      1.0  0.17006  0.92077  0.50121  1.0000
  H   H738      1.0  0.31320  0.52741  0.41385  1.0000
  Fe  Fe64      1.0  0.20038  0.54268  0.42377  1.0000
  S   S125      1.0  0.23518  0.56814  0.41939  1.0000
  Fe  Fe65      1.0  0.18940  0.97811  0.42969  1.0000
  S   S126      1.0  0.19404  0.92852  0.42782  1.0000
  S   S127      1.0  0.16362  0.55965  0.43125  1.0000
  S   S128      1.0  0.15121  0.99218  0.43685  1.0000
  Fe  Fe66      1.0  0.27428  0.73424  0.42385  1.0000
  S   S129      1.0  0.31033  0.71532  0.43088  1.0000
  S   S130      1.0  0.24017  0.70659  0.42217  1.0000
  Fe  Fe67      1.0  0.29233  0.79702  0.42676  1.0000
  S   S131      1.0  0.32985  0.78172  0.43414  1.0000
  S   S132      1.0  0.28852  0.84677  0.42775  1.0000
  Fe  Fe68      1.0  0.32656  0.74839  0.41247  1.0000
  S   S133      1.0  0.36081  0.73187  0.39799  1.0000
  Fe  Fe69      1.0  0.31112  0.75006  0.45178  1.0000
  S   S134      1.0  0.32548  0.73795  0.47871  1.0000
  S   S135      1.0  0.28993  0.76532  0.40373  1.0000
  S   S136      1.0  0.27410  0.76736  0.44605  1.0000
  C   C429      1.0  0.22063  0.90633  0.42796  1.0000
  C   C430      1.0  0.21820  0.87583  0.42718  1.0000
  C   C431      1.0  0.23871  0.85726  0.42716  1.0000
  C   C432      1.0  0.26195  0.86902  0.42786  1.0000
  C   C433      1.0  0.26436  0.89950  0.42900  1.0000
  C   C434      1.0  0.24385  0.91807  0.42906  1.0000
  H   H739      1.0  0.20034  0.86649  0.42630  1.0000
  H   H740      1.0  0.23654  0.83390  0.42629  1.0000
  H   H741      1.0  0.28224  0.90885  0.42957  1.0000
  H   H742      1.0  0.24604  0.94145  0.42970  1.0000
  C   C435      1.0  0.24021  0.66802  0.42326  1.0000
  C   C436      1.0  0.21937  0.65377  0.42932  1.0000
  C   C437      1.0  0.21794  0.62311  0.42893  1.0000
  C   C438      1.0  0.23721  0.60644  0.42215  1.0000
  C   C439      1.0  0.25839  0.62065  0.41673  1.0000
  C   C440      1.0  0.25995  0.65127  0.41734  1.0000
  H   H743      1.0  0.20407  0.66654  0.43405  1.0000
  H   H744      1.0  0.20170  0.61242  0.43344  1.0000
  H   H745      1.0  0.27346  0.60796  0.41154  1.0000
  H   H746      1.0  0.27607  0.66196  0.41258  1.0000
  H   H747      1.0  0.40494  0.80638  0.40697  1.0000
  H   H748      1.0  0.28440  0.69719  0.49953  1.0000
  H   H749      1.0  0.27798  0.71049  0.46919  1.0000
  H   H750      1.0  0.47436  0.78447  0.41059  1.0000
  H   H751      1.0  0.29773  0.90629  0.47079  1.0000
  H   H752      1.0  0.12283  0.94404  0.45976  1.0000
  C   C441      1.0  0.31151  0.74955  0.49855  1.0000
  C   C442      1.0  0.28895  0.76354  0.49868  1.0000
  H   H753      1.0  0.12053  0.94016  0.48341  1.0000
  H   H754      1.0  0.27939  0.76682  0.48646  1.0000
  C   C443      1.0  0.40498  0.75801  0.34871  1.0000
  C   C444      1.0  0.38329  0.77282  0.35298  1.0000
  C   C445      1.0  0.36966  0.76548  0.36810  1.0000
  C   C446      1.0  0.37740  0.74287  0.37900  1.0000
  C   C447      1.0  0.39907  0.72799  0.37467  1.0000
  C   C448      1.0  0.41281  0.73552  0.35967  1.0000
  H   H755      1.0  0.37693  0.79009  0.34452  1.0000
  H   H756      1.0  0.35300  0.77706  0.37117  1.0000
  H   H757      1.0  0.40517  0.71036  0.38296  1.0000
  H   H758      1.0  0.42921  0.72363  0.35641  1.0000
  H   H759      1.0  0.27758  0.86275  0.49844  1.0000
  H   H760      1.0  0.42064  0.68812  0.27118  1.0000
  H   H761      1.0  0.46939  0.66384  0.31706  1.0000
  H   H762      1.0  0.11777  0.98757  0.38598  1.0000
  H   H763      1.0  0.14261  0.95431  0.50753  1.0000
  H   H764      1.0  0.39077  0.71962  0.31403  1.0000
  H   H765      1.0  0.20706  0.94776  0.46968  1.0000
  C   C449      1.0  0.38470  0.69894  0.31996  1.0000
  C   C450      1.0  0.47730  0.80155  0.40049  1.0000
  H   H766      1.0  0.08952  0.96822  0.36342  1.0000
  H   H767      1.0  0.46424  0.65416  0.33953  1.0000
  H   H768      1.0  0.41430  0.61140  0.31705  1.0000
  C   C451      1.0  0.00295  0.65039  0.27027  1.0000
  H   H769      1.0  0.35905  0.81678  0.48366  1.0000
  H   H770      1.0  0.05467  0.55140  0.34830  1.0000
  H   H771      1.0  0.26174  0.78522  0.51472  1.0000
  H   H772      1.0  0.43328  0.81813  0.41558  1.0000
  H   H773      1.0  0.27504  0.82659  0.46407  1.0000
  H   H774      1.0  0.35771  0.84959  0.47033  1.0000
  H   H775      1.0  0.34012  0.88067  0.49031  1.0000
  C   C452      1.0  0.99928  0.90809  0.27619  1.0000
  H   H776      1.0  0.31639  0.80519  0.47594  1.0000
  H   H777      1.0  0.15996  0.86653  0.45523  1.0000
  H   H778      1.0  0.45636  0.76999  0.36199  1.0000
  H   H779      1.0  0.38440  0.67264  0.29610  1.0000
  H   H780      1.0  0.28439  0.52750  0.42354  1.0000
  C   C453      1.0  0.46050  0.82550  0.37458  1.0000
  H   H781      1.0  0.45745  0.62854  0.32243  1.0000
  H   H782      1.0  0.26744  0.63613  0.51120  1.0000
  S   S137      1.0  0.00111  0.60055  0.29025  1.0000
  H   H783      1.0  0.24816  0.64052  0.46294  1.0000
  C   C454      1.0  0.27763  0.65667  0.51262  1.0000
  C   C455      1.0  0.32047  0.87836  0.48750  1.0000
  C   C456      1.0  0.28527  0.84516  0.48984  1.0000
  C   C457      1.0  0.32351  0.74490  0.51456  1.0000
  H   H784      1.0  0.44473  0.81102  0.34936  1.0000
  C   C458      1.0  0.32241  0.82812  0.47422  1.0000
  H   H785      1.0  0.39075  0.69794  0.33385  1.0000
  H   H786      1.0  0.17682  0.90079  0.50789  1.0000
  H   H787      1.0  0.13102  0.89510  0.48536  1.0000
  N   N32       1.0  0.27001  0.66796  0.47974  1.0000
  H   H788      1.0  0.41729  0.64493  0.28255  1.0000
  C   C459      1.0  0.27135  0.84621  0.47233  1.0000
  H   H789      1.0  0.23782  0.72596  0.46063  1.0000
  H   H790      1.0  0.18409  0.93751  0.50327  1.0000
  C   C460      1.0  0.42326  0.81409  0.40319  1.0000
  H   H791      1.0  0.22456  0.69217  0.46583  1.0000
  C   C461      1.0  0.43569  0.79040  0.39170  1.0000
  H   H792      1.0  0.26091  0.62235  0.48128  1.0000
  H   H793      1.0  0.27496  0.86602  0.46468  1.0000
  H   H794      1.0  0.13240  0.91713  0.51124  1.0000
  C   C462      1.0  0.32255  0.83514  0.50601  1.0000
  H   H795      1.0  0.22769  0.62976  0.49844  1.0000
  H   H796      1.0  0.36461  0.69968  0.32025  1.0000
  H   H797      1.0  0.23579  0.71635  0.48318  1.0000
  N   N33       1.0  0.16646  0.91489  0.48181  1.0000
  H   H798      1.0  0.47948  0.74388  0.39514  1.0000
  H   H799      1.0  0.35536  0.81443  0.46050  1.0000
  H   H800      1.0  0.39710  0.60852  0.29705  1.0000
  N   N34       1.0  0.31254  0.84710  0.48898  1.0000
  H   H801      1.0  0.22726  0.91753  0.46780  1.0000
  H   H802      1.0  0.34231  0.83925  0.50708  1.0000
  H   H803      1.0  0.47841  0.82892  0.36817  1.0000
  H   H804      1.0  0.17533  0.63756  0.41104  1.0000
  S   S138      1.0  0.99427  0.98047  0.31850  1.0000
  H   H805      1.0  0.21320  0.63840  0.47840  1.0000
  C   C463      1.0  0.14466  0.88011  0.46029  1.0000
  H   H806      1.0  0.15540  0.87062  0.48691  1.0000
  S   S139      1.0  0.20672  0.00655  0.45028  1.0000
  C   C464      1.0  0.26426  0.69299  0.46769  1.0000
  H   H807      1.0  0.01874  0.65546  0.27805  1.0000
  H   H808      1.0  0.30110  0.63972  0.48412  1.0000
  H   H809      1.0  0.12895  0.97371  0.47397  1.0000
  C   C465      1.0  0.22798  0.64539  0.48734  1.0000
  H   H810      1.0  0.16380  0.94043  0.45817  1.0000
  C   C466      1.0  0.44161  0.82768  0.35974  1.0000
  C   C467      1.0  0.13119  0.94971  0.47261  1.0000
  C   C468      1.0  0.41538  0.61268  0.30251  1.0000
  N   N35       1.0  0.17761  0.62759  0.38317  1.0000
  C   C469      1.0  0.20198  0.64230  0.38233  1.0000
  C   C470      1.0  0.18237  0.59551  0.38585  1.0000
  C   C471      1.0  0.16414  0.63985  0.39898  1.0000
  C   C472      1.0  0.16416  0.63391  0.36632  1.0000
  C   C473      1.0  0.20167  0.67592  0.38249  1.0000
  C   C474      1.0  0.19882  0.58070  0.37185  1.0000
  C   C475      1.0  0.13929  0.62669  0.40321  1.0000
  C   C476      1.0  0.14430  0.61211  0.36080  1.0000
  H   H811      1.0  0.21363  0.63528  0.39343  1.0000
  H   H812      1.0  0.21211  0.63566  0.37019  1.0000
  H   H813      1.0  0.16550  0.58276  0.38638  1.0000
  H   H814      1.0  0.19091  0.59181  0.39893  1.0000
  H   H815      1.0  0.42779  0.59474  0.29823  1.0000
  H   H816      1.0  0.16060  0.66357  0.39748  1.0000
  H   H817      1.0  0.15572  0.65602  0.36694  1.0000
  H   H818      1.0  0.17709  0.63433  0.35499  1.0000
  C   C477      1.0  0.21167  0.92641  0.47554  1.0000
  C   C478      1.0  0.23910  0.70731  0.46980  1.0000
  H   H819      1.0  0.00274  0.86313  0.28404  1.0000
  H   H820      1.0  0.19731  0.55669  0.37297  1.0000
  H   H821      1.0  0.19368  0.58657  0.35824  1.0000
  H   H822      1.0  0.21811  0.58610  0.37413  1.0000
  H   H823      1.0  0.13245  0.63635  0.41578  1.0000
  H   H824      1.0  0.14015  0.60289  0.40530  1.0000
  C   C479      1.0  0.46913  0.77310  0.37309  1.0000
  H   H825      1.0  0.12977  0.62408  0.35377  1.0000
  H   H826      1.0  0.13534  0.60061  0.37170  1.0000
  H   H827      1.0  0.15152  0.59591  0.35110  1.0000
  H   H828      1.0  0.16840  0.96143  0.47753  1.0000
  C   C480      1.0  0.27899  0.77390  0.51469  1.0000
  H   H829      1.0  0.29735  0.65189  0.51253  1.0000
  H   H830      1.0  0.43062  0.72373  0.27669  1.0000
  H   H831      1.0  0.08948  0.57196  0.36476  1.0000
  H   H832      1.0  0.42069  0.83479  0.39601  1.0000
  S   S140      1.0  0.48908  0.79413  0.32841  1.0000
  S   S141      1.0  0.01691  0.51977  0.29943  1.0000
  H   H833      1.0  0.29639  0.66013  0.44582  1.0000
  H   H834      1.0  0.40130  0.71303  0.28364  1.0000
  Fe  Fe70      1.0  0.99593  0.99452  0.29033  1.0000
  H   H835      1.0  0.14174  0.89856  0.45121  1.0000
  H   H836      1.0  0.43616  0.77027  0.39978  1.0000
  C   C481      1.0  0.08423  0.54965  0.36695  1.0000
  H   H837      1.0  0.45772  0.84480  0.38338  1.0000
  N   N36       1.0  0.42021  0.66820  0.30743  1.0000
  C   C482      1.0  0.43157  0.69452  0.29907  1.0000
  C   C483      1.0  0.43099  0.66453  0.32553  1.0000
  C   C484      1.0  0.39320  0.67196  0.30926  1.0000
  C   C485      1.0  0.42527  0.64199  0.29583  1.0000
  H   H838      1.0  0.34089  0.73384  0.51455  1.0000
  C   C486      1.0  0.45699  0.65204  0.32595  1.0000
  H   H839      1.0  0.26528  0.68604  0.45368  1.0000
  C   C487      1.0  0.99872  0.87768  0.27327  1.0000
  H   H840      1.0  0.43136  0.71350  0.30831  1.0000
  H   H841      1.0  0.45109  0.69039  0.29624  1.0000
  H   H842      1.0  0.41954  0.65052  0.33402  1.0000
  H   H843      1.0  0.43143  0.68582  0.33269  1.0000
  C   C488      1.0  0.47168  0.74290  0.38177  1.0000
  H   H844      1.0  0.38513  0.65278  0.31589  1.0000
  Fe  Fe71      1.0  0.16225  0.52124  0.44954  1.0000
  H   H845      1.0  0.01145  0.95646  0.38104  1.0000
  S   S142      1.0  0.48403  0.72303  0.32976  1.0000
  H   H846      1.0  0.22286  0.66723  0.49234  1.0000
  H   H847      1.0  0.12573  0.63222  0.39304  1.0000
  C   C489      1.0  0.15859  0.94213  0.47234  1.0000
  H   H848      1.0  0.21813  0.92943  0.48923  1.0000
  H   H849      1.0  0.25161  0.84621  0.47516  1.0000
  C   C490      1.0  0.29517  0.65715  0.47500  1.0000
  S   S143      1.0  0.12200  0.54864  0.39057  1.0000
  H   H850      1.0  0.22017  0.68386  0.37943  1.0000
  H   H851      1.0  0.28619  0.62529  0.45384  1.0000
  H   H852      1.0  0.31517  0.83430  0.46119  1.0000
  H   H853      1.0  0.48644  0.77833  0.36632  1.0000
  C   C491      1.0  0.06444  0.53804  0.35758  1.0000
  H   H854      1.0  0.19709  0.68478  0.39579  1.0000
  H   H855      1.0  0.18896  0.89931  0.46008  1.0000
  C   C492      1.0  0.09722  0.53268  0.37913  1.0000
  H   H856      1.0  0.42336  0.78515  0.38063  1.0000
  H   H857      1.0  0.45403  0.73165  0.38250  1.0000
  C   C493      1.0  0.14899  0.89008  0.47953  1.0000
  C   C494      1.0  0.25239  0.64332  0.47721  1.0000
  H   H858      1.0  0.25373  0.68958  0.50276  1.0000
  H   H859      1.0  0.19656  0.88409  0.48070  1.0000
  H   H860      1.0  0.19860  0.99947  0.49053  1.0000
  C   C495      1.0  0.35024  0.82754  0.47232  1.0000
  C   C496      1.0  0.42010  0.70500  0.28169  1.0000
  S   S144      1.0  0.18560  0.51511  0.40178  1.0000
  H   H861      1.0  0.32978  0.91022  0.46747  1.0000
  C   C497      1.0  0.19054  0.90467  0.47433  1.0000
  H   H862      1.0  0.12828  0.86627  0.45977  1.0000
  C   C498      1.0  0.08957  0.99132  0.36636  1.0000
  H   H863      1.0  0.44495  0.63930  0.29300  1.0000
  C   C499      1.0  0.18832  0.00103  0.50268  1.0000
  Fe  Fe72      1.0  0.14840  0.52913  0.41066  1.0000
  H   H864      1.0  0.30862  0.67501  0.47645  1.0000
  H   H865      1.0  0.00373  0.91672  0.28907  1.0000
  H   H866      1.0  0.31728  0.63520  0.45503  1.0000
  H   H867      1.0  0.27982  0.82434  0.49598  1.0000
  C   C500      1.0  0.31523  0.89422  0.47003  1.0000
  C   C501      1.0  0.10564  0.00223  0.37918  1.0000
  H   H868      1.0  0.32072  0.81101  0.50640  1.0000
  H   H869      1.0  0.31174  0.89193  0.49800  1.0000
  H   H870      1.0  0.42272  0.82635  0.36463  1.0000
  C   C502      1.0  0.14798  0.93211  0.51176  1.0000
  H   H871      1.0  0.31037  0.51775  0.43673  1.0000
  H   H872      1.0  0.48460  0.72931  0.37392  1.0000
  H   H873      1.0  0.03957  0.98577  0.39687  1.0000
  H   H874      1.0  0.46755  0.83946  0.27081  1.0000
  H   H875      1.0  0.00041  0.98462  0.40660  1.0000
  C   C503      1.0  0.30187  0.51562  0.42356  1.0000
  C   C504      1.0  0.00187  0.96339  0.36899  1.0000
  C   C505      1.0  0.49270  0.65079  0.27520  1.0000
  H   H876      1.0  0.01664  0.51531  0.38713  1.0000
  H   H877      1.0  0.13970  0.54645  0.51341  1.0000
  H   H878      1.0  0.01532  0.00627  0.36437  1.0000
  C   C506      1.0  0.03143  0.00795  0.39769  1.0000
  C   C507      1.0  0.15236  0.52836  0.51299  1.0000
  C   C508      1.0  0.99791  0.99666  0.36831  1.0000
  C   C509      1.0  0.00369  0.00642  0.40074  1.0000
  C   C510      1.0  0.07371  0.00998  0.35725  1.0000
  H   H879      1.0  0.37171  0.79917  0.72932  1.0000
  H   H880      1.0  0.06412  0.98106  0.63374  1.0000
  H   H881      1.0  0.36273  0.64154  0.60576  1.0000
  H   H882      1.0  0.40432  0.86263  0.67544  1.0000
  C   C511      1.0  0.16093  0.51646  0.52886  1.0000
  H   H883      1.0  0.48588  0.97709  0.75419  1.0000
  Fe  Fe73      1.0  0.26950  0.78615  0.61384  1.0000
  S   S145      1.0  0.29936  0.80607  0.59806  1.0000
  S   S146      1.0  0.23831  0.81301  0.62527  1.0000
  Fe  Fe74      1.0  0.28593  0.72356  0.60477  1.0000
  S   S147      1.0  0.31659  0.73978  0.58780  1.0000
  S   S148      1.0  0.28500  0.67414  0.60777  1.0000
  Fe  Fe75      1.0  0.32329  0.77145  0.61016  1.0000
  S   S149      1.0  0.36250  0.78000  0.61838  1.0000
  Fe  Fe76      1.0  0.28996  0.77255  0.57744  1.0000
  S   S150      1.0  0.28002  0.78751  0.54984  1.0000
  S   S151      1.0  0.29391  0.75382  0.62759  1.0000
  S   S152      1.0  0.25890  0.75398  0.59274  1.0000
  H   H884      1.0  0.39001  0.81366  0.68928  1.0000
  H   H885      1.0  0.42300  0.55088  0.75481  1.0000
  H   H886      1.0  0.24195  0.88228  0.59487  1.0000
  H   H887      1.0  0.00886  0.93194  0.75741  1.0000
  H   H888      1.0  0.04045  0.93995  0.68234  1.0000
  H   H889      1.0  0.32209  0.71076  0.64791  1.0000
  Fe  Fe77      1.0  0.20669  0.97760  0.61675  1.0000
  S   S153      1.0  0.23813  0.95178  0.62797  1.0000
  Fe  Fe78      1.0  0.19036  0.54220  0.60336  1.0000
  S   S154      1.0  0.19268  0.59137  0.60778  1.0000
  S   S155      1.0  0.17672  0.95593  0.60202  1.0000
  H   H890      1.0  0.43346  0.57917  0.73993  1.0000
  H   H891      1.0  0.33729  0.64674  0.65239  1.0000
  Fe  Fe79      1.0  0.45611  0.75517  0.69902  1.0000
  S   S156      1.0  0.41805  0.74487  0.68894  1.0000
  H   H892      1.0  0.23219  0.81397  0.56134  1.0000
  S   S157      1.0  0.45915  0.75167  0.72858  1.0000
  H   H893      1.0  0.38600  0.70565  0.64480  1.0000
  H   H894      1.0  0.38472  0.68003  0.66277  1.0000
  C   C512      1.0  0.10132  0.00520  0.67427  1.0000
  H   H895      1.0  0.42089  0.80611  0.69344  1.0000
  H   H896      1.0  0.39007  0.89321  0.69845  1.0000
  H   H897      1.0  0.31246  0.87111  0.52443  1.0000
  H   H898      1.0  0.37739  0.63972  0.64475  1.0000
  H   H899      1.0  0.36785  0.68550  0.59390  1.0000
  C   C513      1.0  0.20195  0.89722  0.57687  1.0000
  C   C514      1.0  0.38984  0.68304  0.64873  1.0000
  C   C515      1.0  0.01579  0.90502  0.68812  1.0000
  C   C516      1.0  0.37735  0.77160  0.63849  1.0000
  C   C517      1.0  0.36485  0.76129  0.65324  1.0000
  C   C518      1.0  0.37757  0.75365  0.66864  1.0000
  C   C519      1.0  0.40288  0.75650  0.66957  1.0000
  C   C520      1.0  0.41531  0.76758  0.65501  1.0000
  C   C521      1.0  0.40260  0.77500  0.63958  1.0000
  H   H900      1.0  0.34540  0.75902  0.65273  1.0000
  H   H901      1.0  0.36775  0.74527  0.67985  1.0000
  H   H902      1.0  0.43476  0.76991  0.65551  1.0000
  H   H903      1.0  0.41244  0.78313  0.62829  1.0000
  C   C522      1.0  0.29145  0.77029  0.53061  1.0000
  C   C523      1.0  0.31353  0.75524  0.53056  1.0000
  H   H904      1.0  0.44325  0.84953  0.71341  1.0000
  H   H905      1.0  0.32327  0.75237  0.54277  1.0000
  C   C524      1.0  0.04416  0.93613  0.71763  1.0000
  C   C525      1.0  0.25905  0.65159  0.60707  1.0000
  C   C526      1.0  0.26223  0.62114  0.60648  1.0000
  C   C527      1.0  0.24215  0.60236  0.60634  1.0000
  C   C528      1.0  0.21864  0.61389  0.60703  1.0000
  C   C529      1.0  0.21547  0.64434  0.60764  1.0000
  C   C530      1.0  0.23554  0.66312  0.60754  1.0000
  H   H906      1.0  0.28032  0.61200  0.60612  1.0000
  H   H907      1.0  0.24485  0.57900  0.60591  1.0000
  H   H908      1.0  0.19738  0.65348  0.60819  1.0000
  H   H909      1.0  0.23283  0.68648  0.60806  1.0000
  C   C531      1.0  0.23883  0.85153  0.62654  1.0000
  C   C532      1.0  0.21678  0.86701  0.62731  1.0000
  C   C533      1.0  0.21634  0.89768  0.62755  1.0000
  C   C534      1.0  0.23801  0.91320  0.62761  1.0000
  C   C535      1.0  0.26010  0.89774  0.62743  1.0000
  C   C536      1.0  0.26053  0.86703  0.62663  1.0000
  H   H910      1.0  0.19993  0.85519  0.62751  1.0000
  H   H911      1.0  0.19925  0.90930  0.62804  1.0000
  H   H912      1.0  0.27694  0.90958  0.62763  1.0000
  H   H913      1.0  0.27762  0.85536  0.62624  1.0000
  C   C537      1.0  0.37119  0.70005  0.60535  1.0000
  H   H914      1.0  0.25948  0.86884  0.57739  1.0000
  C   C538      1.0  0.24746  0.86352  0.54358  1.0000
  H   H915      1.0  0.04325  0.99214  0.66219  1.0000
  S   S158      1.0  0.47403  0.79893  0.69851  1.0000
  H   H916      1.0  0.06229  0.87028  0.69920  1.0000
  H   H917      1.0  0.33154  0.64994  0.60783  1.0000
  C   C539      1.0  0.23057  0.82012  0.57545  1.0000
  H   H918      1.0  0.24366  0.85152  0.53113  1.0000
  H   H919      1.0  0.48058  0.59424  0.73053  1.0000
  C   C540      1.0  0.46259  0.55736  0.75488  1.0000
  H   H920      1.0  0.34745  0.70021  0.66144  1.0000
  H   H921      1.0  0.47190  0.59011  0.70852  1.0000
  H   H922      1.0  0.36959  0.72269  0.60042  1.0000
  C   C541      1.0  0.37805  0.65988  0.63676  1.0000
  H   H923      1.0  0.39132  0.65428  0.62612  1.0000
  H   H924      1.0  0.43475  0.84805  0.67778  1.0000
  H   H925      1.0  0.31596  0.66167  0.63745  1.0000
  H   H926      1.0  0.22292  0.80089  0.58225  1.0000
  C   C542      1.0  0.09988  0.99043  0.64336  1.0000
  H   H927      1.0  0.45065  0.55044  0.71824  1.0000
  H   H928      1.0  0.46267  0.68070  0.75440  1.0000
  H   H929      1.0  0.43262  0.58509  0.76320  1.0000
  C   C543      1.0  0.05817  0.94025  0.73500  1.0000
  H   H930      1.0  0.40985  0.68104  0.64765  1.0000
  S   S159      1.0  0.11374  0.98355  0.62246  1.0000
  C   C544      1.0  0.17601  0.89129  0.57038  1.0000
  H   H931      1.0  0.32081  0.83758  0.53464  1.0000
  H   H932      1.0  0.09274  0.92728  0.71186  1.0000
  C   C545      1.0  0.41523  0.84259  0.67702  1.0000
  H   H933      1.0  0.43726  0.51476  0.73808  1.0000
  H   H934      1.0  0.04313  0.87443  0.73630  1.0000
  N   N37       1.0  0.12450  0.60455  0.62974  1.0000
  C   C546      1.0  0.13058  0.62693  0.61592  1.0000
  C   C547      1.0  0.12430  0.57527  0.62056  1.0000
  C   C548      1.0  0.14414  0.60527  0.64352  1.0000
  C   C549      1.0  0.10023  0.61269  0.63767  1.0000
  C   C550      1.0  0.13605  0.65794  0.62281  1.0000
  C   C551      1.0  0.10507  0.57149  0.60609  1.0000
  C   C552      1.0  0.14742  0.57797  0.65498  1.0000
  C   C553      1.0  0.08829  0.59063  0.65018  1.0000
  H   H935      1.0  0.14664  0.61982  0.60796  1.0000
  H   H936      1.0  0.11560  0.62937  0.60630  1.0000
  H   H937      1.0  0.12163  0.55715  0.62986  1.0000
  H   H938      1.0  0.14235  0.57067  0.61450  1.0000
  H   H939      1.0  0.16217  0.60866  0.63721  1.0000
  H   H940      1.0  0.14140  0.62410  0.65270  1.0000
  H   H941      1.0  0.10160  0.63323  0.64548  1.0000
  H   H942      1.0  0.08679  0.61827  0.62732  1.0000
  H   H943      1.0  0.13931  0.67233  0.61135  1.0000
  H   H944      1.0  0.12072  0.66753  0.63041  1.0000
  H   H945      1.0  0.15279  0.65850  0.63081  1.0000
  H   H946      1.0  0.10866  0.58552  0.59456  1.0000
  H   H947      1.0  0.10580  0.54866  0.60112  1.0000
  H   H948      1.0  0.08647  0.57527  0.61122  1.0000
  H   H949      1.0  0.13049  0.57083  0.66132  1.0000
  H   H950      1.0  0.16045  0.58289  0.66567  1.0000
  H   H951      1.0  0.15545  0.55973  0.64715  1.0000
  H   H952      1.0  0.09417  0.59406  0.66401  1.0000
  H   H953      1.0  0.09125  0.56767  0.64630  1.0000
  H   H954      1.0  0.06831  0.59351  0.64974  1.0000
  C   C554      1.0  0.11321  0.99905  0.65812  1.0000
  H   H955      1.0  0.36649  0.87155  0.68853  1.0000
  H   H956      1.0  0.34056  0.59776  0.61114  1.0000
  C   C555      1.0  0.40738  0.82418  0.69295  1.0000
  H   H957      1.0  0.33410  0.69934  0.61451  1.0000
  H   H958      1.0  0.25779  0.84828  0.55189  1.0000
  C   C556      1.0  0.42364  0.88047  0.72989  1.0000
  S   S160      1.0  0.99502  0.97867  0.69256  1.0000
  H   H959      1.0  0.04624  0.95138  0.74483  1.0000
  S   S161      1.0  0.15783  0.52844  0.58758  1.0000
  H   H960      1.0  0.47829  0.53391  0.71276  1.0000
  H   H961      1.0  0.01006  0.59668  0.75433  1.0000
  C   C557      1.0  0.38054  0.85297  0.71306  1.0000
  H   H962      1.0  0.36105  0.89342  0.70807  1.0000
  H   H963      1.0  0.35460  0.71428  0.62946  1.0000
  S   S162      1.0  0.01117  0.00188  0.73202  1.0000
  C   C558      1.0  0.34314  0.61271  0.62256  1.0000
  H   H964      1.0  0.07928  0.95249  0.69727  1.0000
  C   C559      1.0  0.42539  0.86099  0.71320  1.0000
  H   H965      1.0  0.16458  0.91088  0.57310  1.0000
  H   H966      1.0  0.39582  0.77428  0.73383  1.0000
  H   H967      1.0  0.20106  0.89934  0.59152  1.0000
  C   C560      1.0  0.33054  0.69267  0.65533  1.0000
  H   H968      1.0  0.38998  0.69732  0.61012  1.0000
  H   H969      1.0  0.15312  0.93425  0.52586  1.0000
  H   H970      1.0  0.04137  0.95820  0.71200  1.0000
  C   C561      1.0  0.22327  0.87490  0.55158  1.0000
  N   N38       1.0  0.35338  0.66673  0.62932  1.0000
  C   C562      1.0  0.35240  0.69577  0.62020  1.0000
  C   C563      1.0  0.33404  0.66549  0.64348  1.0000
  H   H971      1.0  0.40752  0.82590  0.73819  1.0000
  C   C564      1.0  0.34778  0.64370  0.61559  1.0000
  H   H972      1.0  0.20845  0.86184  0.54567  1.0000
  H   H973      1.0  0.47788  0.98961  0.73298  1.0000
  H   H974      1.0  0.05070  0.90422  0.67667  1.0000
  C   C565      1.0  0.19746  0.98869  0.51822  1.0000
  H   H975      1.0  0.07588  0.88383  0.71877  1.0000
  H   H976      1.0  0.19592  0.83913  0.57199  1.0000
  H   H977      1.0  0.01596  0.88105  0.68982  1.0000
  H   H978      1.0  0.06407  0.91928  0.74074  1.0000
  C   C566      1.0  0.25311  0.91502  0.57667  1.0000
  H   H979      1.0  0.27205  0.91714  0.58131  1.0000
  H   H980      1.0  0.03708  0.84918  0.71925  1.0000
  C   C567      1.0  0.06272  0.99399  0.66119  1.0000
  H   H981      1.0  0.08775  0.92175  0.67180  1.0000
  H   H982      1.0  0.07401  0.95462  0.73310  1.0000
  H   H983      1.0  0.32624  0.61176  0.63052  1.0000
  H   H984      1.0  0.25920  0.88199  0.53982  1.0000
  H   H985      1.0  0.24857  0.82370  0.58138  1.0000
  H   H986      1.0  0.42676  0.87633  0.70207  1.0000
  H   H987      1.0  0.11404  0.92233  0.68513  1.0000
  H   H988      1.0  0.22088  0.89747  0.54650  1.0000
  C   C568      1.0  0.46984  0.54905  0.72258  1.0000
  C   C569      1.0  0.24424  0.88388  0.58042  1.0000
  C   C570      1.0  0.38972  0.79147  0.72460  1.0000
  Fe  Fe80      1.0  0.15286  0.99135  0.61381  1.0000
  C   C571      1.0  0.09502  0.91469  0.68472  1.0000
  H   H989      1.0  0.41297  0.82944  0.66478  1.0000
  N   N39       1.0  0.22110  0.87518  0.57143  1.0000
  H   H990      1.0  0.42352  0.86790  0.74225  1.0000
  H   H991      1.0  0.00444  0.91558  0.69843  1.0000
  H   H992      1.0  0.13266  0.00096  0.65709  1.0000
  H   H993      1.0  0.20650  0.91927  0.57197  1.0000
  H   H994      1.0  0.38788  0.78091  0.71151  1.0000
  H   H995      1.0  0.24228  0.93145  0.58424  1.0000
  C   C572      1.0  0.40838  0.81633  0.72471  1.0000
  H   H996      1.0  0.42667  0.80599  0.72359  1.0000
  H   H997      1.0  0.09543  0.89060  0.68544  1.0000
  C   C573      1.0  0.21310  0.84599  0.57825  1.0000
  H   H998      1.0  0.17531  0.88718  0.55599  1.0000
  S   S163      1.0  0.46510  0.82727  0.74857  1.0000
  H   H999      1.0  0.02049  0.88234  0.71992  1.0000
  H   H1000     1.0  0.31778  0.68742  0.66620  1.0000
  H   H1001     1.0  0.20927  0.84741  0.59268  1.0000
  N   N40       1.0  0.40524  0.83931  0.71073  1.0000
  C   C574      1.0  0.09796  0.51693  0.67048  1.0000
  H   H1002     1.0  0.37711  0.85947  0.72706  1.0000
  N   N41       1.0  0.05608  0.91631  0.70412  1.0000
  H   H1003     1.0  0.35857  0.60412  0.63024  1.0000
  H   H1004     1.0  0.02574  0.92898  0.72124  1.0000
  C   C575      1.0  0.47502  0.66432  0.75932  1.0000
  H   H1005     1.0  0.25271  0.92031  0.56246  1.0000
  H   H1006     1.0  0.00672  0.90932  0.67536  1.0000
  C   C576      1.0  0.05929  0.88546  0.71055  1.0000
  H   H1007     1.0  0.15165  0.00664  0.54654  1.0000
  C   C577      1.0  0.18424  0.99047  0.53406  1.0000
  C   C578      1.0  0.03864  0.87287  0.72206  1.0000
  H   H1008     1.0  0.43989  0.89454  0.73047  1.0000
  C   C579      1.0  0.07600  0.00296  0.67587  1.0000
  C   C580      1.0  0.37444  0.87907  0.70119  1.0000
  C   C581      1.0  0.08074  0.92883  0.70017  1.0000
  H   H1009     1.0  0.36620  0.83666  0.71037  1.0000
  H   H1010     1.0  0.16759  0.87308  0.57766  1.0000
  H   H1011     1.0  0.40760  0.89513  0.72960  1.0000
  S   S164      1.0  0.18220  0.51257  0.62621  1.0000
  C   C582      1.0  0.04165  0.91716  0.68730  1.0000
  H   H1012     1.0  0.29194  0.84037  0.52471  1.0000
  C   C583      1.0  0.99872  0.61504  0.75803  1.0000
  S   S165      1.0  0.19526  0.97222  0.55275  1.0000
  C   C584      1.0  0.47576  0.86056  0.75809  1.0000
  C   C585      1.0  0.48172  0.57885  0.71927  1.0000
  S   S166      1.0  0.21671  0.00767  0.59469  1.0000
  Fe  Fe81      1.0  0.47924  0.79424  0.72778  1.0000
  S   S167      1.0  0.00774  0.52013  0.72895  1.0000
  Fe  Fe82      1.0  0.18551  0.98756  0.58050  1.0000
  C   C586      1.0  0.07462  0.98771  0.64506  1.0000
  S   S168      1.0  0.49074  0.72973  0.69404  1.0000
  Fe  Fe83      1.0  0.01821  0.51726  0.69995  1.0000
  H   H1013     1.0  0.15486  0.52536  0.54139  1.0000
  C   C587      1.0  0.43635  0.56843  0.75278  1.0000
  H   H1014     1.0  0.27332  0.66593  0.52588  1.0000
  H   H1015     1.0  0.47386  0.57700  0.75586  1.0000
  C   C588      1.0  0.00150  0.91023  0.75791  1.0000
  C   C589      1.0  0.31105  0.84712  0.52325  1.0000
  N   N42       1.0  0.47183  0.53660  0.74085  1.0000
  S   S169      1.0  0.05859  0.51930  0.69289  1.0000
  Fe  Fe84      1.0  0.02166  0.01047  0.70361  1.0000
  H   H1016     1.0  0.10809  0.52420  0.68184  1.0000
  C   C590      1.0  0.07280  0.51298  0.67208  1.0000
  H   H1017     1.0  0.12950  0.51415  0.65346  1.0000
  C   C591      1.0  0.16203  0.00526  0.53441  1.0000
  H   H1018     1.0  0.21474  0.97743  0.51790  1.0000
  C   C592      1.0  0.49334  0.98792  0.74226  1.0000
  C   C593      1.0  0.11014  0.51128  0.65439  1.0000
  S   S170      1.0  0.02575  0.76088  0.80867  1.0000
  C   C594      1.0  0.35783  0.59376  0.87932  1.0000
  Fe  Fe85      1.0  0.01248  0.76506  0.83666  1.0000
  S   S171      1.0  0.03395  0.77264  0.86206  1.0000
  Fe  Fe86      1.0  0.27722  0.53165  0.91883  1.0000
  S   S172      1.0  0.30679  0.54605  0.93670  1.0000
  S   S173      1.0  0.25128  0.56407  0.90641  1.0000
  Fe  Fe87      1.0  0.28734  0.96751  0.93201  1.0000
  S   S174      1.0  0.31810  0.98226  0.94923  1.0000
  S   S175      1.0  0.28616  0.91815  0.92826  1.0000
  H   H1019     1.0  0.36655  0.57793  0.88838  1.0000
  H   H1020     1.0  0.35272  0.90726  0.87442  1.0000
  H   H1021     1.0  0.39043  0.95074  0.92931  1.0000
  C   C595      1.0  0.20046  0.75959  0.01494  1.0000
  C   C596      1.0  0.46136  0.87499  0.77091  1.0000
  H   H1022     1.0  0.35078  0.55701  0.86137  1.0000
  Fe  Fe88      1.0  0.15976  0.73813  0.91145  1.0000
  S   S176      1.0  0.19732  0.75400  0.90494  1.0000
  S   S177      1.0  0.13640  0.72392  0.88812  1.0000
  Fe  Fe89      1.0  0.16840  0.74554  0.95134  1.0000
  S   S178      1.0  0.20613  0.76191  0.94752  1.0000
  S   S179      1.0  0.14910  0.74400  0.97785  1.0000
  Fe  Fe90      1.0  0.19067  0.78869  0.92560  1.0000
  S   S180      1.0  0.19285  0.83791  0.92206  1.0000
  Fe  Fe91      1.0  0.20955  0.72552  0.92735  1.0000
  S   S181      1.0  0.24433  0.69846  0.92783  1.0000
  S   S182      1.0  0.15236  0.77450  0.93064  1.0000
  S   S183      1.0  0.17260  0.70736  0.93262  1.0000
  H   H1023     1.0  0.23461  0.55805  0.00421  1.0000
  H   H1024     1.0  0.37007  0.61292  0.87888  1.0000
  H   H1025     1.0  0.41845  0.93307  0.87465  1.0000
  H   H1026     1.0  0.23527  0.62545  0.95123  1.0000
  H   H1027     1.0  0.35120  0.94552  0.87813  1.0000
  H   H1028     1.0  0.46089  0.74289  0.79099  1.0000
  H   H1029     1.0  0.47376  0.78035  0.80648  1.0000
  H   H1030     1.0  0.34388  0.57899  0.91914  1.0000
  C   C597      1.0  0.49121  0.91348  0.77440  1.0000
  S   S184      1.0  0.47083  0.59541  0.79305  1.0000
  H   H1031     1.0  0.30456  0.58013  0.90021  1.0000
  H   H1032     1.0  0.35082  0.59234  0.85052  1.0000
  H   H1033     1.0  0.28619  0.58182  0.87109  1.0000
  H   H1034     1.0  0.34626  0.63941  0.90155  1.0000
  C   C598      1.0  0.29866  0.63977  0.88022  1.0000
  C   C599      1.0  0.35071  0.60139  0.91765  1.0000
  C   C600      1.0  0.31734  0.57647  0.88900  1.0000
  C   C601      1.0  0.16430  0.74869  0.99813  1.0000
  H   H1035     1.0  0.31593  0.90238  0.89534  1.0000
  C   C602      1.0  0.18931  0.75295  0.99879  1.0000
  C   C603      1.0  0.13943  0.84258  0.95833  1.0000
  H   H1036     1.0  0.20000  0.75163  0.98682  1.0000
  H   H1037     1.0  0.30280  0.65743  0.88982  1.0000
  S   S185      1.0  0.00308  0.68385  0.79251  1.0000
  C   C604      1.0  0.23646  0.57060  0.95845  1.0000
  H   H1038     1.0  0.19643  0.64784  0.95171  1.0000
  N   N43       1.0  0.23226  0.59403  0.97223  1.0000
  H   H1039     1.0  0.31126  0.92325  0.87604  1.0000
  H   H1040     1.0  0.37668  0.91706  0.93684  1.0000
  C   C605      1.0  0.37383  0.99877  0.86637  1.0000
  H   H1041     1.0  0.21975  0.76339  0.01528  1.0000
  H   H1042     1.0  0.21780  0.53751  0.94321  1.0000
  H   H1043     1.0  0.33527  0.64193  0.87043  1.0000
  C   C606      1.0  0.32206  0.62446  0.87356  1.0000
  H   H1044     1.0  0.31784  0.61427  0.86064  1.0000
  H   H1045     1.0  0.02366  0.89693  0.77984  1.0000
  H   H1046     1.0  0.31498  0.94167  0.89650  1.0000
  C   C607      1.0  0.25982  0.89634  0.92746  1.0000
  C   C608      1.0  0.23668  0.90850  0.92566  1.0000
  C   C609      1.0  0.21638  0.89027  0.92412  1.0000
  C   C610      1.0  0.21893  0.85977  0.92463  1.0000
  C   C611      1.0  0.24199  0.84762  0.92682  1.0000
  C   C612      1.0  0.26233  0.86584  0.92808  1.0000
  H   H1047     1.0  0.23449  0.93191  0.92511  1.0000
  H   H1048     1.0  0.19863  0.89989  0.92241  1.0000
  H   H1049     1.0  0.24422  0.82419  0.92721  1.0000
  H   H1050     1.0  0.28015  0.85622  0.92947  1.0000
  C   C613      1.0  0.24943  0.60126  0.91282  1.0000
  C   C614      1.0  0.22872  0.61759  0.90850  1.0000
  C   C615      1.0  0.22673  0.64728  0.91320  1.0000
  C   C616      1.0  0.24579  0.66114  0.92183  1.0000
  C   C617      1.0  0.26667  0.64491  0.92594  1.0000
  C   C618      1.0  0.26829  0.61499  0.92178  1.0000
  H   H1051     1.0  0.21403  0.60719  0.90155  1.0000
  H   H1052     1.0  0.21058  0.65955  0.90992  1.0000
  H   H1053     1.0  0.28144  0.65546  0.93269  1.0000
  H   H1054     1.0  0.28418  0.60267  0.92542  1.0000
  C   C619      1.0  0.06223  0.75813  0.86911  1.0000
  C   C620      1.0  0.07098  0.76619  0.88585  1.0000
  C   C621      1.0  0.09348  0.75574  0.89195  1.0000
  C   C622      1.0  0.10755  0.73703  0.88136  1.0000
  C   C623      1.0  0.09878  0.72887  0.86465  1.0000
  C   C624      1.0  0.07630  0.73941  0.85852  1.0000
  H   H1055     1.0  0.06019  0.78054  0.89418  1.0000
  H   H1056     1.0  0.09979  0.76179  0.90493  1.0000
  H   H1057     1.0  0.10948  0.71434  0.85636  1.0000
  H   H1058     1.0  0.06985  0.73300  0.84563  1.0000
  H   H1059     1.0  0.32854  0.55738  0.89302  1.0000
  N   N44       1.0  0.14478  0.82118  0.86934  1.0000
  C   C625      1.0  0.16715  0.80830  0.86059  1.0000
  C   C626      1.0  0.14633  0.85379  0.86737  1.0000
  C   C627      1.0  0.12306  0.80973  0.85955  1.0000
  C   C628      1.0  0.14446  0.81165  0.88833  1.0000
  C   C629      1.0  0.16836  0.77476  0.85920  1.0000
  C   C630      1.0  0.16724  0.86857  0.87737  1.0000
  C   C631      1.0  0.09845  0.82473  0.86316  1.0000
  C   C632      1.0  0.12685  0.82763  0.90117  1.0000
  H   H1060     1.0  0.16931  0.81675  0.84694  1.0000
  H   H1061     1.0  0.18379  0.81473  0.86780  1.0000
  H   H1062     1.0  0.12958  0.86515  0.87171  1.0000
  H   H1063     1.0  0.14808  0.85956  0.85317  1.0000
  H   H1064     1.0  0.12612  0.81091  0.84503  1.0000
  H   H1065     1.0  0.12031  0.78630  0.86245  1.0000
  H   H1066     1.0  0.14019  0.78808  0.88919  1.0000
  H   H1067     1.0  0.16288  0.81303  0.89415  1.0000
  H   H1068     1.0  0.15378  0.76558  0.85090  1.0000
  H   H1069     1.0  0.18578  0.76818  0.85290  1.0000
  H   H1070     1.0  0.16806  0.76455  0.87234  1.0000
  H   H1071     1.0  0.16563  0.89255  0.87585  1.0000
  H   H1072     1.0  0.16656  0.86416  0.89171  1.0000
  H   H1073     1.0  0.18524  0.86218  0.87202  1.0000
  H   H1074     1.0  0.08431  0.81278  0.85572  1.0000
  H   H1075     1.0  0.09783  0.84741  0.85829  1.0000
  H   H1076     1.0  0.09295  0.82380  0.87716  1.0000
  H   H1077     1.0  0.11157  0.81323  0.90473  1.0000
  H   H1078     1.0  0.11917  0.84829  0.89638  1.0000
  H   H1079     1.0  0.13651  0.83314  0.91355  1.0000
  H   H1080     1.0  0.20293  0.55170  0.00415  1.0000
  H   H1081     1.0  0.34852  0.61258  0.93062  1.0000
  S   S186      1.0  0.41216  0.99085  0.84339  1.0000
  H   H1082     1.0  0.21692  0.81098  0.99251  1.0000
  C   C633      1.0  0.22519  0.62256  0.96377  1.0000
  H   H1083     1.0  0.40246  0.89944  0.87577  1.0000
  H   H1084     1.0  0.02874  0.56303  0.77468  1.0000
  H   H1085     1.0  0.46075  0.77090  0.77397  1.0000
  C   C634      1.0  0.46687  0.64344  0.77155  1.0000
  H   H1086     1.0  0.45762  0.91198  0.78878  1.0000
  H   H1087     1.0  0.21114  0.57408  0.93633  1.0000
  H   H1088     1.0  0.25301  0.61401  0.99325  1.0000
  C   C635      1.0  0.35893  0.57894  0.86105  1.0000
  H   H1089     1.0  0.16820  0.80739  0.00406  1.0000
  H   H1090     1.0  0.13894  0.86651  0.95651  1.0000
  H   H1091     1.0  0.24953  0.57805  0.94832  1.0000
  H   H1092     1.0  0.28288  0.59500  0.96040  1.0000
  H   H1093     1.0  0.26259  0.57810  0.98765  1.0000
  H   H1094     1.0  0.37041  0.60055  0.91470  1.0000
  H   H1095     1.0  0.44419  0.86575  0.77473  1.0000
  H   H1096     1.0  0.18907  0.87883  0.99371  1.0000
  H   H1097     1.0  0.22088  0.53790  0.98625  1.0000
  H   H1098     1.0  0.31154  0.56303  0.86100  1.0000
  H   H1099     1.0  0.28922  0.65010  0.86896  1.0000
  C   C636      1.0  0.30139  0.56645  0.87343  1.0000
  C   C637      1.0  0.18512  0.88521  0.96601  1.0000
  C   C638      1.0  0.36278  0.00592  0.88270  1.0000
  C   C639      1.0  0.46893  0.90128  0.77895  1.0000
  H   H1100     1.0  0.18826  0.82817  0.95990  1.0000
  N   N45       1.0  0.36580  0.92127  0.90004  1.0000
  C   C640      1.0  0.38994  0.93378  0.89456  1.0000
  C   C641      1.0  0.35668  0.93914  0.91554  1.0000
  C   C642      1.0  0.34867  0.92414  0.88468  1.0000
  C   C643      1.0  0.36992  0.88972  0.90464  1.0000
  C   C644      1.0  0.40024  0.92341  0.87656  1.0000
  C   C645      1.0  0.37317  0.93932  0.93187  1.0000
  C   C646      1.0  0.34856  0.87300  0.91284  1.0000
  H   H1101     1.0  0.38895  0.95794  0.89404  1.0000
  H   H1102     1.0  0.40415  0.92888  0.90446  1.0000
  H   H1103     1.0  0.33858  0.93225  0.92014  1.0000
  H   H1104     1.0  0.35387  0.96220  0.91154  1.0000
  H   H1105     1.0  0.37533  0.87703  0.89267  1.0000
  H   H1106     1.0  0.38575  0.88702  0.91351  1.0000
  H   H1107     1.0  0.38911  0.93123  0.86539  1.0000
  C   C647      1.0  0.21863  0.55660  0.99549  1.0000
  H   H1108     1.0  0.12118  0.83443  0.95486  1.0000
  H   H1109     1.0  0.37825  0.57535  0.85737  1.0000
  H   H1110     1.0  0.23034  0.64140  0.97231  1.0000
  H   H1111     1.0  0.41794  0.53142  0.90305  1.0000
  H   H1112     1.0  0.33795  0.86169  0.90249  1.0000
  H   H1113     1.0  0.33615  0.88644  0.92105  1.0000
  H   H1114     1.0  0.35571  0.85628  0.92199  1.0000
  N   N46       1.0  0.16981  0.84109  0.98431  1.0000
  H   H1115     1.0  0.36401  0.95165  0.94269  1.0000
  C   C648      1.0  0.18789  0.82275  0.97406  1.0000
  C   C649      1.0  0.14473  0.83467  0.97761  1.0000
  H   H1116     1.0  0.17950  0.87327  0.95406  1.0000
  H   H1117     1.0  0.29287  0.54539  0.87678  1.0000
  C   C650      1.0  0.21430  0.82425  0.98050  1.0000
  H   H1118     1.0  0.19759  0.55870  0.95594  1.0000
  H   H1119     1.0  0.22025  0.84685  0.98305  1.0000
  H   H1120     1.0  0.19028  0.60986  0.95162  1.0000
  C   C651      1.0  0.17082  0.83128  0.00327  1.0000
  H   H1121     1.0  0.18738  0.63113  0.97179  1.0000
  H   H1122     1.0  0.18246  0.79945  0.97430  1.0000
  H   H1123     1.0  0.14063  0.81104  0.97917  1.0000
  H   H1124     1.0  0.19534  0.58338  0.98002  1.0000
  C   C652      1.0  0.15074  0.75003  0.01388  1.0000
  H   H1125     1.0  0.15873  0.88626  0.98724  1.0000
  H   H1126     1.0  0.22646  0.81481  0.97016  1.0000
  H   H1127     1.0  0.27276  0.63211  0.96492  1.0000
  C   C653      1.0  0.48255  0.62176  0.77809  1.0000
  C   C654      1.0  0.40801  0.52316  0.89184  1.0000
  Fe  Fe92      1.0  0.44932  0.00247  0.83169  1.0000
  S   S187      1.0  0.01112  0.83825  0.78844  1.0000
  H   H1128     1.0  0.29279  0.61381  0.97957  1.0000
  C   C655      1.0  0.17518  0.87327  0.98365  1.0000
  S   S188      1.0  0.45162  0.00375  0.80193  1.0000
  H   H1129     1.0  0.31893  0.62427  0.90968  1.0000
  C   C656      1.0  0.32132  0.92258  0.88867  1.0000
  H   H1130     1.0  0.28588  0.62448  0.88647  1.0000
  N   N47       1.0  0.33310  0.60281  0.88609  1.0000
  C   C657      1.0  0.33666  0.61840  0.90351  1.0000
  C   C658      1.0  0.19821  0.62759  0.95956  1.0000
  S   S189      1.0  0.29675  0.99792  0.90984  1.0000
  C   C659      1.0  0.00976  0.89033  0.77069  1.0000
  H   H1131     1.0  0.24575  0.55119  0.96400  1.0000
  H   H1132     1.0  0.02903  0.52529  0.76891  1.0000
  H   H1133     1.0  0.13076  0.84670  0.98543  1.0000
  C   C660      1.0  0.00003  0.86214  0.77187  1.0000
  H   H1134     1.0  0.15221  0.83221  0.94887  1.0000
  H   H1135     1.0  0.21162  0.60297  0.99599  1.0000
  C   C661      1.0  0.25577  0.59873  0.98188  1.0000
  H   H1136     1.0  0.20518  0.88660  0.96625  1.0000
  H   H1137     1.0  0.43973  0.52070  0.87490  1.0000
  C   C662      1.0  0.27698  0.61065  0.97080  1.0000
  C   C663      1.0  0.21432  0.56012  0.94799  1.0000
  C   C664      1.0  0.32136  0.00762  0.00648  1.0000
  C   C665      1.0  0.21361  0.58545  0.98579  1.0000
  H   H1138     1.0  0.36311  0.98935  0.85592  1.0000
  H   H1139     1.0  0.17866  0.90801  0.96441  1.0000
  H   H1140     1.0  0.18890  0.83549  0.00907  1.0000
  H   H1141     1.0  0.45475  0.73387  0.76872  1.0000
  H   H1142     1.0  0.44819  0.64398  0.77591  1.0000
  C   C666      1.0  0.39875  0.00313  0.86355  1.0000
  S   S190      1.0  0.48394  0.97604  0.83415  1.0000
  H   H1143     1.0  0.15244  0.86949  0.01566  1.0000
  Fe  Fe93      1.0  0.99858  0.79612  0.80192  1.0000
  Fe  Fe94      1.0  0.48252  0.55084  0.80434  1.0000
  S   S191      1.0  0.26054  0.99881  0.94431  1.0000
  H   H1144     1.0  0.34373  0.00190  0.88475  1.0000
  C   C667      1.0  0.02069  0.54166  0.77800  1.0000
  H   H1145     1.0  0.13372  0.83716  0.01378  1.0000
  H   H1146     1.0  0.02593  0.53677  0.79172  1.0000
  H   H1147     1.0  0.49002  0.80105  0.78018  1.0000
  S   S192      1.0  0.36869  0.52382  0.91431  1.0000
  H   H1148     1.0  0.02389  0.63187  0.77723  1.0000
  H   H1149     1.0  0.13139  0.74671  0.01348  1.0000
  Fe  Fe95      1.0  0.48726  0.98028  0.80447  1.0000
  Fe  Fe96      1.0  0.99496  0.72912  0.80471  1.0000
  H   H1150     1.0  0.46400  0.54711  0.76808  1.0000
  Fe  Fe97      1.0  0.32998  0.51262  0.92245  1.0000
  C   C668      1.0  0.46590  0.74821  0.77723  1.0000
  H   H1151     1.0  0.99868  0.54440  0.81281  1.0000
  C   C669      1.0  0.00659  0.63522  0.77092  1.0000
  S   S193      1.0  0.28419  0.52241  0.98219  1.0000
  S   S194      1.0  0.48500  0.54314  0.83372  1.0000
  S   S195      1.0  0.45578  0.51466  0.80039  1.0000
  C   C670      1.0  0.42043  0.51719  0.87587  1.0000
  C   C671      1.0  0.38309  0.51777  0.89357  1.0000
  H   H1152     1.0  0.33171  0.01015  0.99445  1.0000
  C   C672      1.0  0.49275  0.74130  0.77353  1.0000
  C   C673      1.0  0.49236  0.78040  0.81172  1.0000
  H   H1153     1.0  0.49113  0.77423  0.82583  1.0000
  C   C674      1.0  0.15227  0.84538  0.01610  1.0000
  Fe  Fe98      1.0  0.65575  0.50558  0.11936  1.0000
  Fe  Fe99      1.0  0.96666  0.27549  0.18878  1.0000
  C   C675      1.0  0.56885  0.04800  0.24131  1.0000
  S   S196      1.0  0.94180  0.29312  0.16720  1.0000
  C   C676      1.0  0.94056  0.37201  0.18566  1.0000
  H   H1154     1.0  0.69901  0.09460  0.07906  1.0000
  S   S197      1.0  0.95543  0.26667  0.21672  1.0000
  H   H1155     1.0  0.58558  0.05311  0.24863  1.0000
  H   H1156     1.0  0.54938  0.08860  0.24547  1.0000
  C   C677      1.0  0.58794  0.09214  0.18978  1.0000
  H   H1157     1.0  0.94527  0.35255  0.17741  1.0000
  C   C678      1.0  0.67638  0.09625  0.02973  1.0000
  H   H1158     1.0  0.97419  0.37033  0.20146  1.0000
  H   H1159     1.0  0.92731  0.42565  0.22596  1.0000
  H   H1160     1.0  0.94836  0.34953  0.21893  1.0000
  Fe  Fe100     1.0  0.98614  0.29595  0.22473  1.0000
  Fe  Fe101     1.0  0.82054  0.26178  0.10804  1.0000
  S   S198      1.0  0.78086  0.25222  0.11229  1.0000
  S   S199      1.0  0.84481  0.24656  0.13087  1.0000
  Fe  Fe102     1.0  0.81108  0.27781  0.06911  1.0000
  S   S200      1.0  0.77141  0.26883  0.07110  1.0000
  S   S201      1.0  0.82698  0.29273  0.04297  1.0000
  Fe  Fe103     1.0  0.77365  0.29327  0.09690  1.0000
  S   S202      1.0  0.74243  0.32384  0.10447  1.0000
  Fe  Fe104     1.0  0.78221  0.22881  0.08621  1.0000
  S   S203      1.0  0.77056  0.18276  0.07838  1.0000
  S   S204      1.0  0.81307  0.30455  0.09433  1.0000
  S   S205      1.0  0.82207  0.23639  0.08250  1.0000
  C   C679      1.0  0.83800  0.13230  0.12987  1.0000
  C   C680      1.0  0.82021  0.17352  0.11299  1.0000
  C   C681      1.0  0.53470  0.47059  0.12595  1.0000
  S   S206      1.0  0.50481  0.04504  0.20118  1.0000
  S   S207      1.0  0.97723  0.32576  0.24848  1.0000
  H   H1161     1.0  0.68867  0.14984  0.05756  1.0000
  Fe  Fe105     1.0  0.70481  0.48817  0.10305  1.0000
  S   S208      1.0  0.74035  0.46278  0.10198  1.0000
  Fe  Fe106     1.0  0.70077  0.04306  0.10926  1.0000
  S   S209      1.0  0.71365  0.08601  0.12128  1.0000
  S   S210      1.0  0.66797  0.46867  0.10144  1.0000
  S   S211      1.0  0.66868  0.04324  0.09118  1.0000
  C   C682      1.0  0.75579  0.15637  0.09138  1.0000
  C   C683      1.0  0.74053  0.16399  0.10548  1.0000
  C   C684      1.0  0.72788  0.14219  0.11463  1.0000
  C   C685      1.0  0.72996  0.11273  0.10953  1.0000
  C   C686      1.0  0.74553  0.10512  0.09562  1.0000
  C   C687      1.0  0.75848  0.12682  0.08668  1.0000
  H   H1162     1.0  0.73822  0.18667  0.10919  1.0000
  H   H1163     1.0  0.71603  0.14824  0.12549  1.0000
  H   H1164     1.0  0.74766  0.08246  0.09184  1.0000
  H   H1165     1.0  0.77054  0.12069  0.07597  1.0000
  C   C688      1.0  0.74280  0.36248  0.10446  1.0000
  C   C689      1.0  0.76340  0.37819  0.09970  1.0000
  C   C690      1.0  0.76256  0.40892  0.09938  1.0000
  C   C691      1.0  0.74111  0.42422  0.10365  1.0000
  C   C692      1.0  0.72057  0.40850  0.10847  1.0000
  C   C693      1.0  0.72146  0.37784  0.10893  1.0000
  H   H1166     1.0  0.77995  0.36665  0.09627  1.0000
  H   H1167     1.0  0.77857  0.42086  0.09568  1.0000
  H   H1168     1.0  0.70399  0.41993  0.11192  1.0000
  H   H1169     1.0  0.70548  0.36589  0.11270  1.0000
  H   H1170     1.0  0.83428  0.19052  0.11448  1.0000
  H   H1171     1.0  0.93993  0.32286  0.20354  1.0000
  H   H1172     1.0  0.92006  0.39393  0.23782  1.0000
  S   S212      1.0  0.63051  0.48981  0.14126  1.0000
  H   H1173     1.0  0.67820  0.39416  0.07281  1.0000
  H   H1174     1.0  0.83643  0.11915  0.14206  1.0000
  H   H1175     1.0  0.97682  0.38764  0.18075  1.0000
  S   S213      1.0  0.64350  0.48280  0.05434  1.0000
  H   H1176     1.0  0.84421  0.14764  0.09533  1.0000
  H   H1177     1.0  0.78964  0.25001  0.03589  1.0000
  H   H1178     1.0  0.88595  0.34548  0.19951  1.0000
  H   H1179     1.0  0.74452  0.05369  0.03665  1.0000
  Fe  Fe107     1.0  0.98284  0.23002  0.21628  1.0000
  H   H1180     1.0  0.56746  0.13683  0.21006  1.0000
  C   C694      1.0  0.93259  0.34145  0.21151  1.0000
  H   H1181     1.0  0.55641  0.03733  0.25079  1.0000
  H   H1182     1.0  0.53949  0.06757  0.22742  1.0000
  H   H1183     1.0  0.75572  0.42792  0.04482  1.0000
  C   C695      1.0  0.98781  0.42370  0.26190  1.0000
  H   H1184     1.0  0.72773  0.41143  0.02337  1.0000
  C   C696      1.0  0.59223  0.11784  0.24817  1.0000
  C   C697      1.0  0.79764  0.25630  0.02347  1.0000
  H   H1185     1.0  0.56038  0.06420  0.20045  1.0000
  H   H1186     1.0  0.94784  0.19307  0.26185  1.0000
  H   H1187     1.0  0.76864  0.32513  0.02091  1.0000
  C   C698      1.0  0.91490  0.27958  0.15727  1.0000
  C   C699      1.0  0.90402  0.25368  0.16261  1.0000
  C   C700      1.0  0.88261  0.24405  0.15438  1.0000
  C   C701      1.0  0.87179  0.26008  0.14071  1.0000
  C   C702      1.0  0.88262  0.28605  0.13544  1.0000
  C   C703      1.0  0.90399  0.29574  0.14371  1.0000
  H   H1188     1.0  0.91210  0.24103  0.17302  1.0000
  H   H1189     1.0  0.87440  0.22398  0.15861  1.0000
  H   H1190     1.0  0.87457  0.29863  0.12497  1.0000
  H   H1191     1.0  0.91221  0.31579  0.13943  1.0000
  C   C704      1.0  0.91297  0.39095  0.20928  1.0000
  C   C705      1.0  0.49659  0.10748  0.25746  1.0000
  C   C706      1.0  0.98182  0.36358  0.25319  1.0000
  H   H1192     1.0  0.75473  0.08776  0.02847  1.0000
  H   H1193     1.0  0.61605  0.47422  0.09139  1.0000
  C   C707      1.0  0.96453  0.38487  0.19225  1.0000
  C   C708      1.0  0.73783  0.46888  0.04576  1.0000
  H   H1194     1.0  0.92537  0.31671  0.23531  1.0000
  C   C709      1.0  0.92071  0.22517  0.25593  1.0000
  H   H1195     1.0  0.57550  0.10898  0.18454  1.0000
  H   H1196     1.0  0.66016  0.42591  0.06945  1.0000
  H   H1197     1.0  0.87632  0.12876  0.12273  1.0000
  H   H1198     1.0  0.87224  0.35733  0.17108  1.0000
  H   H1199     1.0  0.66881  0.40416  0.05074  1.0000
  C   C710      1.0  0.79404  0.13980  0.12867  1.0000
  C   C711      1.0  0.49437  0.36049  0.26548  1.0000
  C   C712      1.0  0.55645  0.12047  0.21722  1.0000
  H   H1200     1.0  0.91101  0.40959  0.20009  1.0000
  H   H1201     1.0  0.97008  0.09719  0.26358  1.0000
  H   H1202     1.0  0.86598  0.16534  0.12317  1.0000
  C   C713      1.0  0.53273  0.11551  0.20704  1.0000
  H   H1203     1.0  0.73849  0.09236  0.05919  1.0000
  H   H1204     1.0  0.59153  0.07635  0.17885  1.0000
  C   C714      1.0  0.99296  0.38237  0.24124  1.0000
  H   H1205     1.0  0.78721  0.13412  0.15727  1.0000
  H   H1206     1.0  0.90429  0.34593  0.23222  1.0000
  S   S214      1.0  0.97289  0.18463  0.22645  1.0000
  S   S215      1.0  0.72247  0.01111  0.09292  1.0000
  H   H1207     1.0  0.51963  0.46880  0.11644  1.0000
  C   C715      1.0  0.68679  0.11006  0.07221  1.0000
  C   C716      1.0  0.59109  0.48840  0.16347  1.0000
  C   C717      1.0  0.92811  0.40148  0.22522  1.0000
  N   N48       1.0  0.81815  0.15492  0.12926  1.0000
  H   H1208     1.0  0.58017  0.35811  0.25438  1.0000
  C   C718      1.0  0.59439  0.10277  0.22993  1.0000
  H   H1209     1.0  0.90120  0.36769  0.16315  1.0000
  H   H1210     1.0  0.68759  0.14038  0.02765  1.0000
  H   H1211     1.0  0.58967  0.05767  0.20853  1.0000
  H   H1212     1.0  0.67563  0.43096  0.02383  1.0000
  C   C719      1.0  0.90093  0.35018  0.19010  1.0000
  N   N49       1.0  0.57092  0.09355  0.22163  1.0000
  H   H1213     1.0  0.60701  0.08388  0.23128  1.0000
  H   H1214     1.0  0.60409  0.11827  0.22126  1.0000
  H   H1215     1.0  0.67689  0.12226  0.08276  1.0000
  H   H1216     1.0  0.55080  0.13218  0.22951  1.0000
  H   H1217     1.0  0.57285  0.03182  0.23071  1.0000
  H   H1218     1.0  0.78196  0.18576  0.15108  1.0000
  H   H1219     1.0  0.90629  0.32862  0.18437  1.0000
  H   H1220     1.0  0.96180  0.40685  0.19813  1.0000
  H   H1221     1.0  0.69673  0.45964  0.02889  1.0000
  N   N50       1.0  0.92201  0.36415  0.19948  1.0000
  H   H1222     1.0  0.82447  0.17229  0.08442  1.0000
  C   C720      1.0  0.65453  0.49685  0.03423  1.0000
  C   C721      1.0  0.58279  0.46408  0.10620  1.0000
  C   C722      1.0  0.69683  0.11895  0.02920  1.0000
  H   H1223     1.0  0.74290  0.13423  0.02726  1.0000
  H   H1224     1.0  0.50167  0.33855  0.26543  1.0000
  H   H1225     1.0  0.52623  0.47614  0.13891  1.0000
  C   C723      1.0  0.67509  0.41253  0.06364  1.0000
  C   C724      1.0  0.82020  0.17408  0.14541  1.0000
  H   H1226     1.0  0.74895  0.13905  0.05006  1.0000
  H   H1227     1.0  0.57202  0.44404  0.10750  1.0000
  H   H1228     1.0  0.81230  0.13954  0.09297  1.0000
  C   C725      1.0  0.97914  0.11763  0.26134  1.0000
  H   H1229     1.0  0.79936  0.10196  0.14608  1.0000
  H   H1230     1.0  0.76871  0.11290  0.14301  1.0000
  H   H1231     1.0  0.83622  0.11583  0.11909  1.0000
  N   N51       1.0  0.71391  0.11990  0.04463  1.0000
  C   C726      1.0  0.73427  0.14037  0.04008  1.0000
  C   C727      1.0  0.72524  0.09055  0.04828  1.0000
  H   H1232     1.0  0.75450  0.48087  0.04933  1.0000
  C   C728      1.0  0.72741  0.17296  0.03863  1.0000
  H   H1233     1.0  0.70108  0.39313  0.03029  1.0000
  C   C729      1.0  0.57672  0.07558  0.20539  1.0000
  H   H1234     1.0  0.52116  0.46541  0.07829  1.0000
  H   H1235     1.0  0.59232  0.45936  0.07784  1.0000
  S   S216      1.0  0.50425  0.43408  0.23648  1.0000
  H   H1236     1.0  0.68130  0.07567  0.03628  1.0000
  C   C730      1.0  0.60525  0.50590  0.15236  1.0000
  H   H1237     1.0  0.88503  0.39056  0.17913  1.0000
  H   H1238     1.0  0.59342  0.46511  0.11864  1.0000
  H   H1239     1.0  0.89447  0.38704  0.21465  1.0000
  H   H1240     1.0  0.90248  0.31294  0.21898  1.0000
  H   H1241     1.0  0.53806  0.44530  0.09392  1.0000
  H   H1242     1.0  0.95916  0.25990  0.25864  1.0000
  H   H1243     1.0  0.94747  0.39548  0.22485  1.0000
  C   C731      1.0  0.78737  0.12130  0.14483  1.0000
  H   H1244     1.0  0.59623  0.46587  0.16543  1.0000
  H   H1245     1.0  0.71460  0.14147  0.07021  1.0000
  C   C732      1.0  0.55613  0.07538  0.23405  1.0000
  N   N52       1.0  0.71813  0.41842  0.05082  1.0000
  C   C733      1.0  0.72438  0.38915  0.05865  1.0000
  C   C734      1.0  0.69789  0.43146  0.06188  1.0000
  C   C735      1.0  0.74020  0.43739  0.05237  1.0000
  H   H1246     1.0  0.93317  0.38847  0.17643  1.0000
  C   C736      1.0  0.74716  0.37357  0.05122  1.0000
  H   H1247     1.0  0.80382  0.21040  0.15980  1.0000
  C   C737      1.0  0.71123  0.41387  0.03176  1.0000
  H   H1248     1.0  0.72258  0.48098  0.05194  1.0000
  H   H1249     1.0  0.72691  0.39121  0.07310  1.0000
  H   H1250     1.0  0.70927  0.37351  0.05697  1.0000
  H   H1251     1.0  0.69177  0.45289  0.05697  1.0000
  H   H1252     1.0  0.70436  0.43615  0.07549  1.0000
  H   H1253     1.0  0.74619  0.43854  0.06636  1.0000
  H   H1254     1.0  0.74386  0.18532  0.03491  1.0000
  H   H1255     1.0  0.97878  0.22909  0.25768  1.0000
  C   C738      1.0  0.98341  0.16246  0.24411  1.0000
  H   H1256     1.0  0.74739  0.37272  0.03663  1.0000
  H   H1257     1.0  0.56232  0.49715  0.07648  1.0000
  H   H1258     1.0  0.74754  0.35076  0.05606  1.0000
  S   S217      1.0  0.49908  0.06921  0.25327  1.0000
  S   S218      1.0  0.69956  0.01450  0.04649  1.0000
  H   H1259     1.0  0.79765  0.21090  0.13684  1.0000
  H   H1260     1.0  0.52698  0.13625  0.20083  1.0000
  H   H1261     1.0  0.71190  0.07465  0.05315  1.0000
  Fe  Fe108     1.0  0.66128  0.49954  0.07923  1.0000
  H   H1262     1.0  0.60922  0.43653  0.09243  1.0000
  H   H1263     1.0  0.53474  0.09992  0.19593  1.0000
  H   H1264     1.0  0.67326  0.09781  0.06457  1.0000
  H   H1265     1.0  0.55949  0.48590  0.18042  1.0000
  C   C739      1.0  0.82562  0.15690  0.09559  1.0000
  H   H1266     1.0  0.95788  0.12840  0.23846  1.0000
  H   H1267     1.0  0.83723  0.18688  0.14492  1.0000
  C   C740      1.0  0.88942  0.36787  0.17507  1.0000
  H   H1268     1.0  0.80321  0.18619  0.11086  1.0000
  H   H1269     1.0  0.79302  0.12499  0.11702  1.0000
  H   H1270     1.0  0.77913  0.15585  0.12685  1.0000
  H   H1271     1.0  0.87071  0.14702  0.14364  1.0000
  H   H1272     1.0  0.82170  0.16086  0.15758  1.0000
  H   H1273     1.0  0.60551  0.10203  0.19326  1.0000
  C   C741      1.0  0.86412  0.14419  0.12992  1.0000
  C   C742      1.0  0.73836  0.07572  0.03256  1.0000
  H   H1274     1.0  0.54402  0.44938  0.12773  1.0000
  C   C743      1.0  0.70128  0.13172  0.06097  1.0000
  C   C744      1.0  0.79950  0.19633  0.14827  1.0000
  H   H1275     1.0  0.51815  0.10789  0.21595  1.0000
  C   C745      1.0  0.57020  0.49967  0.17197  1.0000
  S   S219      1.0  0.99176  0.23655  0.18745  1.0000
  H   H1276     1.0  0.71375  0.17698  0.02828  1.0000
  C   C746      1.0  0.81652  0.27636  0.02323  1.0000
  C   C747      1.0  0.91491  0.32880  0.22522  1.0000
  H   H1277     1.0  0.51514  0.37390  0.24275  1.0000
  C   C748      1.0  0.60095  0.45851  0.09097  1.0000
  H   H1278     1.0  0.76394  0.38384  0.05620  1.0000
  C   C749      1.0  0.97223  0.13548  0.24710  1.0000
  H   H1279     1.0  0.90806  0.20896  0.25025  1.0000
  H   H1280     1.0  0.98788  0.12516  0.19453  1.0000
  H   H1281     1.0  0.72616  0.07252  0.02118  1.0000
  H   H1282     1.0  0.65984  0.10552  0.03609  1.0000
  H   H1283     1.0  0.56401  0.49876  0.13251  1.0000
  H   H1284     1.0  0.73650  0.46950  0.03118  1.0000
  C   C750      1.0  0.69493  0.43748  0.02334  1.0000
  H   H1285     1.0  0.63402  0.46719  0.01809  1.0000
  H   H1286     1.0  0.72113  0.18229  0.05143  1.0000
  H   H1287     1.0  0.58433  0.10340  0.25830  1.0000
  H   H1288     1.0  0.93128  0.23368  0.24467  1.0000
  C   C751      1.0  0.53978  0.46120  0.08317  1.0000
  C   C752      1.0  0.50192  0.38060  0.25260  1.0000
  C   C753      1.0  0.55151  0.49061  0.08825  1.0000
  S   S220      1.0  0.99177  0.46170  0.26645  1.0000
  H   H1289     1.0  0.54970  0.45086  0.07193  1.0000
  H   H1290     1.0  0.90954  0.24274  0.26202  1.0000
  Fe  Fe109     1.0  0.49579  0.03723  0.22974  1.0000
  N   N53       1.0  0.56719  0.49105  0.10448  1.0000
  H   H1291     1.0  0.58165  0.13843  0.24763  1.0000
  C   C754      1.0  0.64696  0.48473  0.01812  1.0000
  C   C755      1.0  0.55209  0.49522  0.12098  1.0000
  H   H1292     1.0  0.61063  0.12360  0.25278  1.0000
  H   H1293     1.0  0.53673  0.50717  0.08949  1.0000
  H   H1294     1.0  0.93194  0.06063  0.35658  1.0000
  H   H1295     1.0  0.60807  0.33789  0.30184  1.0000
  H   H1296     1.0  0.72209  0.10324  0.38830  1.0000
  N   N54       1.0  0.55836  0.35566  0.29821  1.0000
  H   H1297     1.0  0.83451  0.05037  0.48693  1.0000
  H   H1298     1.0  0.96510  0.36091  0.27889  1.0000
  Fe  Fe110     1.0  0.52014  0.26513  0.32489  1.0000
  C   C756      1.0  0.50201  0.14851  0.27811  1.0000
  S   S221      1.0  0.55928  0.27141  0.33434  1.0000
  H   H1299     1.0  0.50777  0.15653  0.29084  1.0000
  C   C757      1.0  0.77599  0.48088  0.47907  1.0000
  C   C758      1.0  0.53202  0.35677  0.30370  1.0000
  H   H1300     1.0  0.78450  0.41589  0.50101  1.0000
  S   S222      1.0  0.51427  0.27480  0.29596  1.0000
  C   C759      1.0  0.88087  0.50740  0.35847  1.0000
  H   H1301     1.0  0.91179  0.25884  0.31005  1.0000
  H   H1302     1.0  0.87368  0.48950  0.35081  1.0000
  H   H1303     1.0  0.97275  0.17166  0.30780  1.0000
  S   S223      1.0  0.77471  0.01259  0.43937  1.0000
  H   H1304     1.0  0.75606  0.43433  0.50172  1.0000
  Fe  Fe111     1.0  0.78811  0.49606  0.42593  1.0000
  S   S224      1.0  0.78295  0.44731  0.43015  1.0000
  Fe  Fe112     1.0  0.78191  0.05604  0.42693  1.0000
  S   S225      1.0  0.74952  0.08691  0.43055  1.0000
  Fe  Fe113     1.0  0.81229  0.01519  0.45011  1.0000
  S   S226      1.0  0.81858  0.06016  0.43948  1.0000
  Fe  Fe114     1.0  0.68609  0.27324  0.44884  1.0000
  S   S227      1.0  0.71781  0.28362  0.43130  1.0000
  S   S228      1.0  0.69886  0.27213  0.47736  1.0000
  Fe  Fe115     1.0  0.65166  0.26891  0.41692  1.0000
  S   S229      1.0  0.68141  0.27869  0.39763  1.0000
  S   S230      1.0  0.61163  0.26362  0.40949  1.0000
  Fe  Fe116     1.0  0.70401  0.24764  0.41384  1.0000
  S   S231      1.0  0.73184  0.21573  0.40219  1.0000
  Fe  Fe117     1.0  0.69269  0.31359  0.41702  1.0000
  S   S232      1.0  0.69837  0.36049  0.40806  1.0000
  S   S233      1.0  0.67363  0.23549  0.43208  1.0000
  S   S234      1.0  0.66159  0.30557  0.43559  1.0000
  C   C760      1.0  0.68202  0.26633  0.49688  1.0000
  H   H1305     1.0  0.74775  0.50796  0.49175  1.0000
  C   C761      1.0  0.65696  0.26249  0.49684  1.0000
  H   H1306     1.0  0.97060  0.04510  0.37008  1.0000
  H   H1307     1.0  0.64722  0.26280  0.48451  1.0000
  H   H1308     1.0  0.74276  0.50016  0.46901  1.0000
  H   H1309     1.0  0.57257  0.38217  0.31943  1.0000
  C   C762      1.0  0.57120  0.38234  0.30480  1.0000
  C   C763      1.0  0.96992  0.21060  0.29166  1.0000
  H   H1310     1.0  0.93129  0.26770  0.28177  1.0000
  C   C764      1.0  0.75877  0.42395  0.42425  1.0000
  C   C765      1.0  0.75954  0.39476  0.42976  1.0000
  C   C766      1.0  0.74103  0.37518  0.42519  1.0000
  C   C767      1.0  0.72163  0.38453  0.41486  1.0000
  C   C768      1.0  0.72075  0.41378  0.40947  1.0000
  C   C769      1.0  0.73915  0.43346  0.41420  1.0000
  H   H1311     1.0  0.77472  0.38710  0.43742  1.0000
  H   H1312     1.0  0.74202  0.35272  0.42935  1.0000
  H   H1313     1.0  0.70588  0.42122  0.40143  1.0000
  H   H1314     1.0  0.73835  0.45580  0.40983  1.0000
  C   C770      1.0  0.74506  0.12245  0.42211  1.0000
  C   C771      1.0  0.76267  0.13660  0.41210  1.0000
  C   C772      1.0  0.75827  0.16504  0.40591  1.0000
  C   C773      1.0  0.73637  0.17968  0.40979  1.0000
  C   C774      1.0  0.71870  0.16536  0.41963  1.0000
  C   C775      1.0  0.72303  0.13691  0.42573  1.0000
  H   H1315     1.0  0.77968  0.12570  0.40915  1.0000
  H   H1316     1.0  0.77199  0.17588  0.39820  1.0000
  H   H1317     1.0  0.70162  0.17618  0.42243  1.0000
  H   H1318     1.0  0.70918  0.12605  0.43330  1.0000
  C   C776      1.0  0.59769  0.26331  0.38827  1.0000
  C   C777      1.0  0.57233  0.26090  0.38719  1.0000
  C   C778      1.0  0.56028  0.26279  0.37084  1.0000
  C   C779      1.0  0.57346  0.26721  0.35528  1.0000
  C   C780      1.0  0.59884  0.26934  0.35634  1.0000
  C   C781      1.0  0.61090  0.26714  0.37266  1.0000
  H   H1319     1.0  0.56188  0.25785  0.39913  1.0000
  H   H1320     1.0  0.54079  0.26107  0.37030  1.0000
  H   H1321     1.0  0.60929  0.27258  0.34442  1.0000
  H   H1322     1.0  0.63040  0.26879  0.37319  1.0000
  C   C782      1.0  0.91824  0.04683  0.36226  1.0000
  H   H1323     1.0  0.93822  0.47703  0.41844  1.0000
  H   H1324     1.0  0.63708  0.36089  0.36772  1.0000
  H   H1325     1.0  0.59112  0.39716  0.39939  1.0000
  C   C783      1.0  0.81834  0.01162  0.49733  1.0000
  C   C784      1.0  0.88482  0.04026  0.38341  1.0000
  H   H1326     1.0  0.59530  0.37208  0.36282  1.0000
  N   N55       1.0  0.71561  0.02725  0.39134  1.0000
  H   H1327     1.0  0.94212  0.18347  0.30501  1.0000
  H   H1328     1.0  0.98231  0.28307  0.28223  1.0000
  C   C785      1.0  0.81271  0.45723  0.49054  1.0000
  H   H1329     1.0  0.94428  0.44947  0.40194  1.0000
  H   H1330     1.0  0.76609  0.39421  0.47733  1.0000
  C   C786      1.0  0.98493  0.49483  0.39991  1.0000
  C   C787      1.0  0.88206  0.01179  0.37704  1.0000
  H   H1331     1.0  0.59049  0.38253  0.30062  1.0000
  Fe  Fe118     1.0  0.98612  0.49040  0.29144  1.0000
  H   H1332     1.0  0.90532  0.07972  0.38070  1.0000
  H   H1333     1.0  0.57897  0.34880  0.37775  1.0000
  C   C788      1.0  0.93714  0.20972  0.26935  1.0000
  H   H1334     1.0  0.67743  0.32761  0.50999  1.0000
  C   C789      1.0  0.55872  0.35306  0.27829  1.0000
  H   H1335     1.0  0.85405  0.50353  0.37925  1.0000
  H   H1336     1.0  0.59540  0.36777  0.42566  1.0000
  C   C790      1.0  0.77316  0.43214  0.49394  1.0000
  S   S235      1.0  0.86663  0.05491  0.40094  1.0000
  C   C791      1.0  0.95211  0.45580  0.36177  1.0000
  H   H1337     1.0  0.90602  0.22834  0.29610  1.0000
  C   C792      1.0  0.97677  0.40488  0.27386  1.0000
  C   C793      1.0  0.69540  0.02306  0.37831  1.0000
  C   C794      1.0  0.82872  0.03922  0.49871  1.0000
  H   H1338     1.0  0.63426  0.31892  0.39936  1.0000
  H   H1339     1.0  0.93562  0.44869  0.36889  1.0000
  H   H1340     1.0  0.97049  0.41326  0.28648  1.0000
  H   H1341     1.0  0.95863  0.43697  0.35369  1.0000
  H   H1342     1.0  0.75280  0.23846  0.50915  1.0000
  H   H1343     1.0  0.73170  0.20964  0.50677  1.0000
  H   H1344     1.0  0.55767  0.30955  0.30392  1.0000
  H   H1345     1.0  0.73742  0.47221  0.48483  1.0000
  C   C795      1.0  0.91556  0.01829  0.35600  1.0000
  H   H1346     1.0  0.97566  0.44658  0.38363  1.0000
  H   H1347     1.0  0.93969  0.03094  0.39948  1.0000
  H   H1348     1.0  0.68078  0.03950  0.38056  1.0000
  C   C796      1.0  0.94010  0.25152  0.29056  1.0000
  H   H1349     1.0  0.79726  0.11681  0.50958  1.0000
  H   H1350     1.0  0.95265  0.26445  0.29889  1.0000
  H   H1351     1.0  0.91519  0.46586  0.40301  1.0000
  H   H1352     1.0  0.78702  0.50104  0.47817  1.0000
  C   C797      1.0  0.56934  0.32881  0.30635  1.0000
  H   H1353     1.0  0.74364  0.05913  0.39594  1.0000
  N   N56       1.0  0.74651  0.19410  0.47114  1.0000
  C   C798      1.0  0.76249  0.19452  0.45490  1.0000
  C   C799      1.0  0.75152  0.16596  0.48062  1.0000
  C   C800      1.0  0.75321  0.21991  0.48266  1.0000
  C   C801      1.0  0.72055  0.19643  0.46519  1.0000
  C   C802      1.0  0.76208  0.22306  0.44427  1.0000
  C   C803      1.0  0.74714  0.13768  0.47000  1.0000
  C   C804      1.0  0.71101  0.08347  0.39046  1.0000
  C   C805      1.0  0.70084  0.19180  0.47926  1.0000
  H   H1354     1.0  0.78171  0.18998  0.45841  1.0000
  H   H1355     1.0  0.75737  0.17709  0.44540  1.0000
  H   H1356     1.0  0.74042  0.16429  0.49280  1.0000
  H   H1357     1.0  0.77073  0.16527  0.48504  1.0000
  H   H1358     1.0  0.77272  0.22535  0.48096  1.0000
  H   H1359     1.0  0.74323  0.23988  0.47856  1.0000
  H   H1360     1.0  0.71678  0.21818  0.45942  1.0000
  H   H1361     1.0  0.71701  0.18056  0.45442  1.0000
  H   H1362     1.0  0.74390  0.22771  0.43891  1.0000
  H   H1363     1.0  0.76833  0.24213  0.45200  1.0000
  H   H1364     1.0  0.77441  0.22061  0.43271  1.0000
  H   H1365     1.0  0.74948  0.11867  0.47881  1.0000
  H   H1366     1.0  0.72856  0.13658  0.46466  1.0000
  H   H1367     1.0  0.76056  0.13469  0.45917  1.0000
  H   H1368     1.0  0.78864  0.49940  0.50999  1.0000
  C   C806      1.0  0.70588  0.02816  0.41007  1.0000
  H   H1369     1.0  0.71382  0.26881  0.51311  1.0000
  H   H1370     1.0  0.70166  0.16978  0.48508  1.0000
  H   H1371     1.0  0.68286  0.19390  0.47288  1.0000
  H   H1372     1.0  0.70123  0.20879  0.48963  1.0000
  H   H1373     1.0  0.77745  0.47095  0.46577  1.0000
  H   H1374     1.0  0.81616  0.42013  0.47207  1.0000
  H   H1375     1.0  0.76365  0.20176  0.50834  1.0000
  H   H1376     1.0  0.65194  0.34842  0.50314  1.0000
  C   C807      1.0  0.82115  0.44343  0.47297  1.0000
  H   H1377     1.0  0.62613  0.39383  0.43499  1.0000
  H   H1378     1.0  0.81462  0.45546  0.46133  1.0000
  H   H1379     1.0  0.53514  0.37639  0.33039  1.0000
  H   H1380     1.0  0.95829  0.16528  0.28728  1.0000
  H   H1381     1.0  0.94723  0.47338  0.35254  1.0000
  H   H1382     1.0  0.69599  0.08440  0.38086  1.0000
  H   H1383     1.0  0.74658  0.42394  0.47295  1.0000
  H   H1384     1.0  0.82197  0.47860  0.49179  1.0000
  H   H1385     1.0  0.54953  0.41031  0.28695  1.0000
  S   S236      1.0  0.49904  0.22325  0.32345  1.0000
  H   H1386     1.0  0.62106  0.41770  0.41630  1.0000
  C   C808      1.0  0.55947  0.41169  0.29959  1.0000
  H   H1387     1.0  0.97577  0.22327  0.30345  1.0000
  S   S237      1.0  0.97805  0.47875  0.31958  1.0000
  H   H1388     1.0  0.92862  0.49599  0.38100  1.0000
  H   H1389     1.0  0.71692  0.04287  0.41850  1.0000
  C   C809      1.0  0.58122  0.36469  0.26850  1.0000
  C   C810      1.0  0.76564  0.41831  0.47614  1.0000
  H   H1390     1.0  0.53219  0.33693  0.33016  1.0000
  C   C811      1.0  0.90304  0.05764  0.37592  1.0000
  C   C812      1.0  0.69444  0.26577  0.51298  1.0000
  H   H1391     1.0  0.64458  0.32285  0.36672  1.0000
  C   C813      1.0  0.98309  0.04252  0.38146  1.0000
  H   H1392     1.0  0.76239  0.47875  0.51400  1.0000
  C   C814      1.0  0.52673  0.35754  0.32370  1.0000
  H   H1393     1.0  0.50685  0.35975  0.32571  1.0000
  H   H1394     1.0  0.70372  0.08519  0.40408  1.0000
  H   H1395     1.0  0.57917  0.31658  0.40241  1.0000
  N   N57       1.0  0.78579  0.46118  0.49322  1.0000
  S   S238      1.0  0.96734  0.02959  0.29443  1.0000
  H   H1396     1.0  0.59483  0.31182  0.28635  1.0000
  H   H1397     1.0  0.52233  0.33758  0.29821  1.0000
  H   H1398     1.0  0.59856  0.35626  0.27358  1.0000
  C   C815      1.0  0.78199  0.47671  0.51070  1.0000
  H   H1399     1.0  0.56986  0.38550  0.37469  1.0000
  H   H1400     1.0  0.54665  0.41947  0.30998  1.0000
  H   H1401     1.0  0.66136  0.34609  0.38090  1.0000
  Fe  Fe119     1.0  0.83274  0.03708  0.41474  1.0000
  H   H1402     1.0  0.56842  0.32602  0.42376  1.0000
  H   H1403     1.0  0.55581  0.33001  0.27409  1.0000
  H   H1404     1.0  0.77738  0.42354  0.46484  1.0000
  H   H1405     1.0  0.56353  0.35108  0.40629  1.0000
  H   H1406     1.0  0.61123  0.33385  0.42455  1.0000
  C   C816      1.0  0.74991  0.21686  0.50281  1.0000
  C   C817      1.0  0.93480  0.47039  0.40456  1.0000
  C   C818      1.0  0.83266  0.05179  0.51546  1.0000
  H   H1407     1.0  0.60133  0.30158  0.30837  1.0000
  C   C819      1.0  0.92056  0.24003  0.30316  1.0000
  H   H1408     1.0  0.52251  0.37586  0.29791  1.0000
  H   H1409     1.0  0.84122  0.44407  0.47233  1.0000
  C   C820      1.0  0.97224  0.46510  0.37459  1.0000
  S   S239      1.0  0.79610  0.03557  0.40172  1.0000
  N   N58       1.0  0.95386  0.22893  0.27988  1.0000
  H   H1410     1.0  0.82057  0.44308  0.50090  1.0000
  H   H1411     1.0  0.61556  0.39757  0.38401  1.0000
  H   H1412     1.0  0.65078  0.41181  0.42479  1.0000
  N   N59       1.0  0.61602  0.36073  0.40149  1.0000
  C   C821      1.0  0.63797  0.37505  0.40942  1.0000
  C   C822      1.0  0.62505  0.33504  0.39072  1.0000
  C   C823      1.0  0.60070  0.34975  0.41653  1.0000
  C   C824      1.0  0.60246  0.38288  0.39066  1.0000
  C   C825      1.0  0.63322  0.40105  0.42205  1.0000
  C   C826      1.0  0.64295  0.34207  0.37568  1.0000
  C   C827      1.0  0.57669  0.33513  0.41163  1.0000
  C   C828      1.0  0.58597  0.37101  0.37581  1.0000
  H   H1413     1.0  0.64889  0.35884  0.41683  1.0000
  H   H1414     1.0  0.65014  0.38352  0.39894  1.0000
  H   H1415     1.0  0.61006  0.32282  0.38474  1.0000
  C   C829      1.0  0.98996  0.26372  0.27525  1.0000
  Fe  Fe120     1.0  0.96786  0.01745  0.32328  1.0000
  C   C830      1.0  0.74939  0.49060  0.48150  1.0000
  H   H1416     1.0  0.92846  0.22611  0.31351  1.0000
  C   C831      1.0  0.95982  0.18131  0.29826  1.0000
  C   C832      1.0  0.72726  0.05623  0.38761  1.0000
  H   H1417     1.0  0.97394  0.05320  0.39292  1.0000
  H   H1418     1.0  0.73372  0.05740  0.37372  1.0000
  H   H1419     1.0  0.57372  0.42829  0.29761  1.0000
  H   H1420     1.0  0.98704  0.20439  0.28474  1.0000
  C   C833      1.0  0.64444  0.25846  0.51287  1.0000
  H   H1421     1.0  0.75948  0.02081  0.36880  1.0000
  H   H1422     1.0  0.70197  0.02682  0.36462  1.0000
  H   H1423     1.0  0.54327  0.36517  0.27241  1.0000
  H   H1424     1.0  0.57045  0.33128  0.32094  1.0000
  C   C834      1.0  0.97373  0.37512  0.26949  1.0000
  H   H1425     1.0  0.62501  0.25575  0.51280  1.0000
  N   N60       1.0  0.96767  0.49318  0.38465  1.0000
  C   C835      1.0  0.50365  0.11845  0.27404  1.0000
  H   H1426     1.0  0.68725  0.03762  0.41054  1.0000
  H   H1427     1.0  0.51055  0.10355  0.28382  1.0000
  H   H1428     1.0  0.95835  0.01273  0.41577  1.0000
  H   H1429     1.0  0.98271  0.47567  0.40864  1.0000
  H   H1430     1.0  0.92495  0.19710  0.27802  1.0000
  H   H1431     1.0  0.58160  0.38885  0.26880  1.0000
  C   C836      1.0  0.96989  0.24480  0.26699  1.0000
  C   C837      1.0  0.94217  0.49483  0.39177  1.0000
  H   H1432     1.0  0.98916  0.46649  0.36657  1.0000
  C   C838      1.0  0.59492  0.32003  0.30015  1.0000
  S   S240      1.0  0.91492  0.51074  0.33195  1.0000
  H   H1433     1.0  0.84145  0.07269  0.51646  1.0000
  C   C839      1.0  0.66102  0.33921  0.51490  1.0000
  H   H1434     1.0  0.78005  0.08587  0.51578  1.0000
  H   H1435     1.0  0.90611  0.08784  0.73668  1.0000
  C   C840      1.0  0.77154  0.12648  0.53075  1.0000
  C   C841      1.0  0.67836  0.23076  0.67685  1.0000
  C   C842      1.0  0.77656  0.10150  0.55952  1.0000
  H   H1436     1.0  0.65053  0.37724  0.53026  1.0000
  C   C843      1.0  0.91736  0.02271  0.66014  1.0000
  Fe  Fe121     1.0  0.77090  0.04424  0.60021  1.0000
  S   S241      1.0  0.80886  0.06110  0.60087  1.0000
  S   S242      1.0  0.73640  0.07140  0.60343  1.0000
  Fe  Fe122     1.0  0.78409  0.47872  0.59558  1.0000
  S   S243      1.0  0.82360  0.49061  0.59393  1.0000
  S   S244      1.0  0.77871  0.42938  0.59481  1.0000
  C   C844      1.0  0.51563  0.36173  0.70118  1.0000
  C   C845      1.0  0.89852  0.11777  0.70624  1.0000
  H   H1437     1.0  0.87787  0.06255  0.71745  1.0000
  S   S245      1.0  0.83083  0.05373  0.55174  1.0000
  H   H1438     1.0  0.73797  0.13161  0.56867  1.0000
  Fe  Fe123     1.0  0.98398  0.03843  0.72878  1.0000
  Fe  Fe124     1.0  0.64817  0.25277  0.61589  1.0000
  S   S246      1.0  0.68586  0.26802  0.62227  1.0000
  S   S247      1.0  0.62451  0.23543  0.63842  1.0000
  Fe  Fe125     1.0  0.65800  0.25810  0.57587  1.0000
  S   S248      1.0  0.69602  0.27347  0.57966  1.0000
  S   S249      1.0  0.64036  0.25453  0.54893  1.0000
  Fe  Fe126     1.0  0.69813  0.23815  0.60012  1.0000
  S   S250      1.0  0.73214  0.21008  0.60256  1.0000
  Fe  Fe127     1.0  0.68041  0.30183  0.60131  1.0000
  S   S251      1.0  0.68459  0.35108  0.60419  1.0000
  S   S252      1.0  0.66107  0.22083  0.59491  1.0000
  S   S253      1.0  0.64183  0.28843  0.59635  1.0000
  S   S254      1.0  0.51362  0.25987  0.72382  1.0000
  H   H1439     1.0  0.69360  0.12192  0.66349  1.0000
  H   H1440     1.0  0.72969  0.16226  0.53302  1.0000
  H   H1441     1.0  0.71715  0.12964  0.67842  1.0000
  H   H1442     1.0  0.52709  0.02588  0.72489  1.0000
  S   S255      1.0  0.52687  0.28458  0.67422  1.0000
  H   H1443     1.0  0.94709  0.07030  0.69959  1.0000
  H   H1444     1.0  0.88718  0.12229  0.71816  1.0000
  H   H1445     1.0  0.62800  0.32351  0.56437  1.0000
  H   H1446     1.0  0.94444  0.13698  0.70955  1.0000
  C   C846      1.0  0.71971  0.33532  0.55663  1.0000
  C   C847      1.0  0.59745  0.24969  0.64822  1.0000
  C   C848      1.0  0.58700  0.27605  0.64296  1.0000
  C   C849      1.0  0.56546  0.28633  0.65109  1.0000
  C   C850      1.0  0.55404  0.27041  0.66453  1.0000
  C   C851      1.0  0.56462  0.24420  0.66993  1.0000
  C   C852      1.0  0.58619  0.23396  0.66182  1.0000
  H   H1447     1.0  0.59540  0.28842  0.63254  1.0000
  H   H1448     1.0  0.55746  0.30661  0.64678  1.0000
  H   H1449     1.0  0.55610  0.23169  0.68023  1.0000
  H   H1450     1.0  0.59407  0.21353  0.66600  1.0000
  C   C853      1.0  0.75226  0.40821  0.59768  1.0000
  C   C854      1.0  0.75438  0.37764  0.59707  1.0000
  C   C855      1.0  0.73396  0.35980  0.59927  1.0000
  C   C856      1.0  0.71111  0.37240  0.60201  1.0000
  C   C857      1.0  0.70895  0.40297  0.60252  1.0000
  C   C858      1.0  0.72939  0.42082  0.60037  1.0000
  H   H1451     1.0  0.77201  0.36769  0.59503  1.0000
  H   H1452     1.0  0.73594  0.33635  0.59889  1.0000
  H   H1453     1.0  0.69135  0.41293  0.60464  1.0000
  H   H1454     1.0  0.72750  0.44428  0.60088  1.0000
  C   C859      1.0  0.73565  0.10993  0.60272  1.0000
  C   C860      1.0  0.71339  0.12432  0.60020  1.0000
  C   C861      1.0  0.71213  0.15496  0.59933  1.0000
  C   C862      1.0  0.73304  0.17151  0.60160  1.0000
  C   C863      1.0  0.75531  0.15709  0.60393  1.0000
  C   C864      1.0  0.75665  0.12646  0.60443  1.0000
  H   H1455     1.0  0.69706  0.11169  0.59876  1.0000
  H   H1456     1.0  0.69490  0.16574  0.59734  1.0000
  H   H1457     1.0  0.77159  0.16970  0.60569  1.0000
  H   H1458     1.0  0.77389  0.11566  0.60643  1.0000
  H   H1459     1.0  0.91118  0.47822  0.63728  1.0000
  C   C865      1.0  0.65686  0.25818  0.52900  1.0000
  H   H1460     1.0  0.71031  0.33629  0.56949  1.0000
  H   H1461     1.0  0.69175  0.26127  0.54124  1.0000
  H   H1462     1.0  0.65040  0.17733  0.63564  1.0000
  H   H1463     1.0  0.91942  0.06964  0.68857  1.0000
  S   S256      1.0  0.94800  0.02734  0.66678  1.0000
  C   C866      1.0  0.70792  0.13803  0.66649  1.0000
  H   H1464     1.0  0.67936  0.37905  0.52024  1.0000
  H   H1465     1.0  0.95973  0.11422  0.68502  1.0000
  H   H1466     1.0  0.95640  0.10715  0.72153  1.0000
  H   H1467     1.0  0.51341  0.07688  0.74394  1.0000
  H   H1468     1.0  0.67312  0.22696  0.64889  1.0000
  C   C867      1.0  0.50670  0.13690  0.76232  1.0000
  C   C868      1.0  0.72547  0.07758  0.55498  1.0000
  H   H1469     1.0  0.74064  0.17557  0.63868  1.0000
  C   C869      1.0  0.91425  0.07736  0.72475  1.0000
  H   H1470     1.0  0.80873  0.10993  0.57501  1.0000
  H   H1471     1.0  0.78703  0.47363  0.53906  1.0000
  H   H1472     1.0  0.71725  0.22372  0.64419  1.0000
  C   C870      1.0  0.66733  0.36428  0.52774  1.0000
  H   H1473     1.0  0.72161  0.13765  0.65582  1.0000
  N   N61       1.0  0.55533  0.34207  0.71459  1.0000
  C   C871      1.0  0.56632  0.34208  0.69627  1.0000
  C   C872      1.0  0.52837  0.33853  0.71250  1.0000
  C   C873      1.0  0.56544  0.31590  0.72403  1.0000
  C   C874      1.0  0.56197  0.37009  0.72390  1.0000
  C   C875      1.0  0.82558  0.03732  0.53090  1.0000
  H   H1474     1.0  0.80439  0.09874  0.52954  1.0000
  C   C876      1.0  0.55656  0.31108  0.74305  1.0000
  C   C877      1.0  0.54525  0.38041  0.73925  1.0000
  C   C878      1.0  0.98233  0.10583  0.75739  1.0000
  H   H1475     1.0  0.56005  0.36134  0.68870  1.0000
  C   C879      1.0  0.90220  0.50455  0.58782  1.0000
  H   H1476     1.0  0.52440  0.31701  0.70638  1.0000
  H   H1477     1.0  0.56164  0.29561  0.71633  1.0000
  H   H1478     1.0  0.58545  0.31713  0.72508  1.0000
  H   H1479     1.0  0.58074  0.36863  0.72911  1.0000
  H   H1480     1.0  0.56203  0.38834  0.71431  1.0000
  S   S257      1.0  0.77555  0.01919  0.57476  1.0000
  H   H1481     1.0  0.62710  0.34566  0.54534  1.0000
  H   H1482     1.0  0.51927  0.35787  0.68693  1.0000
  C   C880      1.0  0.67547  0.21180  0.66011  1.0000
  H   H1483     1.0  0.56393  0.28996  0.74775  1.0000
  H   H1484     1.0  0.88150  0.03567  0.62418  1.0000
  C   C881      1.0  0.70337  0.34181  0.54062  1.0000
  H   H1485     1.0  0.72752  0.31301  0.55529  1.0000
  S   S258      1.0  0.94290  0.50171  0.66350  1.0000
  H   H1486     1.0  0.89493  0.03763  0.73030  1.0000
  S   S259      1.0  0.50449  0.18061  0.73761  1.0000
  C   C882      1.0  0.79716  0.12177  0.56549  1.0000
  N   N62       1.0  0.90725  0.43381  0.69753  1.0000
  C   C883      1.0  0.93091  0.44074  0.68859  1.0000
  C   C884      1.0  0.88868  0.45640  0.69231  1.0000
  C   C885      1.0  0.89826  0.40423  0.69195  1.0000
  C   C886      1.0  0.91119  0.43391  0.71718  1.0000
  C   C887      1.0  0.68138  0.38199  0.55643  1.0000
  H   H1487     1.0  0.94381  0.40079  0.75858  1.0000
  C   C888      1.0  0.89661  0.39887  0.67186  1.0000
  C   C889      1.0  0.59422  0.34240  0.69514  1.0000
  H   H1488     1.0  0.92836  0.44417  0.67421  1.0000
  H   H1489     1.0  0.93817  0.46168  0.69367  1.0000
  H   H1490     1.0  0.87013  0.44979  0.69635  1.0000
  H   H1491     1.0  0.88799  0.45847  0.67770  1.0000
  H   H1492     1.0  0.90960  0.38654  0.69766  1.0000
  H   H1493     1.0  0.87974  0.40048  0.69724  1.0000
  H   H1494     1.0  0.92405  0.41628  0.72097  1.0000
  Fe  Fe128     1.0  0.98113  0.48453  0.72277  1.0000
  H   H1495     1.0  0.69514  0.41392  0.53719  1.0000
  C   C890      1.0  0.78916  0.10549  0.52104  1.0000
  C   C891      1.0  0.69971  0.40498  0.55028  1.0000
  Fe  Fe129     1.0  0.50217  0.26642  0.69577  1.0000
  C   C892      1.0  0.88640  0.02882  0.63731  1.0000
  H   H1496     1.0  0.75254  0.07171  0.53512  1.0000
  H   H1497     1.0  0.88943  0.37666  0.66947  1.0000
  H   H1498     1.0  0.91452  0.39973  0.66523  1.0000
  H   H1499     1.0  0.88397  0.41436  0.66548  1.0000
  H   H1500     1.0  0.88171  0.08133  0.69035  1.0000
  H   H1501     1.0  0.89176  0.48892  0.71403  1.0000
  C   C893      1.0  0.90186  0.49658  0.64334  1.0000
  H   H1502     1.0  0.80918  0.12800  0.55443  1.0000
  H   H1503     1.0  0.53221  0.39723  0.73469  1.0000
  H   H1504     1.0  0.66095  0.24238  0.67950  1.0000
  H   H1505     1.0  0.75710  0.20437  0.64846  1.0000
  H   H1506     1.0  0.76718  0.09455  0.57178  1.0000
  H   H1507     1.0  0.69058  0.19316  0.62794  1.0000
  H   H1508     1.0  0.72269  0.21888  0.66710  1.0000
  H   H1509     1.0  0.68260  0.21768  0.68866  1.0000
  H   H1510     1.0  0.53665  0.30960  0.74413  1.0000
  H   H1511     1.0  0.96722  0.42488  0.68272  1.0000
  C   C894      1.0  0.89631  0.05350  0.71936  1.0000
  H   H1512     1.0  0.70937  0.13586  0.54272  1.0000
  C   C895      1.0  0.69660  0.16825  0.67090  1.0000
  H   H1513     1.0  0.78492  0.08123  0.55404  1.0000
  H   H1514     1.0  0.94567  0.09204  0.66872  1.0000
  H   H1515     1.0  0.86990  0.49197  0.62712  1.0000
  C   C896      1.0  0.66531  0.16117  0.63705  1.0000
  H   H1516     1.0  0.81385  0.46595  0.52687  1.0000
  N   N63       1.0  0.69552  0.19010  0.65615  1.0000
  H   H1517     1.0  0.74712  0.17548  0.66218  1.0000
  H   H1518     1.0  0.70113  0.32083  0.53338  1.0000
  C   C897      1.0  0.71880  0.20689  0.65467  1.0000
  C   C898      1.0  0.91054  0.03140  0.64310  1.0000
  H   H1519     1.0  0.89374  0.43026  0.74277  1.0000
  H   H1520     1.0  0.70387  0.16014  0.63452  1.0000
  H   H1521     1.0  0.66149  0.14695  0.64843  1.0000
  H   H1522     1.0  0.75726  0.15718  0.55893  1.0000
  H   H1523     1.0  0.59972  0.34672  0.68129  1.0000
  H   H1524     1.0  0.71520  0.16948  0.55369  1.0000
  H   H1525     1.0  0.68633  0.37596  0.57006  1.0000
  H   H1526     1.0  0.65778  0.20065  0.66166  1.0000
  H   H1527     1.0  0.52082  0.38419  0.70491  1.0000
  H   H1528     1.0  0.94642  0.15157  0.73952  1.0000
  H   H1529     1.0  0.54622  0.05341  0.75440  1.0000
  H   H1530     1.0  0.60224  0.35967  0.70351  1.0000
  C   C899      1.0  0.87849  0.50438  0.63750  1.0000
  C   C900      1.0  0.93214  0.13554  0.73619  1.0000
  H   H1531     1.0  0.56035  0.32273  0.68858  1.0000
  H   H1532     1.0  0.91994  0.45451  0.72149  1.0000
  H   H1533     1.0  0.96409  0.50914  0.75540  1.0000
  H   H1534     1.0  0.92195  0.50813  0.58655  1.0000
  H   H1535     1.0  0.55636  0.39153  0.74941  1.0000
  H   H1536     1.0  0.93099  0.06614  0.72931  1.0000
  H   H1537     1.0  0.67148  0.32840  0.56753  1.0000
  H   H1538     1.0  0.86280  0.11196  0.69475  1.0000
  H   H1539     1.0  0.51869  0.33807  0.72530  1.0000
  Fe  Fe130     1.0  0.81403  0.03375  0.57616  1.0000
  Fe  Fe131     1.0  0.96876  0.01644  0.69199  1.0000
  C   C901      1.0  0.68196  0.26163  0.52895  1.0000
  H   H1540     1.0  0.95785  0.41726  0.70468  1.0000
  H   H1541     1.0  0.53536  0.36309  0.74617  1.0000
  N   N64       1.0  0.50296  0.01774  0.74690  1.0000
  H   H1542     1.0  0.66365  0.39347  0.55787  1.0000
  H   H1543     1.0  0.56348  0.32811  0.75213  1.0000
  H   H1544     1.0  0.66413  0.31195  0.54730  1.0000
  H   H1545     1.0  0.73036  0.09804  0.52964  1.0000
  H   H1546     1.0  0.87480  0.44728  0.72682  1.0000
  H   H1547     1.0  0.90434  0.13946  0.70136  1.0000
  C   C902      1.0  0.66386  0.33323  0.55435  1.0000
  N   N65       1.0  0.92046  0.09973  0.71102  1.0000
  H   H1548     1.0  0.71329  0.06139  0.54877  1.0000
  C   C903      1.0  0.93197  0.08466  0.69529  1.0000
  C   C904      1.0  0.95149  0.41813  0.69085  1.0000
  H   H1549     1.0  0.60213  0.32083  0.69844  1.0000
  H   H1550     1.0  0.89672  0.50352  0.60184  1.0000
  H   H1551     1.0  0.91006  0.49657  0.69481  1.0000
  C   C905      1.0  0.97871  0.41789  0.75137  1.0000
  H   H1552     1.0  0.69214  0.24791  0.67494  1.0000
  C   C906      1.0  0.88838  0.42969  0.72867  1.0000
  H   H1553     1.0  0.90242  0.04087  0.70764  1.0000
  C   C907      1.0  0.93935  0.11953  0.71892  1.0000
  H   H1554     1.0  0.49574  0.35990  0.70298  1.0000
  C   C908      1.0  0.63717  0.34185  0.55769  1.0000
  H   H1555     1.0  0.71376  0.09410  0.56159  1.0000
  H   H1556     1.0  0.73607  0.06566  0.56500  1.0000
  H   H1557     1.0  0.66518  0.14738  0.62493  1.0000
  H   H1558     1.0  0.79027  0.14160  0.57234  1.0000
  H   H1559     1.0  0.73537  0.35032  0.55699  1.0000
  H   H1560     1.0  0.63553  0.36105  0.56661  1.0000
  H   H1561     1.0  0.70655  0.17748  0.68236  1.0000
  C   C909      1.0  0.50954  0.06721  0.73090  1.0000
  Fe  Fe132     1.0  0.81849  0.02013  0.61569  1.0000
  H   H1562     1.0  0.71375  0.35597  0.53150  1.0000
  H   H1563     1.0  0.53605  0.23803  0.75957  1.0000
  S   S260      1.0  0.96575  0.44828  0.74017  1.0000
  C   C910      1.0  0.89270  0.48753  0.69946  1.0000
  C   C911      1.0  0.88176  0.10530  0.69174  1.0000
  N   N66       1.0  0.75880  0.11431  0.54666  1.0000
  H   H1564     1.0  0.49584  0.02789  0.71964  1.0000
  C   C912      1.0  0.74203  0.09052  0.54063  1.0000
  H   H1565     1.0  0.89864  0.48266  0.58207  1.0000
  C   C913      1.0  0.74507  0.13874  0.55574  1.0000
  H   H1566     1.0  0.69934  0.42349  0.55984  1.0000
  H   H1567     1.0  0.52606  0.14014  0.76170  1.0000
  H   H1568     1.0  0.88599  0.11512  0.67876  1.0000
  H   H1569     1.0  0.93122  0.12042  0.74749  1.0000
  S   S261      1.0  0.97296  0.07003  0.75120  1.0000
  C   C914      1.0  0.94212  0.10493  0.68095  1.0000
  H   H1570     1.0  0.91488  0.14780  0.73501  1.0000
  H   H1571     1.0  0.92935  0.12271  0.67758  1.0000
  H   H1572     1.0  0.67795  0.16371  0.67578  1.0000
  N   N67       1.0  0.67901  0.35533  0.54480  1.0000
  H   H1573     1.0  0.87982  0.40830  0.72622  1.0000
  C   C915      1.0  0.74196  0.18907  0.65077  1.0000
  C   C916      1.0  0.69001  0.17640  0.63849  1.0000
  C   C917      1.0  0.72371  0.15199  0.54545  1.0000
  H   H1574     1.0  0.94655  0.39603  0.68626  1.0000
  H   H1575     1.0  0.78181  0.14643  0.53431  1.0000
  C   C918      1.0  0.50919  0.03345  0.73006  1.0000
  H   H1576     1.0  0.87820  0.50203  0.69434  1.0000
  H   H1577     1.0  0.92404  0.04020  0.63429  1.0000
  H   H1578     1.0  0.71853  0.39647  0.55020  1.0000
  H   H1579     1.0  0.64831  0.32337  0.52072  1.0000
  H   H1580     1.0  0.49795  0.51038  0.75508  1.0000
  C   C919      1.0  0.52511  0.01346  0.75816  1.0000
  H   H1581     1.0  0.78982  0.43915  0.52802  1.0000
  C   C920      1.0  0.79397  0.46263  0.52691  1.0000
  C   C921      1.0  0.96319  0.39797  0.75967  1.0000
  H   H1582     1.0  0.52382  0.07521  0.72182  1.0000
  H   H1583     1.0  0.75819  0.13359  0.52072  1.0000
  C   C922      1.0  0.86865  0.01782  0.64859  1.0000
  S   S262      1.0  0.77324  0.50828  0.57345  1.0000
  S   S263      1.0  0.83769  0.01512  0.64234  1.0000
  C   C923      1.0  0.53750  0.04109  0.76518  1.0000
  S   S264      1.0  0.99357  0.47944  0.69459  1.0000
  C   C924      1.0  0.89967  0.01133  0.67136  1.0000
  H   H1584     1.0  0.96028  0.35947  0.77594  1.0000
  Fe  Fe133     1.0  0.95586  0.26796  0.81820  1.0000
  H   H1585     1.0  0.56209  0.04326  0.91110  1.0000
  S   S265      1.0  0.91590  0.27046  0.82649  1.0000
  S   S266      1.0  0.67557  0.49628  0.90437  1.0000
  H   H1586     1.0  0.55224  0.03445  0.77425  1.0000
  S   S267      1.0  0.96586  0.27189  0.78922  1.0000
  H   H1587     1.0  0.95463  0.50634  0.80332  1.0000
  Fe  Fe134     1.0  0.82958  0.24865  0.91063  1.0000
  S   S268      1.0  0.79927  0.26280  0.89307  1.0000
  S   S269      1.0  0.86926  0.24417  0.90207  1.0000
  Fe  Fe135     1.0  0.79606  0.24709  0.94344  1.0000
  S   S270      1.0  0.76362  0.26143  0.92789  1.0000
  S   S271      1.0  0.78703  0.23656  0.97193  1.0000
  Fe  Fe136     1.0  0.77703  0.22925  0.90750  1.0000
  S   S272      1.0  0.75234  0.19782  0.89299  1.0000
  Fe  Fe137     1.0  0.78862  0.29349  0.91523  1.0000
  S   S273      1.0  0.78484  0.34269  0.91216  1.0000
  S   S274      1.0  0.80813  0.21296  0.92365  1.0000
  S   S275      1.0  0.82026  0.28115  0.93216  1.0000
  Fe  Fe138     1.0  0.68514  0.46715  0.92718  1.0000
  S   S276      1.0  0.65305  0.48161  0.94371  1.0000
  S   S277      1.0  0.68856  0.41770  0.92479  1.0000
  Fe  Fe139     1.0  0.68942  0.04740  0.92634  1.0000
  S   S278      1.0  0.64969  0.03735  0.92974  1.0000
  S   S279      1.0  0.70727  0.09023  0.93396  1.0000
  H   H1588     1.0  0.80391  0.10800  0.90886  1.0000
  S   S280      1.0  0.55401  0.50781  0.83735  1.0000
  C   C925      1.0  0.52578  0.24556  0.77143  1.0000
  H   H1589     1.0  0.72939  0.37607  0.99667  1.0000
  C   C926      1.0  0.97246  0.37448  0.76958  1.0000
  H   H1590     1.0  0.84170  0.29926  0.00666  1.0000
  C   C927      1.0  0.82696  0.28391  0.00694  1.0000
  C   C928      1.0  0.50338  0.22603  0.77360  1.0000
  C   C929      1.0  0.97786  0.14799  0.77746  1.0000
  S   S281      1.0  0.69537  0.01596  0.90365  1.0000
  H   H1591     1.0  0.51521  0.24880  0.80747  1.0000
  H   H1592     1.0  0.70860  0.31932  0.95932  1.0000
  H   H1593     1.0  0.82890  0.06896  0.90087  1.0000
  H   H1594     1.0  0.97567  0.46404  0.80209  1.0000
  C   C930      1.0  0.57221  0.04103  0.87468  1.0000
  Fe  Fe140     1.0  0.50261  0.01967  0.83558  1.0000
  H   H1595     1.0  0.95875  0.10738  0.78015  1.0000
  H   H1596     1.0  0.52557  0.02454  0.90343  1.0000
  H   H1597     1.0  0.78835  0.12721  0.92588  1.0000
  C   C931      1.0  0.69393  0.01540  0.01078  1.0000
  H   H1598     1.0  0.69043  0.01701  0.98257  1.0000
  H   H1599     1.0  0.73640  0.35801  0.95824  1.0000
  C   C932      1.0  0.51805  0.20176  0.80843  1.0000
  S   S282      1.0  0.98387  0.30025  0.82717  1.0000
  H   H1600     1.0  0.53213  0.19924  0.79804  1.0000
  H   H1601     1.0  0.50920  0.10289  0.78190  1.0000
  C   C933      1.0  0.79938  0.25182  0.99136  1.0000
  C   C934      1.0  0.81853  0.27156  0.99104  1.0000
  H   H1602     1.0  0.63260  0.43963  0.86008  1.0000
  H   H1603     1.0  0.82673  0.27739  0.97859  1.0000
  H   H1604     1.0  0.80416  0.07314  0.88582  1.0000
  C   C935      1.0  0.73904  0.16849  0.90446  1.0000
  C   C936      1.0  0.72587  0.14733  0.89512  1.0000
  C   C937      1.0  0.71562  0.12338  0.90389  1.0000
  C   C938      1.0  0.71844  0.12048  0.92211  1.0000
  C   C939      1.0  0.73132  0.14186  0.93144  1.0000
  C   C940      1.0  0.74165  0.16566  0.92269  1.0000
  H   H1605     1.0  0.72369  0.14946  0.88102  1.0000
  H   H1606     1.0  0.70555  0.10725  0.89657  1.0000
  H   H1607     1.0  0.73357  0.13987  0.94554  1.0000
  H   H1608     1.0  0.75169  0.18180  0.93004  1.0000
  C   C941      1.0  0.71571  0.39731  0.92190  1.0000
  C   C942      1.0  0.71454  0.36672  0.92129  1.0000
  C   C943      1.0  0.73557  0.34966  0.91850  1.0000
  C   C944      1.0  0.75798  0.36309  0.91628  1.0000
  C   C945      1.0  0.75919  0.39365  0.91710  1.0000
  C   C946      1.0  0.73817  0.41072  0.91995  1.0000
  H   H1609     1.0  0.69723  0.35615  0.92272  1.0000
  H   H1610     1.0  0.73436  0.32619  0.91763  1.0000
  H   H1611     1.0  0.77644  0.40424  0.91536  1.0000
  H   H1612     1.0  0.73932  0.43423  0.92038  1.0000
  C   C947      1.0  0.90327  0.26074  0.84726  1.0000
  C   C948      1.0  0.87792  0.26043  0.84935  1.0000
  C   C949      1.0  0.86716  0.25468  0.86589  1.0000
  C   C950      1.0  0.88167  0.24907  0.88056  1.0000
  C   C951      1.0  0.90699  0.24880  0.87838  1.0000
  C   C952      1.0  0.91774  0.25468  0.86187  1.0000
  H   H1613     1.0  0.86654  0.26499  0.83814  1.0000
  H   H1614     1.0  0.84767  0.25478  0.86731  1.0000
  H   H1615     1.0  0.91840  0.24442  0.88960  1.0000
  H   H1616     1.0  0.93724  0.25480  0.86049  1.0000
  H   H1617     1.0  0.73136  0.30060  0.94628  1.0000
  C   C953      1.0  0.64619  0.44264  0.87063  1.0000
  H   H1618     1.0  0.64371  0.46396  0.87732  1.0000
  H   H1619     1.0  0.69945  0.43914  0.00908  1.0000
  H   H1620     1.0  0.96948  0.15798  0.78897  1.0000
  H   H1621     1.0  0.74585  0.01956  0.88877  1.0000
  H   H1622     1.0  0.70937  0.37918  0.97799  1.0000
  H   H1623     1.0  0.94564  0.49540  0.77254  1.0000
  S   S283      1.0  0.50826  0.02255  0.80614  1.0000
  N   N68       1.0  0.87313  0.33890  0.88884  1.0000
  C   C954      1.0  0.89036  0.32372  0.90123  1.0000
  C   C955      1.0  0.88329  0.33505  0.87044  1.0000
  C   C956      1.0  0.84872  0.32440  0.89028  1.0000
  C   C957      1.0  0.87141  0.37044  0.89445  1.0000
  C   C958      1.0  0.88169  0.32058  0.92050  1.0000
  C   C959      1.0  0.90846  0.34818  0.86708  1.0000
  C   C960      1.0  0.83151  0.32722  0.87442  1.0000
  C   C961      1.0  0.85671  0.39111  0.88264  1.0000
  H   H1624     1.0  0.89472  0.30135  0.89634  1.0000
  H   H1625     1.0  0.90798  0.33518  0.90188  1.0000
  H   H1626     1.0  0.87117  0.34408  0.86024  1.0000
  H   H1627     1.0  0.88470  0.31150  0.86711  1.0000
  H   H1628     1.0  0.85096  0.30052  0.89219  1.0000
  H   H1629     1.0  0.83863  0.33242  0.90217  1.0000
  H   H1630     1.0  0.86276  0.37234  0.90770  1.0000
  H   H1631     1.0  0.88962  0.38005  0.89651  1.0000
  H   H1632     1.0  0.86546  0.30672  0.92146  1.0000
  H   H1633     1.0  0.89607  0.30931  0.92809  1.0000
  H   H1634     1.0  0.87824  0.34186  0.92706  1.0000
  H   H1635     1.0  0.90883  0.37186  0.86998  1.0000
  H   H1636     1.0  0.92280  0.33663  0.87451  1.0000
  H   H1637     1.0  0.91314  0.34519  0.85289  1.0000
  H   H1638     1.0  0.81331  0.31937  0.87830  1.0000
  H   H1639     1.0  0.83776  0.31325  0.86322  1.0000
  H   H1640     1.0  0.82902  0.34980  0.86991  1.0000
  H   H1641     1.0  0.83721  0.39086  0.88633  1.0000
  H   H1642     1.0  0.85881  0.38651  0.86839  1.0000
  H   H1643     1.0  0.86350  0.41365  0.88439  1.0000
  N   N69       1.0  0.62423  0.41380  0.89524  1.0000
  C   C962      1.0  0.62882  0.38822  0.90724  1.0000
  C   C963      1.0  0.62168  0.44049  0.90687  1.0000
  C   C964      1.0  0.64622  0.41696  0.88352  1.0000
  C   C965      1.0  0.60183  0.40774  0.88452  1.0000
  C   C966      1.0  0.63573  0.35911  0.89812  1.0000
  C   C967      1.0  0.60173  0.43914  0.92115  1.0000
  H   H1644     1.0  0.77280  0.03124  0.87722  1.0000
  C   C968      1.0  0.58797  0.43443  0.87718  1.0000
  H   H1645     1.0  0.64347  0.39323  0.91679  1.0000
  H   H1646     1.0  0.61258  0.38363  0.91548  1.0000
  H   H1647     1.0  0.61821  0.46047  0.89923  1.0000
  H   H1648     1.0  0.63905  0.44480  0.91374  1.0000
  H   H1649     1.0  0.52059  0.26858  0.76908  1.0000
  C   C969      1.0  0.75685  0.32041  0.00942  1.0000
  H   H1650     1.0  0.60627  0.39301  0.87319  1.0000
  H   H1651     1.0  0.58834  0.39592  0.89270  1.0000
  H   H1652     1.0  0.62327  0.35345  0.88725  1.0000
  H   H1653     1.0  0.65471  0.35939  0.89321  1.0000
  H   H1654     1.0  0.63483  0.34134  0.90795  1.0000
  H   H1655     1.0  0.59882  0.46125  0.92690  1.0000
  H   H1656     1.0  0.58419  0.43181  0.91580  1.0000
  H   H1657     1.0  0.60728  0.42491  0.93220  1.0000
  H   H1658     1.0  0.80938  0.03846  0.91960  1.0000
  H   H1659     1.0  0.57971  0.42841  0.86435  1.0000
  H   H1660     1.0  0.59912  0.45370  0.87467  1.0000
  H   H1661     1.0  0.57253  0.44065  0.88591  1.0000
  H   H1662     1.0  0.66412  0.44339  0.86394  1.0000
  H   H1663     1.0  0.60492  0.04512  0.89014  1.0000
  H   H1664     1.0  0.50967  0.20295  0.77306  1.0000
  H   H1665     1.0  0.77740  0.35171  0.99478  1.0000
  H   H1666     1.0  0.75790  0.01264  0.91584  1.0000
  S   S284      1.0  0.52955  0.03619  0.85633  1.0000
  C   C970      1.0  0.78909  0.24420  0.00763  1.0000
  H   H1667     1.0  0.66285  0.41890  0.89169  1.0000
  H   H1668     1.0  0.76885  0.04425  0.95082  1.0000
  N   N70       1.0  0.75623  0.32823  0.97525  1.0000
  C   C971      1.0  0.77441  0.32345  0.96052  1.0000
  C   C972      1.0  0.73928  0.30259  0.97493  1.0000
  C   C973      1.0  0.77011  0.32948  0.99240  1.0000
  C   C974      1.0  0.74323  0.35665  0.97202  1.0000
  C   C975      1.0  0.79476  0.34623  0.95915  1.0000
  H   H1669     1.0  0.71141  0.28053  0.95989  1.0000
  H   H1670     1.0  0.96404  0.45594  0.78031  1.0000
  C   C976      1.0  0.59452  0.03118  0.88153  1.0000
  H   H1671     1.0  0.78337  0.30169  0.96176  1.0000
  H   H1672     1.0  0.76551  0.32321  0.94745  1.0000
  H   H1673     1.0  0.72743  0.30194  0.98673  1.0000
  H   H1674     1.0  0.74978  0.28175  0.97531  1.0000
  H   H1675     1.0  0.78630  0.31499  0.99174  1.0000
  H   H1676     1.0  0.75379  0.29651  0.00953  1.0000
  H   H1677     1.0  0.53832  0.24419  0.78272  1.0000
  S   S285      1.0  0.71050  0.49945  0.93945  1.0000
  H   H1678     1.0  0.80769  0.33918  0.94866  1.0000
  H   H1679     1.0  0.78768  0.36780  0.95507  1.0000
  H   H1680     1.0  0.80536  0.34829  0.97145  1.0000
  H   H1681     1.0  0.64898  0.39730  0.87507  1.0000
  H   H1682     1.0  0.71163  0.34567  0.98894  1.0000
  C   C977      1.0  0.49722  0.11561  0.77373  1.0000
  H   H1683     1.0  0.60391  0.50748  0.84749  1.0000
  S   S286      1.0  0.97969  0.22865  0.82219  1.0000
  H   H1684     1.0  0.52768  0.20275  0.82124  1.0000
  C   C978      1.0  0.58235  0.05569  0.93338  1.0000
  H   H1685     1.0  0.65022  0.48581  0.98963  1.0000
  C   C979      1.0  0.72186  0.30105  0.95912  1.0000
  N   N71       1.0  0.77408  0.05541  0.91270  1.0000
  C   C980      1.0  0.50283  0.22988  0.80630  1.0000
  C   C981      1.0  0.75896  0.06318  0.89688  1.0000
  C   C982      1.0  0.77769  0.08190  0.92433  1.0000
  C   C983      1.0  0.79796  0.04141  0.90771  1.0000
  C   C984      1.0  0.76977  0.02554  0.94147  1.0000
  H   H1686     1.0  0.50666  0.18200  0.80871  1.0000
  C   C985      1.0  0.78616  0.11022  0.91549  1.0000
  C   C986      1.0  0.81393  0.05739  0.89413  1.0000
  H   H1687     1.0  0.74086  0.04166  0.92545  1.0000
  C   C987      1.0  0.65615  0.49517  0.00199  1.0000
  H   H1688     1.0  0.76635  0.08176  0.88946  1.0000
  H   H1689     1.0  0.74067  0.07081  0.90122  1.0000
  H   H1690     1.0  0.76053  0.08763  0.93138  1.0000
  H   H1691     1.0  0.79112  0.07719  0.93482  1.0000
  H   H1692     1.0  0.79532  0.01874  0.90271  1.0000
  H   H1693     1.0  0.75602  0.37517  0.97284  1.0000
  C   C988      1.0  0.75540  0.03851  0.88321  1.0000
  Fe  Fe141     1.0  0.51500  0.51090  0.82683  1.0000
  H   H1694     1.0  0.74393  0.04686  0.87235  1.0000
  C   C989      1.0  0.75970  0.03359  0.92318  1.0000
  H   H1695     1.0  0.78841  0.01658  0.94070  1.0000
  H   H1696     1.0  0.77442  0.22875  0.00800  1.0000
  H   H1697     1.0  0.56559  0.06259  0.87813  1.0000
  H   H1698     1.0  0.77254  0.11917  0.90630  1.0000
  C   C990      1.0  0.55835  0.02324  0.86345  1.0000
  C   C991      1.0  0.72241  0.36462  0.98482  1.0000
  H   H1699     1.0  0.52516  0.05528  0.77301  1.0000
  S   S287      1.0  0.70083  0.01442  0.94637  1.0000
  H   H1700     1.0  0.56013  0.02799  0.96316  1.0000
  C   C992      1.0  0.98029  0.46206  0.78790  1.0000
  H   H1701     1.0  0.71199  0.02425  0.01064  1.0000
  H   H1702     1.0  0.82217  0.04124  0.88484  1.0000
  H   H1703     1.0  0.57676  0.07899  0.93345  1.0000
  C   C993      1.0  0.97184  0.11923  0.77242  1.0000
  H   H1704     1.0  0.73956  0.33222  0.01152  1.0000
  C   C994      1.0  0.68177  0.01109  0.99477  1.0000
  H   H1705     1.0  0.59893  0.05404  0.92509  1.0000
  H   H1706     1.0  0.54437  0.04569  0.93056  1.0000
  C   C995      1.0  0.59338  0.51070  0.85944  1.0000
  Fe  Fe142     1.0  0.99184  0.23457  0.79402  1.0000
  C   C996      1.0  0.56194  0.03718  0.92528  1.0000
  H   H1707     1.0  0.58697  0.04983  0.94705  1.0000
  H   H1708     1.0  0.99310  0.44335  0.78667  1.0000
  C   C997      1.0  0.99276  0.48958  0.78072  1.0000
  H   H1709     1.0  0.70677  0.11606  0.01647  1.0000
  H   H1710     1.0  0.67185  0.08956  0.01603  1.0000
  C   C998      1.0  0.98099  0.54639  0.24343  1.0000
  Fe  Fe143     1.0  0.96043  0.78031  0.19631  1.0000
  N   N72       1.0  0.53268  0.62378  0.21421  1.0000
  S   S288      1.0  0.92539  0.79560  0.18312  1.0000
  H   H1711     1.0  0.80077  0.82769  0.12359  1.0000
  H   H1712     1.0  0.79465  0.86387  0.13208  1.0000
  S   S289      1.0  0.95511  0.77095  0.22518  1.0000
  H   H1713     1.0  0.86817  0.80765  0.08745  1.0000
  C   C999      1.0  0.54939  0.58668  0.23715  1.0000
  H   H1714     1.0  0.82383  0.90562  0.13223  1.0000
  H   H1715     1.0  0.80760  0.91440  0.11293  1.0000
  H   H1716     1.0  0.79671  0.64565  0.08589  1.0000
  H   H1717     1.0  0.79707  0.83382  0.14677  1.0000
  C   C1000     1.0  0.97546  0.66333  0.24650  1.0000
  H   H1718     1.0  0.83936  0.92329  0.11445  1.0000
  H   H1719     1.0  0.55937  0.60671  0.18216  1.0000
  Fe  Fe144     1.0  0.83524  0.74927  0.10351  1.0000
  S   S290      1.0  0.80134  0.76406  0.11760  1.0000
  S   S291      1.0  0.87444  0.74891  0.11316  1.0000
  Fe  Fe145     1.0  0.80707  0.73189  0.06978  1.0000
  S   S292      1.0  0.77114  0.74524  0.08144  1.0000
  S   S293      1.0  0.81101  0.71000  0.04290  1.0000
  Fe  Fe146     1.0  0.79075  0.78483  0.09180  1.0000
  S   S294      1.0  0.78057  0.83182  0.08511  1.0000
  Fe  Fe147     1.0  0.78452  0.72326  0.10603  1.0000
  S   S295      1.0  0.76513  0.68996  0.12296  1.0000
  S   S296      1.0  0.82594  0.77239  0.07837  1.0000
  S   S297      1.0  0.81920  0.70737  0.09369  1.0000
  H   H1720     1.0  0.58447  0.92431  0.11240  1.0000
  C   C1001     1.0  0.57674  0.00188  0.13939  1.0000
  H   H1721     1.0  0.76166  0.61429  0.09227  1.0000
  H   H1722     1.0  0.60916  0.54878  0.14155  1.0000
  C   C1002     1.0  0.59840  0.53502  0.14998  1.0000
  H   H1723     1.0  0.89212  0.82916  0.12758  1.0000
  Fe  Fe148     1.0  0.70436  0.97577  0.10844  1.0000
  S   S298      1.0  0.72096  0.93583  0.12171  1.0000
  Fe  Fe149     1.0  0.68475  0.55044  0.09863  1.0000
  S   S299      1.0  0.69270  0.59698  0.09028  1.0000
  S   S300      1.0  0.67271  0.97185  0.09006  1.0000
  S   S301      1.0  0.64615  0.53492  0.09678  1.0000
  C   C1003     1.0  0.74490  0.66426  0.11384  1.0000
  C   C1004     1.0  0.73907  0.63912  0.12342  1.0000
  C   C1005     1.0  0.72307  0.61822  0.11647  1.0000
  C   C1006     1.0  0.71233  0.62271  0.10005  1.0000
  C   C1007     1.0  0.71786  0.64809  0.09065  1.0000
  C   C1008     1.0  0.73433  0.66854  0.09736  1.0000
  H   H1724     1.0  0.74707  0.63575  0.13623  1.0000
  H   H1725     1.0  0.71888  0.59885  0.12388  1.0000
  H   H1726     1.0  0.70951  0.65183  0.07800  1.0000
  H   H1727     1.0  0.73851  0.68789  0.08994  1.0000
  C   C1009     1.0  0.76224  0.85939  0.09514  1.0000
  C   C1010     1.0  0.75902  0.88586  0.08620  1.0000
  C   C1011     1.0  0.74577  0.90910  0.09390  1.0000
  C   C1012     1.0  0.73599  0.90635  0.11083  1.0000
  C   C1013     1.0  0.73904  0.87981  0.11976  1.0000
  C   C1014     1.0  0.75181  0.85629  0.11186  1.0000
  H   H1728     1.0  0.76697  0.88847  0.07324  1.0000
  H   H1729     1.0  0.74364  0.92940  0.08691  1.0000
  H   H1730     1.0  0.73155  0.87747  0.13287  1.0000
  H   H1731     1.0  0.75395  0.83600  0.11884  1.0000
  H   H1732     1.0  0.56705  0.59746  0.23587  1.0000
  Fe  Fe150     1.0  0.98883  0.79712  0.22956  1.0000
  S   S302      1.0  0.61496  0.00143  0.11577  1.0000
  H   H1733     1.0  0.86654  0.88875  0.13344  1.0000
  H   H1734     1.0  0.67672  0.52956  0.04636  1.0000
  H   H1735     1.0  0.59455  0.51592  0.09062  1.0000
  C   C1015     1.0  0.81067  0.73210  0.02395  1.0000
  H   H1736     1.0  0.75520  0.53180  0.10736  1.0000
  H   H1737     1.0  0.97583  0.52825  0.23454  1.0000
  H   H1738     1.0  0.80289  0.77210  0.03796  1.0000
  H   H1739     1.0  0.90378  0.86085  0.13815  1.0000
  C   C1016     1.0  0.54166  0.65820  0.24094  1.0000
  H   H1740     1.0  0.83954  0.82861  0.14291  1.0000
  H   H1741     1.0  0.87901  0.84242  0.14811  1.0000
  H   H1742     1.0  0.95766  0.67984  0.16330  1.0000
  H   H1743     1.0  0.83388  0.86580  0.14696  1.0000
  H   H1744     1.0  0.94471  0.71486  0.16786  1.0000
  H   H1745     1.0  0.83149  0.81980  0.10473  1.0000
  H   H1746     1.0  0.54641  0.99986  0.15760  1.0000
  H   H1747     1.0  0.85636  0.81017  0.11793  1.0000
  H   H1748     1.0  0.79624  0.58194  0.05235  1.0000
  H   H1749     1.0  0.88438  0.83718  0.09651  1.0000
  H   H1750     1.0  0.85798  0.84368  0.08282  1.0000
  H   H1751     1.0  0.81501  0.86754  0.10351  1.0000
  H   H1752     1.0  0.84242  0.88247  0.09679  1.0000
  C   C1017     1.0  0.91135  0.78105  0.16402  1.0000
  C   C1018     1.0  0.92469  0.76731  0.15057  1.0000
  C   C1019     1.0  0.91299  0.75737  0.13522  1.0000
  C   C1020     1.0  0.88783  0.76075  0.13317  1.0000
  C   C1021     1.0  0.87437  0.77383  0.14683  1.0000
  C   C1022     1.0  0.88614  0.78420  0.16208  1.0000
  H   H1753     1.0  0.94411  0.76503  0.15178  1.0000
  H   H1754     1.0  0.92357  0.74732  0.12472  1.0000
  H   H1755     1.0  0.85498  0.77622  0.14554  1.0000
  H   H1756     1.0  0.87566  0.79477  0.17244  1.0000
  H   H1757     1.0  0.94132  0.94933  0.25251  1.0000
  H   H1758     1.0  0.76005  0.60885  0.05092  1.0000
  C   C1023     1.0  0.52387  0.64736  0.22679  1.0000
  H   H1759     1.0  0.65097  0.99128  0.03924  1.0000
  H   H1760     1.0  0.51836  0.66718  0.21937  1.0000
  H   H1761     1.0  0.73632  0.56510  0.08619  1.0000
  H   H1762     1.0  0.80591  0.62309  0.06772  1.0000
  C   C1024     1.0  0.55782  0.63058  0.20764  1.0000
  S   S303      1.0  0.50942  0.52088  0.22683  1.0000
  H   H1763     1.0  0.53228  0.57649  0.21240  1.0000
  Fe  Fe151     1.0  0.65478  0.00605  0.10758  1.0000
  C   C1025     1.0  0.56918  0.60791  0.19485  1.0000
  C   C1026     1.0  0.58414  0.51664  0.10324  1.0000
  C   C1027     1.0  0.65962  0.99677  0.02689  1.0000
  C   C1028     1.0  0.51041  0.90022  0.25401  1.0000
  H   H1764     1.0  0.74902  0.55916  0.03945  1.0000
  H   H1765     1.0  0.57085  0.63325  0.21855  1.0000
  H   H1766     1.0  0.55786  0.65205  0.20089  1.0000
  C   C1029     1.0  0.80588  0.76199  0.02517  1.0000
  H   H1767     1.0  0.52247  0.91698  0.24940  1.0000
  H   H1768     1.0  0.90777  0.68389  0.22660  1.0000
  H   H1769     1.0  0.78962  0.59706  0.09514  1.0000
  H   H1770     1.0  0.90913  0.89606  0.26478  1.0000
  H   H1771     1.0  0.58917  0.90624  0.13287  1.0000
  Fe  Fe152     1.0  0.50870  0.52179  0.19707  1.0000
  H   H1772     1.0  0.54163  0.59157  0.25039  1.0000
  H   H1773     1.0  0.58800  0.61442  0.19165  1.0000
  H   H1774     1.0  0.57025  0.58591  0.20074  1.0000
  H   H1775     1.0  0.88208  0.75042  0.19819  1.0000
  H   H1776     1.0  0.77447  0.66975  0.01754  1.0000
  N   N73       1.0  0.76858  0.58054  0.07294  1.0000
  H   H1777     1.0  0.76057  0.70021  0.02931  1.0000
  C   C1030     1.0  0.76533  0.55064  0.10201  1.0000
  C   C1031     1.0  0.98911  0.91546  0.24563  1.0000
  C   C1032     1.0  0.96258  0.63758  0.24993  1.0000
  C   C1033     1.0  0.75532  0.55794  0.08362  1.0000
  H   H1778     1.0  0.98529  0.93002  0.23484  1.0000
  H   H1779     1.0  0.73694  0.60700  0.06723  1.0000
  H   H1780     1.0  0.59795  0.51575  0.11387  1.0000
  S   S304      1.0  0.96583  0.68633  0.22894  1.0000
  H   H1781     1.0  0.78467  0.54443  0.10182  1.0000
  C   C1034     1.0  0.53110  0.59413  0.22253  1.0000
  S   S305      1.0  0.68546  0.00795  0.12665  1.0000
  H   H1782     1.0  0.80660  0.53125  0.07687  1.0000
  S   S306      1.0  0.53723  0.54417  0.17996  1.0000
  H   H1783     1.0  0.51289  0.59091  0.22846  1.0000
  H   H1784     1.0  0.98422  0.87640  0.22980  1.0000
  S   S307      1.0  0.69367  0.52344  0.12252  1.0000
  H   H1785     1.0  0.96645  0.54837  0.25354  1.0000
  H   H1786     1.0  0.81551  0.56709  0.08443  1.0000
  H   H1787     1.0  0.76230  0.56903  0.11142  1.0000
  C   C1035     1.0  0.75084  0.59368  0.06008  1.0000
  H   H1788     1.0  0.75398  0.53703  0.07614  1.0000
  S   S308      1.0  0.98271  0.73960  0.19135  1.0000
  H   H1789     1.0  0.53184  0.67334  0.25006  1.0000
  H   H1790     1.0  0.72442  0.58450  0.03968  1.0000
  C   C1036     1.0  0.56333  0.52874  0.16956  1.0000
  H   H1791     1.0  0.55365  0.56298  0.23649  1.0000
  C   C1037     1.0  0.81036  0.55397  0.07279  1.0000
  H   H1792     1.0  0.57245  0.56886  0.15661  1.0000
  C   C1038     1.0  0.57757  0.54633  0.15856  1.0000
  S   S309      1.0  0.52063  0.99796  0.23134  1.0000
  N   N74       1.0  0.64125  0.91216  0.13199  1.0000
  C   C1039     1.0  0.62253  0.91622  0.11774  1.0000
  C   C1040     1.0  0.66503  0.90544  0.12292  1.0000
  C   C1041     1.0  0.64314  0.94084  0.14174  1.0000
  C   C1042     1.0  0.63315  0.88822  0.14414  1.0000
  C   C1043     1.0  0.59648  0.92323  0.12407  1.0000
  C   C1044     1.0  0.66562  0.87815  0.11090  1.0000
  C   C1045     1.0  0.66226  0.94296  0.15635  1.0000
  C   C1046     1.0  0.65298  0.87259  0.15498  1.0000
  H   H1793     1.0  0.62804  0.93389  0.10855  1.0000
  H   H1794     1.0  0.62089  0.89621  0.10950  1.0000
  H   H1795     1.0  0.67998  0.90270  0.13239  1.0000
  H   H1796     1.0  0.67061  0.92417  0.11467  1.0000
  H   H1797     1.0  0.64698  0.95871  0.13229  1.0000
  H   H1798     1.0  0.62574  0.94670  0.14833  1.0000
  H   H1799     1.0  0.61919  0.89669  0.15359  1.0000
  H   H1800     1.0  0.62413  0.87077  0.13633  1.0000
  C   C1047     1.0  0.77719  0.60487  0.08478  1.0000
  H   H1801     1.0  0.59502  0.94478  0.13061  1.0000
  C   C1048     1.0  0.73689  0.57200  0.04829  1.0000
  H   H1802     1.0  0.68479  0.87239  0.10783  1.0000
  H   H1803     1.0  0.65722  0.85902  0.11718  1.0000
  H   H1804     1.0  0.65680  0.88254  0.09807  1.0000
  H   H1805     1.0  0.68088  0.93836  0.15151  1.0000
  H   H1806     1.0  0.65757  0.92910  0.16773  1.0000
  H   H1807     1.0  0.66239  0.96573  0.16144  1.0000
  H   H1808     1.0  0.64541  0.86714  0.16815  1.0000
  H   H1809     1.0  0.66953  0.88523  0.15744  1.0000
  H   H1810     1.0  0.65798  0.85137  0.14876  1.0000
  H   H1811     1.0  0.87922  0.87718  0.11319  1.0000
  C   C1049     1.0  0.79000  0.63038  0.07561  1.0000
  N   N75       1.0  0.90555  0.69463  0.18876  1.0000
  C   C1050     1.0  0.91411  0.72120  0.19865  1.0000
  C   C1051     1.0  0.92762  0.67832  0.18198  1.0000
  C   C1052     1.0  0.89124  0.67494  0.20060  1.0000
  C   C1053     1.0  0.88944  0.70426  0.17391  1.0000
  C   C1054     1.0  0.89432  0.73994  0.20781  1.0000
  C   C1055     1.0  0.94032  0.69162  0.16579  1.0000
  C   C1056     1.0  0.90417  0.66529  0.21758  1.0000
  C   C1057     1.0  0.87968  0.67982  0.16182  1.0000
  H   H1812     1.0  0.92765  0.71531  0.20882  1.0000
  H   H1813     1.0  0.92401  0.73586  0.18966  1.0000
  H   H1814     1.0  0.92336  0.65530  0.17861  1.0000
  H   H1815     1.0  0.94161  0.67666  0.19248  1.0000
  H   H1816     1.0  0.87365  0.68520  0.20447  1.0000
  H   H1817     1.0  0.88621  0.65464  0.19342  1.0000
  H   H1818     1.0  0.87312  0.71586  0.17912  1.0000
  H   H1819     1.0  0.89833  0.72088  0.16559  1.0000
  H   H1820     1.0  0.69287  0.54794  0.01812  1.0000
  H   H1821     1.0  0.88380  0.72756  0.21765  1.0000
  H   H1822     1.0  0.90317  0.75802  0.21507  1.0000
  H   H1823     1.0  0.92926  0.68939  0.15370  1.0000
  H   H1824     1.0  0.77741  0.64329  0.06737  1.0000
  S   S310      1.0  0.69892  0.51659  0.07958  1.0000
  H   H1825     1.0  0.92137  0.65353  0.21467  1.0000
  H   H1826     1.0  0.89236  0.65005  0.22489  1.0000
  C   C1058     1.0  0.51930  0.87757  0.26479  1.0000
  H   H1827     1.0  0.86164  0.67249  0.16649  1.0000
  H   H1828     1.0  0.89182  0.66061  0.16082  1.0000
  H   H1829     1.0  0.87786  0.68822  0.14817  1.0000
  N   N76       1.0  0.84561  0.85575  0.12005  1.0000
  C   C1059     1.0  0.84917  0.82796  0.10955  1.0000
  C   C1060     1.0  0.83187  0.84852  0.13670  1.0000
  C   C1061     1.0  0.86947  0.86903  0.12502  1.0000
  C   C1062     1.0  0.83189  0.87716  0.10886  1.0000
  C   C1063     1.0  0.86591  0.82983  0.09323  1.0000
  C   C1064     1.0  0.80457  0.84318  0.13446  1.0000
  C   C1065     1.0  0.88684  0.84891  0.13525  1.0000
  C   C1066     1.0  0.82553  0.90673  0.11772  1.0000
  C   C1067     1.0  0.78893  0.56677  0.06241  1.0000
  H   H1830     1.0  0.58623  0.56367  0.10072  1.0000
  H   H1831     1.0  0.52037  0.60519  0.18935  1.0000
  H   H1832     1.0  0.54900  0.64054  0.24916  1.0000
  H   H1833     1.0  0.55663  0.67089  0.23505  1.0000
  C   C1068     1.0  0.51622  0.62392  0.19834  1.0000
  C   C1069     1.0  0.67116  0.51960  0.03411  1.0000
  H   H1834     1.0  0.78207  0.54830  0.05435  1.0000
  H   H1835     1.0  0.50735  0.64021  0.23393  1.0000
  H   H1836     1.0  0.75287  0.66391  0.03472  1.0000
  H   H1837     1.0  0.51904  0.64387  0.19034  1.0000
  H   H1838     1.0  0.55729  0.54964  0.09470  1.0000
  Fe  Fe153     1.0  0.97911  0.73167  0.22063  1.0000
  H   H1839     1.0  0.72534  0.55723  0.05608  1.0000
  H   H1840     1.0  0.56608  0.55267  0.11773  1.0000
  H   H1841     1.0  0.94688  0.63244  0.24210  1.0000
  C   C1070     1.0  0.60198  0.00456  0.13733  1.0000
  C   C1071     1.0  0.57237  0.54722  0.10416  1.0000
  H   H1842     1.0  0.56558  0.99924  0.12783  1.0000
  C   C1072     1.0  0.98849  0.88503  0.24273  1.0000
  S   S311      1.0  0.49761  0.97440  0.19428  1.0000
  H   H1843     1.0  0.98103  0.56714  0.23608  1.0000
  H   H1844     1.0  0.82676  0.55384  0.06424  1.0000
  S   S312      1.0  0.99291  0.80908  0.20104  1.0000
  H   H1845     1.0  0.54048  0.51506  0.12011  1.0000
  C   C1073     1.0  0.58002  0.00494  0.17140  1.0000
  C   C1074     1.0  0.96974  0.61846  0.26350  1.0000
  H   H1846     1.0  0.91205  0.95595  0.26079  1.0000
  H   H1847     1.0  0.49960  0.57924  0.26250  1.0000
  H   H1848     1.0  0.63552  0.01028  0.15112  1.0000
  C   C1075     1.0  0.56580  0.00218  0.15628  1.0000
  C   C1076     1.0  0.75745  0.67830  0.02351  1.0000
  C   C1077     1.0  0.68021  0.53011  0.01806  1.0000
  Fe  Fe154     1.0  0.52774  0.00439  0.20223  1.0000
  C   C1078     1.0  0.99337  0.86590  0.25654  1.0000
  S   S313      1.0  0.56746  0.00394  0.19311  1.0000
  C   C1079     1.0  0.60522  0.00798  0.16934  1.0000
  C   C1080     1.0  0.61613  0.00801  0.15244  1.0000
  H   H1849     1.0  0.95953  0.59894  0.26603  1.0000
  C   C1081     1.0  0.93130  0.95679  0.26450  1.0000
  H   H1850     1.0  0.67752  0.92939  0.01879  1.0000
  C   C1082     1.0  0.68296  0.00837  0.02692  1.0000
  H   H1851     1.0  0.61643  0.01019  0.18090  1.0000
  Fe  Fe155     1.0  0.68942  0.00933  0.07551  1.0000
  H   H1852     1.0  0.72031  0.68831  0.01736  1.0000
  H   H1853     1.0  0.71386  0.66308  0.50598  1.0000
  C   C1083     1.0  0.74772  0.00181  0.37128  1.0000
  C   C1084     1.0  0.67406  0.73696  0.51133  1.0000
  H   H1854     1.0  0.72664  0.61816  0.44110  1.0000
  H   H1855     1.0  0.71205  0.69373  0.47350  1.0000
  C   C1085     1.0  0.69958  0.66926  0.45116  1.0000
  Fe  Fe156     1.0  0.51341  0.75593  0.33468  1.0000
  C   C1086     1.0  0.82471  0.57785  0.35155  1.0000
  S   S314      1.0  0.53280  0.74891  0.36104  1.0000
  H   H1856     1.0  0.76896  0.70663  0.44556  1.0000
  H   H1857     1.0  0.75987  0.98241  0.37118  1.0000
  H   H1858     1.0  0.92593  0.55722  0.35755  1.0000
  S   S315      1.0  0.98133  0.54885  0.32983  1.0000
  S   S316      1.0  0.52790  0.75219  0.30701  1.0000
  S   S317      1.0  0.82088  0.51282  0.44041  1.0000
  H   H1859     1.0  0.80346  0.97570  0.51182  1.0000
  H   H1860     1.0  0.74038  0.71348  0.45574  1.0000
  S   S318      1.0  0.95888  0.52747  0.29143  1.0000
  H   H1861     1.0  0.91515  0.90424  0.31672  1.0000
  H   H1862     1.0  0.75703  0.60744  0.36006  1.0000
  Fe  Fe157     1.0  0.79176  0.99243  0.41550  1.0000
  S   S319      1.0  0.77727  0.95108  0.40268  1.0000
  Fe  Fe158     1.0  0.77429  0.55781  0.41380  1.0000
  S   S320      1.0  0.74545  0.58610  0.40091  1.0000
  S   S321      1.0  0.82935  0.99257  0.42661  1.0000
  S   S322      1.0  0.80603  0.57793  0.42715  1.0000
  Fe  Fe159     1.0  0.67666  0.75978  0.45014  1.0000
  S   S323      1.0  0.71501  0.77370  0.44614  1.0000
  S   S324      1.0  0.67080  0.73392  0.47522  1.0000
  Fe  Fe160     1.0  0.66171  0.77918  0.41298  1.0000
  S   S325      1.0  0.69977  0.79391  0.40670  1.0000
  S   S326      1.0  0.63643  0.78816  0.38969  1.0000
  Fe  Fe161     1.0  0.71187  0.75223  0.41956  1.0000
  S   S327      1.0  0.74370  0.72413  0.41029  1.0000
  Fe  Fe162     1.0  0.69947  0.81402  0.43379  1.0000
  S   S328      1.0  0.71159  0.85920  0.44297  1.0000
  S   S329      1.0  0.67426  0.73602  0.42397  1.0000
  S   S330      1.0  0.66081  0.80158  0.43964  1.0000
  C   C1087     1.0  0.66655  0.75125  0.49595  1.0000
  H   H1863     1.0  0.90956  0.95648  0.31843  1.0000
  C   C1088     1.0  0.65436  0.77797  0.49748  1.0000
  H   H1864     1.0  0.86675  0.62054  0.35647  1.0000
  H   H1865     1.0  0.64818  0.78893  0.48575  1.0000
  C   C1089     1.0  0.75353  0.66781  0.45716  1.0000
  C   C1090     1.0  0.71147  0.67038  0.46943  1.0000
  C   C1091     1.0  0.89705  0.89397  0.27643  1.0000
  H   H1866     1.0  0.77161  0.65712  0.45854  1.0000
  C   C1092     1.0  0.73494  0.00399  0.38941  1.0000
  C   C1093     1.0  0.75783  0.92627  0.41352  1.0000
  C   C1094     1.0  0.74591  0.93363  0.42928  1.0000
  C   C1095     1.0  0.73084  0.91328  0.43762  1.0000
  C   C1096     1.0  0.72802  0.88506  0.43059  1.0000
  C   C1097     1.0  0.73969  0.87779  0.41471  1.0000
  C   C1098     1.0  0.75438  0.89840  0.40617  1.0000
  H   H1867     1.0  0.74855  0.95483  0.43520  1.0000
  H   H1868     1.0  0.72184  0.91911  0.44987  1.0000
  H   H1869     1.0  0.73768  0.85616  0.40915  1.0000
  H   H1870     1.0  0.76343  0.89250  0.39394  1.0000
  C   C1099     1.0  0.74472  0.62428  0.40462  1.0000
  C   C1100     1.0  0.76574  0.63956  0.40872  1.0000
  C   C1101     1.0  0.76515  0.67012  0.41019  1.0000
  C   C1102     1.0  0.74329  0.68567  0.40851  1.0000
  C   C1103     1.0  0.72205  0.67036  0.40493  1.0000
  C   C1104     1.0  0.72287  0.63983  0.40270  1.0000
  H   H1871     1.0  0.78261  0.62791  0.41031  1.0000
  H   H1872     1.0  0.78166  0.68179  0.41291  1.0000
  H   H1873     1.0  0.70514  0.68212  0.40355  1.0000
  H   H1874     1.0  0.70650  0.62817  0.39954  1.0000
  C   C1105     1.0  0.60725  0.77746  0.38231  1.0000
  C   C1106     1.0  0.59979  0.78581  0.36536  1.0000
  C   C1107     1.0  0.57714  0.77731  0.35860  1.0000
  C   C1108     1.0  0.56160  0.76033  0.36878  1.0000
  C   C1109     1.0  0.56905  0.75196  0.38575  1.0000
  C   C1110     1.0  0.59171  0.76045  0.39249  1.0000
  H   H1875     1.0  0.61161  0.79904  0.35736  1.0000
  H   H1876     1.0  0.57169  0.78403  0.34557  1.0000
  H   H1877     1.0  0.55716  0.73887  0.39376  1.0000
  H   H1878     1.0  0.59711  0.75396  0.40558  1.0000
  N   N77       1.0  0.73623  0.65651  0.47089  1.0000
  H   H1879     1.0  0.76743  0.70861  0.46896  1.0000
  C   C1111     1.0  0.89584  0.92230  0.28753  1.0000
  H   H1880     1.0  0.74739  0.66210  0.44370  1.0000
  H   H1881     1.0  0.86821  0.99810  0.38265  1.0000
  C   C1112     1.0  0.83839  0.62712  0.39173  1.0000
  H   H1882     1.0  0.93372  0.97249  0.30642  1.0000
  C   C1113     1.0  0.74628  0.66439  0.48877  1.0000
  Fe  Fe163     1.0  0.50159  0.78858  0.30016  1.0000
  C   C1114     1.0  0.86963  0.51540  0.37458  1.0000
  H   H1883     1.0  0.66893  0.99291  0.36794  1.0000
  H   H1884     1.0  0.84740  0.62064  0.40418  1.0000
  C   C1115     1.0  0.73473  0.62356  0.46972  1.0000
  C   C1116     1.0  0.75754  0.70105  0.45714  1.0000
  Fe  Fe164     1.0  0.79657  0.54917  0.44993  1.0000
  C   C1117     1.0  0.73204  0.65278  0.50481  1.0000
  C   C1118     1.0  0.89925  0.55323  0.37845  1.0000
  C   C1119     1.0  0.73843  0.60907  0.45141  1.0000
  H   H1885     1.0  0.85618  0.62339  0.33422  1.0000
  H   H1886     1.0  0.73032  0.62873  0.50460  1.0000
  C   C1120     1.0  0.92932  0.91030  0.30691  1.0000
  H   H1887     1.0  0.77287  0.57348  0.51305  1.0000
  H   H1888     1.0  0.69487  0.74479  0.36478  1.0000
  C   C1121     1.0  0.91613  0.96110  0.30480  1.0000
  H   H1889     1.0  0.98608  0.55224  0.38980  1.0000
  N   N78       1.0  0.80658  0.90052  0.46034  1.0000
  C   C1122     1.0  0.79706  0.91604  0.47659  1.0000
  C   C1123     1.0  0.82939  0.88425  0.46511  1.0000
  C   C1124     1.0  0.78853  0.87891  0.45337  1.0000
  C   C1125     1.0  0.81144  0.92277  0.44627  1.0000
  C   C1126     1.0  0.77258  0.93206  0.47455  1.0000
  C   C1127     1.0  0.85116  0.90324  0.47043  1.0000
  C   C1128     1.0  0.77803  0.85737  0.46685  1.0000
  C   C1129     1.0  0.82354  0.91097  0.42922  1.0000
  H   H1890     1.0  0.79545  0.90084  0.48787  1.0000
  H   H1891     1.0  0.81000  0.93286  0.48110  1.0000
  H   H1892     1.0  0.83542  0.86965  0.45410  1.0000
  H   H1893     1.0  0.82601  0.86952  0.47642  1.0000
  H   H1894     1.0  0.77311  0.89026  0.44713  1.0000
  H   H1895     1.0  0.79662  0.86528  0.44262  1.0000
  H   H1896     1.0  0.79435  0.93346  0.44204  1.0000
  H   H1897     1.0  0.82269  0.94084  0.45152  1.0000
  H   H1898     1.0  0.75785  0.91730  0.47050  1.0000
  H   H1899     1.0  0.76730  0.94177  0.48749  1.0000
  H   H1900     1.0  0.77388  0.95045  0.46522  1.0000
  H   H1901     1.0  0.85712  0.91779  0.45969  1.0000
  H   H1902     1.0  0.84743  0.91636  0.48250  1.0000
  H   H1903     1.0  0.86677  0.88875  0.47346  1.0000
  H   H1904     1.0  0.76730  0.86848  0.47735  1.0000
  H   H1905     1.0  0.79225  0.84349  0.47279  1.0000
  H   H1906     1.0  0.76533  0.84260  0.45988  1.0000
  H   H1907     1.0  0.84194  0.90216  0.43157  1.0000
  H   H1908     1.0  0.82548  0.92909  0.41973  1.0000
  H   H1909     1.0  0.81235  0.89430  0.42256  1.0000
  C   C1130     1.0  0.90148  0.52205  0.35230  1.0000
  H   H1910     1.0  0.73432  0.58549  0.45237  1.0000
  H   H1911     1.0  0.84443  0.57505  0.34872  1.0000
  H   H1912     1.0  0.69629  0.64669  0.44670  1.0000
  H   H1913     1.0  0.82267  0.65088  0.36167  1.0000
  H   H1914     1.0  0.79601  0.54760  0.36011  1.0000
  H   H1915     1.0  0.87869  0.88913  0.27135  1.0000
  S   S331      1.0  0.86535  0.54950  0.40509  1.0000
  H   H1916     1.0  0.81630  0.58134  0.33844  1.0000
  H   H1917     1.0  0.85027  0.64328  0.38530  1.0000
  H   H1918     1.0  0.81644  0.63312  0.34175  1.0000
  Fe  Fe165     1.0  0.98914  0.55608  0.30080  1.0000
  H   H1919     1.0  0.90639  0.57118  0.38609  1.0000
  C   C1131     1.0  0.80149  0.55586  0.49659  1.0000
  H   H1920     1.0  0.89941  0.00401  0.30563  1.0000
  H   H1921     1.0  0.95492  0.94656  0.28557  1.0000
  H   H1922     1.0  0.93908  0.51551  0.39921  1.0000
  C   C1132     1.0  0.85404  0.63236  0.34781  1.0000
  S   S332      1.0  0.51661  0.82712  0.28436  1.0000
  N   N79       1.0  0.91971  0.93310  0.29444  1.0000
  C   C1133     1.0  0.81596  0.54834  0.35857  1.0000
  H   H1923     1.0  0.93427  0.88987  0.29969  1.0000
  C   C1134     1.0  0.79412  0.60609  0.36912  1.0000
  H   H1924     1.0  0.53822  0.87722  0.26836  1.0000
  C   C1135     1.0  0.91048  0.54526  0.36232  1.0000
  H   H1925     1.0  0.94881  0.93779  0.32635  1.0000
  S   S333      1.0  0.78792  0.56822  0.47699  1.0000
  S   S334      1.0  0.76356  0.53081  0.43708  1.0000
  H   H1926     1.0  0.77638  0.58723  0.34552  1.0000
  C   C1136     1.0  0.77546  0.60688  0.35408  1.0000
  N   N80       1.0  0.64529  0.69936  0.36022  1.0000
  C   C1137     1.0  0.61905  0.70520  0.35579  1.0000
  C   C1138     1.0  0.64570  0.68459  0.37793  1.0000
  C   C1139     1.0  0.65532  0.67867  0.34640  1.0000
  C   C1140     1.0  0.65878  0.72786  0.36003  1.0000
  C   C1141     1.0  0.61407  0.71854  0.33753  1.0000
  C   C1142     1.0  0.63329  0.70154  0.39316  1.0000
  C   C1143     1.0  0.68177  0.66862  0.34869  1.0000
  C   C1144     1.0  0.68193  0.72995  0.37136  1.0000
  H   H1927     1.0  0.60821  0.68489  0.35675  1.0000
  H   H1928     1.0  0.61072  0.72075  0.36542  1.0000
  H   H1929     1.0  0.66431  0.67959  0.38235  1.0000
  H   H1930     1.0  0.63675  0.66296  0.37705  1.0000
  H   H1931     1.0  0.64397  0.65873  0.34559  1.0000
  H   H1932     1.0  0.65472  0.68867  0.33311  1.0000
  H   H1933     1.0  0.66372  0.73392  0.34629  1.0000
  H   H1934     1.0  0.64669  0.74571  0.36482  1.0000
  H   H1935     1.0  0.61726  0.70262  0.32667  1.0000
  H   H1936     1.0  0.59462  0.72490  0.33687  1.0000
  H   H1937     1.0  0.62462  0.73862  0.33528  1.0000
  H   H1938     1.0  0.61328  0.70015  0.39234  1.0000
  H   H1939     1.0  0.63854  0.69174  0.40594  1.0000
  H   H1940     1.0  0.63864  0.72470  0.39351  1.0000
  H   H1941     1.0  0.68626  0.65240  0.33818  1.0000
  H   H1942     1.0  0.68501  0.65761  0.36141  1.0000
  H   H1943     1.0  0.69449  0.68693  0.34691  1.0000
  H   H1944     1.0  0.97368  0.56510  0.36972  1.0000
  H   H1945     1.0  0.69180  0.70930  0.37354  1.0000
  S   S335      1.0  0.50651  0.67644  0.28964  1.0000
  H   H1946     1.0  0.77711  0.62679  0.34603  1.0000
  H   H1947     1.0  0.51489  0.80768  0.40815  1.0000
  C   C1145     1.0  0.68289  0.99326  0.37842  1.0000
  H   H1948     1.0  0.74884  0.61310  0.47807  1.0000
  H   H1949     1.0  0.82705  0.58292  0.38871  1.0000
  S   S336      1.0  0.93499  0.00260  0.33953  1.0000
  H   H1950     1.0  0.78899  0.58794  0.37801  1.0000
  H   H1951     1.0  0.89512  0.97877  0.35881  1.0000
  Fe  Fe166     1.0  0.82750  0.53971  0.41609  1.0000
  H   H1952     1.0  0.75760  0.61050  0.44702  1.0000
  H   H1953     1.0  0.82124  0.53085  0.34904  1.0000
  H   H1954     1.0  0.94465  0.91566  0.27450  1.0000
  H   H1955     1.0  0.71010  0.68135  0.44117  1.0000
  H   H1956     1.0  0.69843  0.66018  0.47868  1.0000
  H   H1957     1.0  0.76533  0.65639  0.48993  1.0000
  H   H1958     1.0  0.88664  0.93865  0.27921  1.0000
  H   H1959     1.0  0.51823  0.61689  0.28177  1.0000
  C   C1146     1.0  0.99010  0.62466  0.27372  1.0000
  C   C1147     1.0  0.82348  0.54055  0.49638  1.0000
  H   H1960     1.0  0.67780  0.74069  0.38421  1.0000
  H   H1961     1.0  0.95358  0.55446  0.38684  1.0000
  H   H1962     1.0  0.82460  0.54298  0.37125  1.0000
  H   H1963     1.0  0.96598  0.97311  0.39171  1.0000
  S   S337      1.0  0.79607  0.52116  0.40106  1.0000
  C   C1148     1.0  0.89737  0.00090  0.36348  1.0000
  C   C1149     1.0  0.95203  0.91870  0.31754  1.0000
  H   H1964     1.0  0.74688  0.68842  0.49069  1.0000
  H   H1965     1.0  0.72781  0.98194  0.39213  1.0000
  H   H1966     1.0  0.69559  0.97503  0.37545  1.0000
  C   C1150     1.0  0.83520  0.59974  0.38008  1.0000
  H   H1967     1.0  0.86003  0.65540  0.34799  1.0000
  N   N81       1.0  0.82035  0.60363  0.36363  1.0000
  H   H1968     1.0  0.71716  0.61576  0.47508  1.0000
  C   C1151     1.0  0.82733  0.63082  0.35395  1.0000
  C   C1152     1.0  0.64906  0.78979  0.51427  1.0000
  C   C1153     1.0  0.78984  0.56155  0.51278  1.0000
  H   H1969     1.0  0.82090  0.63750  0.39538  1.0000
  H   H1970     1.0  0.96783  0.92275  0.30888  1.0000
  H   H1971     1.0  0.90197  0.98987  0.28376  1.0000
  C   C1154     1.0  0.70547  0.99925  0.42033  1.0000
  H   H1972     1.0  0.98445  0.95168  0.36787  1.0000
  H   H1973     1.0  0.85359  0.59110  0.37695  1.0000
  H   H1974     1.0  0.68530  0.85731  0.50442  1.0000
  C   C1155     1.0  0.93822  0.93696  0.28001  1.0000
  H   H1975     1.0  0.98078  0.51404  0.40850  1.0000
  C   C1156     1.0  0.97107  0.54898  0.38039  1.0000
  H   H1976     1.0  0.85079  0.51933  0.51209  1.0000
  H   H1977     1.0  0.83270  0.53632  0.48398  1.0000
  H   H1978     1.0  0.68332  0.71616  0.51025  1.0000
  Fe  Fe167     1.0  0.49709  0.72145  0.30155  1.0000
  C   C1157     1.0  0.89810  0.98376  0.29753  1.0000
  C   C1158     1.0  0.96355  0.99650  0.38836  1.0000
  H   H1979     1.0  0.68160  0.68022  0.45205  1.0000
  H   H1980     1.0  0.87916  0.97620  0.29881  1.0000
  H   H1981     1.0  0.73482  0.99877  0.36031  1.0000
  H   H1982     1.0  0.79093  0.62624  0.37704  1.0000
  C   C1159     1.0  0.87874  0.53841  0.38467  1.0000
  S   S338      1.0  0.81540  0.99342  0.47680  1.0000
  C   C1160     1.0  0.97136  0.51810  0.37213  1.0000
  H   H1983     1.0  0.95732  0.51792  0.36170  1.0000
  H   H1984     1.0  0.88302  0.91869  0.29870  1.0000
  Fe  Fe168     1.0  0.95288  0.51770  0.32037  1.0000
  H   H1985     1.0  0.95222  0.99663  0.37629  1.0000
  H   H1986     1.0  0.63872  0.80982  0.51532  1.0000
  C   C1161     1.0  0.81133  0.99713  0.51276  1.0000
  C   C1162     1.0  0.83371  0.53103  0.51230  1.0000
  H   H1987     1.0  0.69707  0.98103  0.41307  1.0000
  C   C1163     1.0  0.50254  0.62246  0.27397  1.0000
  C   C1164     1.0  0.50401  0.85541  0.27101  1.0000
  H   H1988     1.0  0.74921  0.00740  0.39949  1.0000
  H   H1989     1.0  0.51133  0.78020  0.39169  1.0000
  H   H1990     1.0  0.95714  0.90022  0.32615  1.0000
  H   H1991     1.0  0.50918  0.81824  0.38593  1.0000
  H   H1992     1.0  0.69514  0.00249  0.43282  1.0000
  H   H1993     1.0  0.90266  0.87492  0.28435  1.0000
  H   H1994     1.0  0.98878  0.51569  0.36483  1.0000
  H   H1995     1.0  0.93266  0.99516  0.40627  1.0000
  C   C1165     1.0  0.50462  0.80193  0.39608  1.0000
  H   H1996     1.0  0.67328  0.98951  0.39103  1.0000
  H   H1997     1.0  0.98576  0.00099  0.35694  1.0000
  H   H1998     1.0  0.72410  0.99273  0.42407  1.0000
  C   C1166     1.0  0.94802  0.00991  0.40341  1.0000
  N   N82       1.0  0.98771  0.01062  0.38485  1.0000
  H   H1999     1.0  0.93654  0.97969  0.26727  1.0000
  H   H2000     1.0  0.94486  0.64675  0.74823  1.0000
  C   C1167     1.0  0.87764  0.54390  0.65871  1.0000
  C   C1168     1.0  0.79981  0.55151  0.52866  1.0000
  H   H2001     1.0  0.72699  0.92152  0.53659  1.0000
  H   H2002     1.0  0.85679  0.60137  0.60454  1.0000
  C   C1169     1.0  0.66953  0.74933  0.52811  1.0000
  Fe  Fe169     1.0  0.76848  0.54324  0.59441  1.0000
  S   S339      1.0  0.80671  0.55914  0.59242  1.0000
  S   S340      1.0  0.73495  0.57266  0.59348  1.0000
  Fe  Fe170     1.0  0.78755  0.98150  0.59140  1.0000
  S   S341      1.0  0.82689  0.99431  0.59096  1.0000
  S   S342      1.0  0.77999  0.93394  0.58448  1.0000
  C   C1170     1.0  0.88141  0.57782  0.55258  1.0000
  H   H2003     1.0  0.87909  0.55680  0.54553  1.0000
  H   H2004     1.0  0.55667  0.71326  0.61345  1.0000
  H   H2005     1.0  0.67236  0.89240  0.58241  1.0000
  H   H2006     1.0  0.69058  0.83163  0.52151  1.0000
  Fe  Fe171     1.0  0.97916  0.55198  0.72012  1.0000
  Fe  Fe172     1.0  0.65305  0.75681  0.61378  1.0000
  S   S343      1.0  0.69112  0.76435  0.62300  1.0000
  S   S344      1.0  0.62438  0.73522  0.63120  1.0000
  Fe  Fe173     1.0  0.66590  0.77550  0.57593  1.0000
  S   S345      1.0  0.70480  0.78387  0.58246  1.0000
  S   S346      1.0  0.64918  0.79116  0.55042  1.0000
  Fe  Fe174     1.0  0.70266  0.74192  0.59771  1.0000
  S   S347      1.0  0.73532  0.71134  0.59831  1.0000
  Fe  Fe175     1.0  0.69025  0.80545  0.60697  1.0000
  S   S348      1.0  0.69987  0.85076  0.61698  1.0000
  S   S349      1.0  0.66468  0.73184  0.58924  1.0000
  S   S350      1.0  0.65122  0.79950  0.59971  1.0000
  S   S351      1.0  0.51543  0.77161  0.72480  1.0000
  H   H2007     1.0  0.91317  0.59419  0.58319  1.0000
  H   H2008     1.0  0.88642  0.54674  0.61201  1.0000
  H   H2009     1.0  0.66192  0.67231  0.68163  1.0000
  Fe  Fe176     1.0  0.50918  0.77336  0.69541  1.0000
  S   S352      1.0  0.53759  0.79213  0.67652  1.0000
  H   H2010     1.0  0.59129  0.83321  0.61092  1.0000
  C   C1171     1.0  0.70711  0.89953  0.55795  1.0000
  H   H2011     1.0  0.53768  0.75272  0.76146  1.0000
  H   H2012     1.0  0.53348  0.54219  0.75228  1.0000
  C   C1172     1.0  0.87639  0.55961  0.60219  1.0000
  C   C1173     1.0  0.60143  0.75150  0.64476  1.0000
  C   C1174     1.0  0.58455  0.73345  0.65322  1.0000
  C   C1175     1.0  0.56520  0.74538  0.66328  1.0000
  C   C1176     1.0  0.56239  0.77562  0.66491  1.0000
  C   C1177     1.0  0.57937  0.79364  0.65652  1.0000
  C   C1178     1.0  0.59887  0.78172  0.64664  1.0000
  H   H2013     1.0  0.58631  0.71005  0.65189  1.0000
  H   H2014     1.0  0.55231  0.73122  0.66961  1.0000
  H   H2015     1.0  0.57747  0.81705  0.65774  1.0000
  H   H2016     1.0  0.61178  0.79595  0.64039  1.0000
  C   C1179     1.0  0.75744  0.91136  0.59365  1.0000
  C   C1180     1.0  0.73960  0.92221  0.60513  1.0000
  C   C1181     1.0  0.72218  0.90331  0.61223  1.0000
  C   C1182     1.0  0.72227  0.87351  0.60778  1.0000
  C   C1183     1.0  0.74019  0.86264  0.59634  1.0000
  C   C1184     1.0  0.75766  0.88151  0.58931  1.0000
  H   H2017     1.0  0.73919  0.94515  0.60855  1.0000
  H   H2018     1.0  0.70843  0.91187  0.62113  1.0000
  H   H2019     1.0  0.74070  0.83966  0.59305  1.0000
  H   H2020     1.0  0.77154  0.87292  0.58053  1.0000
  C   C1185     1.0  0.73600  0.61127  0.59327  1.0000
  C   C1186     1.0  0.71477  0.62716  0.58960  1.0000
  C   C1187     1.0  0.71437  0.65787  0.59062  1.0000
  C   C1188     1.0  0.73528  0.67296  0.59534  1.0000
  C   C1189     1.0  0.75664  0.65710  0.59861  1.0000
  C   C1190     1.0  0.75703  0.62642  0.59760  1.0000
  H   H2021     1.0  0.69848  0.61561  0.58613  1.0000
  H   H2022     1.0  0.69787  0.66980  0.58794  1.0000
  H   H2023     1.0  0.77290  0.66858  0.60226  1.0000
  H   H2024     1.0  0.77346  0.61450  0.60052  1.0000
  H   H2025     1.0  0.56599  0.81413  0.61945  1.0000
  C   C1191     1.0  0.82180  0.53624  0.52846  1.0000
  C   C1192     1.0  0.68253  0.65064  0.66069  1.0000
  H   H2026     1.0  0.67538  0.73813  0.53985  1.0000
  C   C1193     1.0  0.81463  0.01007  0.52946  1.0000
  H   H2027     1.0  0.70824  0.84463  0.56904  1.0000
  S   S353      1.0  0.96438  0.59275  0.73465  1.0000
  H   H2028     1.0  0.80927  0.99861  0.54124  1.0000
  H   H2029     1.0  0.92881  0.58228  0.61009  1.0000
  C   C1194     1.0  0.97401  0.87377  0.74703  1.0000
  H   H2030     1.0  0.79053  0.55571  0.54105  1.0000
  H   H2031     1.0  0.88901  0.60424  0.60857  1.0000
  Fe  Fe177     1.0  0.81196  0.52215  0.57307  1.0000
  H   H2032     1.0  0.54383  0.79709  0.58297  1.0000
  H   H2033     1.0  0.72710  0.64177  0.64965  1.0000
  Fe  Fe178     1.0  0.98288  0.97225  0.72077  1.0000
  H   H2034     1.0  0.63796  0.65241  0.61584  1.0000
  S   S354      1.0  0.51080  0.68997  0.73839  1.0000
  H   H2035     1.0  0.71263  0.69873  0.66344  1.0000
  C   C1195     1.0  0.97625  0.61874  0.74994  1.0000
  H   H2036     1.0  0.86842  0.56246  0.66464  1.0000
  H   H2037     1.0  0.71148  0.89448  0.57189  1.0000
  N   N83       1.0  0.81214  0.91560  0.63558  1.0000
  C   C1196     1.0  0.80819  0.88934  0.62379  1.0000
  C   C1197     1.0  0.82567  0.93759  0.62475  1.0000
  C   C1198     1.0  0.78762  0.92810  0.64044  1.0000
  C   C1199     1.0  0.82581  0.90607  0.65176  1.0000
  C   C1200     1.0  0.79152  0.86544  0.63112  1.0000
  C   C1201     1.0  0.85033  0.92730  0.61724  1.0000
  C   C1202     1.0  0.78725  0.95468  0.65296  1.0000
  C   C1203     1.0  0.84052  0.92968  0.66166  1.0000
  H   H2038     1.0  0.80061  0.89604  0.61088  1.0000
  H   H2039     1.0  0.82570  0.87831  0.62055  1.0000
  H   H2040     1.0  0.82895  0.95794  0.63213  1.0000
  H   H2041     1.0  0.81449  0.94459  0.61337  1.0000
  H   H2042     1.0  0.77765  0.93437  0.62831  1.0000
  H   H2043     1.0  0.77625  0.91173  0.64720  1.0000
  H   H2044     1.0  0.81321  0.89605  0.66144  1.0000
  H   H2045     1.0  0.83916  0.88867  0.64814  1.0000
  H   H2046     1.0  0.79628  0.85918  0.64475  1.0000
  H   H2047     1.0  0.77217  0.87213  0.63050  1.0000
  H   H2048     1.0  0.79329  0.84563  0.62266  1.0000
  H   H2049     1.0  0.86041  0.94654  0.61241  1.0000
  H   H2050     1.0  0.86172  0.91650  0.62725  1.0000
  H   H2051     1.0  0.84791  0.91252  0.60574  1.0000
  H   H2052     1.0  0.76833  0.96283  0.65424  1.0000
  H   H2053     1.0  0.79802  0.97307  0.64797  1.0000
  H   H2054     1.0  0.79320  0.94870  0.66639  1.0000
  H   H2055     1.0  0.83976  0.92527  0.67603  1.0000
  H   H2056     1.0  0.83418  0.95237  0.66004  1.0000
  H   H2057     1.0  0.86000  0.92823  0.65802  1.0000
  H   H2058     1.0  0.65771  0.68278  0.61618  1.0000
  H   H2059     1.0  0.68061  0.63745  0.61629  1.0000
  H   H2060     1.0  0.86983  0.59378  0.54553  1.0000
  C   C1204     1.0  0.66499  0.87293  0.57563  1.0000
  H   H2061     1.0  0.97469  0.83227  0.76046  1.0000
  C   C1205     1.0  0.87546  0.00912  0.66565  1.0000
  H   H2062     1.0  0.50642  0.51755  0.73292  1.0000
  C   C1206     1.0  0.51480  0.55128  0.75171  1.0000
  H   H2063     1.0  0.66364  0.62307  0.63409  1.0000
  C   C1207     1.0  0.69455  0.87793  0.52942  1.0000
  H   H2064     1.0  0.68061  0.70057  0.63919  1.0000
  S   S355      1.0  0.95170  0.51657  0.71571  1.0000
  H   H2065     1.0  0.64526  0.87264  0.57848  1.0000
  C   C1208     1.0  0.86636  0.52836  0.64500  1.0000
  H   H2066     1.0  0.92388  0.56189  0.57244  1.0000
  H   H2067     1.0  0.51977  0.75675  0.57718  1.0000
  C   C1209     1.0  0.66049  0.66873  0.66717  1.0000
  C   C1210     1.0  0.87291  0.57649  0.57201  1.0000
  C   C1211     1.0  0.91372  0.56999  0.58426  1.0000
  C   C1212     1.0  0.71093  0.60349  0.63874  1.0000
  N   N84       1.0  0.69069  0.65466  0.64187  1.0000
  H   H2068     1.0  0.86866  0.51954  0.57684  1.0000
  H   H2069     1.0  0.92501  0.54335  0.60781  1.0000
  N   N85       1.0  0.56992  0.76684  0.59369  1.0000
  C   C1213     1.0  0.58750  0.79033  0.59899  1.0000
  C   C1214     1.0  0.58474  0.74025  0.58859  1.0000
  C   C1215     1.0  0.55395  0.76054  0.60947  1.0000
  C   C1216     1.0  0.55512  0.77819  0.57857  1.0000
  C   C1217     1.0  0.57635  0.81836  0.60718  1.0000
  C   C1218     1.0  0.60184  0.74370  0.57260  1.0000
  C   C1219     1.0  0.54265  0.73002  0.61057  1.0000
  H   H2070     1.0  0.56486  0.83030  0.59770  1.0000
  H   H2071     1.0  0.60073  0.78170  0.60870  1.0000
  H   H2072     1.0  0.59840  0.79759  0.58748  1.0000
  H   H2073     1.0  0.57331  0.72119  0.58557  1.0000
  H   H2074     1.0  0.59598  0.73314  0.59993  1.0000
  H   H2075     1.0  0.56427  0.76291  0.62192  1.0000
  H   H2076     1.0  0.53889  0.77677  0.61058  1.0000
  H   H2077     1.0  0.65927  0.85425  0.55014  1.0000
  H   H2078     1.0  0.56674  0.78760  0.56804  1.0000
  C   C1220     1.0  0.49909  0.66387  0.75348  1.0000
  C   C1221     1.0  0.70654  0.84553  0.55447  1.0000
  H   H2079     1.0  0.86931  0.58851  0.62462  1.0000
  H   H2080     1.0  0.59204  0.74999  0.56049  1.0000
  H   H2081     1.0  0.73576  0.84712  0.53392  1.0000
  H   H2082     1.0  0.61091  0.72246  0.56976  1.0000
  H   H2083     1.0  0.53260  0.72383  0.59858  1.0000
  H   H2084     1.0  0.86191  0.00055  0.67450  1.0000
  H   H2085     1.0  0.52964  0.72978  0.62181  1.0000
  C   C1222     1.0  0.98361  0.90204  0.74593  1.0000
  C   C1223     1.0  0.90091  0.53594  0.66468  1.0000
  C   C1224     1.0  0.50562  0.89901  0.76157  1.0000
  H   H2086     1.0  0.90037  0.58521  0.55128  1.0000
  H   H2087     1.0  0.71849  0.72295  0.64568  1.0000
  H   H2088     1.0  0.67270  0.85295  0.58155  1.0000
  Fe  Fe179     1.0  0.81514  0.52610  0.61353  1.0000
  H   H2089     1.0  0.73467  0.68948  0.64626  1.0000
  C   C1225     1.0  0.67195  0.64346  0.62911  1.0000
  C   C1226     1.0  0.65109  0.66434  0.62420  1.0000
  H   H2090     1.0  0.74195  0.65854  0.51705  1.0000
  C   C1227     1.0  0.69659  0.68596  0.63789  1.0000
  H   H2091     1.0  0.65938  0.69089  0.66166  1.0000
  H   H2092     1.0  0.70042  0.59591  0.62718  1.0000
  H   H2093     1.0  0.49529  0.74135  0.75895  1.0000
  H   H2094     1.0  0.67760  0.62754  0.66296  1.0000
  C   C1228     1.0  0.92936  0.56356  0.60071  1.0000
  H   H2095     1.0  0.90941  0.54833  0.67511  1.0000
  H   H2096     1.0  0.87202  0.59957  0.57657  1.0000
  H   H2097     1.0  0.61648  0.75941  0.57528  1.0000
  C   C1229     1.0  0.73057  0.91087  0.54940  1.0000
  H   H2098     1.0  0.64095  0.67285  0.63574  1.0000
  H   H2099     1.0  0.50094  0.57608  0.71519  1.0000
  H   H2100     1.0  0.69759  0.65421  0.67014  1.0000
  H   H2101     1.0  0.54440  0.73436  0.56864  1.0000
  C   C1230     1.0  0.71677  0.69961  0.64914  1.0000
  S   S356      1.0  0.77961  0.00506  0.61681  1.0000
  H   H2102     1.0  0.72271  0.64297  0.62660  1.0000
  H   H2103     1.0  0.65882  0.89296  0.55045  1.0000
  H   H2104     1.0  0.72920  0.59337  0.63727  1.0000
  C   C1231     1.0  0.71367  0.63697  0.63916  1.0000
  H   H2105     1.0  0.70210  0.68799  0.62383  1.0000
  C   C1232     1.0  0.65672  0.77565  0.52963  1.0000
  S   S357      1.0  0.83472  0.52299  0.54808  1.0000
  N   N86       1.0  0.88826  0.55831  0.58424  1.0000
  H   H2106     1.0  0.64334  0.65711  0.66447  1.0000
  H   H2107     1.0  0.70289  0.59498  0.65104  1.0000
  C   C1233     1.0  0.53729  0.75684  0.56992  1.0000
  S   S358      1.0  0.95463  0.00802  0.71928  1.0000
  H   H2108     1.0  0.69469  0.82666  0.55137  1.0000
  C   C1234     1.0  0.96217  0.64344  0.75452  1.0000
  H   H2109     1.0  0.51539  0.57082  0.74336  1.0000
  C   C1235     1.0  0.49794  0.87287  0.75341  1.0000
  H   H2110     1.0  0.73831  0.92794  0.55813  1.0000
  H   H2111     1.0  0.85825  0.54925  0.60175  1.0000
  C   C1236     1.0  0.66890  0.87360  0.55543  1.0000
  H   H2112     1.0  0.52299  0.90800  0.75800  1.0000
  H   H2113     1.0  0.53394  0.76374  0.55614  1.0000
  C   C1237     1.0  0.49761  0.52755  0.74478  1.0000
  S   S359      1.0  0.97262  0.92596  0.72934  1.0000
  H   H2114     1.0  0.50932  0.86214  0.74363  1.0000
  Fe  Fe180     1.0  0.96543  0.51355  0.68787  1.0000
  H   H2115     1.0  0.94861  0.56145  0.59652  1.0000
  S   S360      1.0  0.83753  0.54037  0.63744  1.0000
  H   H2116     1.0  0.74465  0.89384  0.54780  1.0000
  C   C1238     1.0  0.87288  0.59038  0.61024  1.0000
  C   C1239     1.0  0.88768  0.52733  0.57744  1.0000
  H   H2117     1.0  0.74619  0.84602  0.55643  1.0000
  H   H2118     1.0  0.92820  0.53778  0.75590  1.0000
  H   H2119     1.0  0.96026  0.86710  0.73778  1.0000
  N   N87       1.0  0.69491  0.87393  0.54915  1.0000
  H   H2120     1.0  0.85384  0.56874  0.57203  1.0000
  S   S361      1.0  0.99101  0.55121  0.69147  1.0000
  H   H2121     1.0  0.52463  0.95798  0.74338  1.0000
  C   C1240     1.0  0.73205  0.83844  0.54716  1.0000
  H   H2122     1.0  0.53351  0.64180  0.75578  1.0000
  H   H2123     1.0  0.90465  0.00417  0.68439  1.0000
  C   C1241     1.0  0.51480  0.64227  0.76007  1.0000
  H   H2124     1.0  0.89483  0.52573  0.56375  1.0000
  C   C1242     1.0  0.98206  0.85399  0.75995  1.0000
  H   H2125     1.0  0.69460  0.91871  0.55859  1.0000
  H   H2126     1.0  0.53956  0.00147  0.75078  1.0000
  H   H2127     1.0  0.73400  0.81442  0.54565  1.0000
  H   H2128     1.0  0.50633  0.79163  0.76099  1.0000
  H   H2129     1.0  0.68506  0.89868  0.52611  1.0000
  H   H2130     1.0  0.52118  0.97601  0.72226  1.0000
  H   H2131     1.0  0.99064  0.54718  0.76104  1.0000
  C   C1243     1.0  0.51149  0.96635  0.73360  1.0000
  H   H2132     1.0  0.71295  0.88039  0.52380  1.0000
  Fe  Fe181     1.0  0.49478  0.72927  0.72372  1.0000
  H   H2133     1.0  0.50150  0.94706  0.72865  1.0000
  C   C1244     1.0  0.91324  0.51231  0.65694  1.0000
  H   H2134     1.0  0.94948  0.56150  0.76603  1.0000
  S   S362      1.0  0.77621  0.51236  0.61680  1.0000
  H   H2135     1.0  0.66273  0.85285  0.52097  1.0000
  C   C1245     1.0  0.68255  0.85332  0.51873  1.0000
  H   H2136     1.0  0.50986  0.55776  0.76540  1.0000
  H   H2137     1.0  0.88243  0.69878  0.81462  1.0000
  Fe  Fe182     1.0  0.95900  0.76796  0.82505  1.0000
  C   C1246     1.0  0.68222  0.65137  0.88727  1.0000
  S   S363      1.0  0.91930  0.77674  0.83255  1.0000
  H   H2138     1.0  0.68636  0.65504  0.90144  1.0000
  S   S364      1.0  0.64320  0.99269  0.97448  1.0000
  S   S365      1.0  0.96875  0.76418  0.79602  1.0000
  H   H2139     1.0  0.57924  0.99550  0.96346  1.0000
  Fe  Fe183     1.0  0.81928  0.74889  0.91077  1.0000
  S   S366      1.0  0.78156  0.74390  0.89966  1.0000
  S   S367      1.0  0.85576  0.73456  0.89842  1.0000
  Fe  Fe184     1.0  0.79971  0.76946  0.94684  1.0000
  S   S368      1.0  0.76132  0.76630  0.93811  1.0000
  S   S369      1.0  0.80624  0.78807  0.97420  1.0000
  Fe  Fe185     1.0  0.77193  0.72335  0.92569  1.0000
  S   S370      1.0  0.74546  0.68779  0.93387  1.0000
  Fe  Fe186     1.0  0.77376  0.78726  0.91324  1.0000
  S   S371      1.0  0.74850  0.82157  0.90172  1.0000
  S   S372      1.0  0.80993  0.72543  0.93612  1.0000
  S   S373      1.0  0.81195  0.79346  0.92261  1.0000
  Fe  Fe187     1.0  0.70387  0.98217  0.92416  1.0000
  S   S374      1.0  0.66548  0.96795  0.92738  1.0000
  S   S375      1.0  0.73795  0.95426  0.92672  1.0000
  Fe  Fe188     1.0  0.69804  0.53028  0.91839  1.0000
  S   S376      1.0  0.66682  0.54830  0.93405  1.0000
  S   S377      1.0  0.72304  0.56074  0.90349  1.0000
  H   H2140     1.0  0.92409  0.64115  0.78480  1.0000
  C   C1247     1.0  0.55459  0.51631  0.87395  1.0000
  H   H2141     1.0  0.53505  0.51748  0.87340  1.0000
  H   H2142     1.0  0.96140  0.88972  0.79004  1.0000
  H   H2143     1.0  0.65554  0.93299  0.96083  1.0000
  C   C1248     1.0  0.70453  0.93072  0.99802  1.0000
  C   C1249     1.0  0.92958  0.63741  0.79868  1.0000
  H   H2144     1.0  0.90694  0.63543  0.82206  1.0000
  H   H2145     1.0  0.62619  0.63885  0.88324  1.0000
  C   C1250     1.0  0.52743  0.81336  0.78075  1.0000
  H   H2146     1.0  0.59952  0.00326  0.91583  1.0000
  H   H2147     1.0  0.66628  0.66474  0.88357  1.0000
  H   H2148     1.0  0.64833  0.60749  0.85064  1.0000
  Fe  Fe189     1.0  0.67783  0.51575  0.95453  1.0000
  H   H2149     1.0  0.62255  0.63104  0.85108  1.0000
  C   C1251     1.0  0.92795  0.89475  0.77658  1.0000
  H   H2150     1.0  0.58948  0.95116  0.91490  1.0000
  H   H2151     1.0  0.95769  0.54427  0.80012  1.0000
  H   H2152     1.0  0.65132  0.64519  0.85702  1.0000
  H   H2153     1.0  0.53268  0.70285  0.77255  1.0000
  C   C1252     1.0  0.80482  0.77888  0.00981  1.0000
  C   C1253     1.0  0.72148  0.87478  0.96115  1.0000
  H   H2154     1.0  0.61835  0.60284  0.87723  1.0000
  C   C1254     1.0  0.94098  0.84164  0.80249  1.0000
  H   H2155     1.0  0.92932  0.61340  0.80035  1.0000
  H   H2156     1.0  0.53370  0.81060  0.79449  1.0000
  C   C1255     1.0  0.80815  0.76599  0.99311  1.0000
  C   C1256     1.0  0.81305  0.73610  0.99186  1.0000
  H   H2157     1.0  0.78128  0.64185  0.97698  1.0000
  H   H2158     1.0  0.81577  0.72598  0.97906  1.0000
  H   H2159     1.0  0.69815  0.65921  0.87973  1.0000
  C   C1257     1.0  0.74013  0.65248  0.92506  1.0000
  C   C1258     1.0  0.72333  0.63467  0.93371  1.0000
  C   C1259     1.0  0.71850  0.60635  0.92752  1.0000
  C   C1260     1.0  0.73012  0.59558  0.91237  1.0000
  C   C1261     1.0  0.74669  0.61350  0.90351  1.0000
  C   C1262     1.0  0.75181  0.64178  0.90988  1.0000
  H   H2160     1.0  0.71404  0.64277  0.94534  1.0000
  H   H2161     1.0  0.70573  0.59289  0.93449  1.0000
  H   H2162     1.0  0.75565  0.60546  0.89170  1.0000
  H   H2163     1.0  0.76470  0.65529  0.90304  1.0000
  C   C1263     1.0  0.73985  0.91693  0.92048  1.0000
  C   C1264     1.0  0.76003  0.90032  0.92571  1.0000
  C   C1265     1.0  0.76254  0.87081  0.92061  1.0000
  C   C1266     1.0  0.74510  0.85780  0.90987  1.0000
  C   C1267     1.0  0.72481  0.87437  0.90480  1.0000
  C   C1268     1.0  0.72204  0.90368  0.91023  1.0000
  H   H2164     1.0  0.77393  0.91036  0.93362  1.0000
  H   H2165     1.0  0.77828  0.85836  0.92454  1.0000
  H   H2166     1.0  0.71128  0.86455  0.89644  1.0000
  H   H2167     1.0  0.70645  0.91619  0.90605  1.0000
  C   C1269     1.0  0.90263  0.76659  0.85175  1.0000
  C   C1270     1.0  0.87861  0.77660  0.85384  1.0000
  C   C1271     1.0  0.86418  0.76769  0.86824  1.0000
  C   C1272     1.0  0.87348  0.74820  0.88061  1.0000
  C   C1273     1.0  0.89756  0.73833  0.87857  1.0000
  C   C1274     1.0  0.91212  0.74762  0.86434  1.0000
  H   H2168     1.0  0.87097  0.79114  0.84417  1.0000
  H   H2169     1.0  0.84569  0.77540  0.86954  1.0000
  H   H2170     1.0  0.90499  0.72328  0.88804  1.0000
  H   H2171     1.0  0.93057  0.73983  0.86303  1.0000
  H   H2172     1.0  0.90849  0.83775  0.78481  1.0000
  H   H2173     1.0  0.94069  0.90073  0.83041  1.0000
  H   H2174     1.0  0.80110  0.80201  0.01088  1.0000
  H   H2175     1.0  0.75150  0.76911  0.98748  1.0000
  H   H2176     1.0  0.52774  0.76230  0.80810  1.0000
  C   C1275     1.0  0.90759  0.87634  0.81161  1.0000
  C   C1276     1.0  0.74841  0.74675  0.98229  1.0000
  H   H2177     1.0  0.75451  0.63560  0.98884  1.0000
  H   H2178     1.0  0.61393  0.95727  0.92946  1.0000
  N   N88       1.0  0.88801  0.77446  0.95023  1.0000
  C   C1277     1.0  0.89325  0.74326  0.95526  1.0000
  C   C1278     1.0  0.91102  0.79134  0.95287  1.0000
  C   C1279     1.0  0.88094  0.77457  0.93102  1.0000
  C   C1280     1.0  0.86746  0.78549  0.96169  1.0000
  C   C1281     1.0  0.87282  0.72122  0.95170  1.0000
  C   C1282     1.0  0.92008  0.79344  0.97204  1.0000
  C   C1283     1.0  0.88362  0.80334  0.92087  1.0000
  C   C1284     1.0  0.86108  0.81823  0.96082  1.0000
  H   H2179     1.0  0.90968  0.73489  0.94819  1.0000
  H   H2180     1.0  0.89722  0.74153  0.96958  1.0000
  H   H2181     1.0  0.90940  0.81403  0.94816  1.0000
  H   H2182     1.0  0.92590  0.78161  0.94467  1.0000
  H   H2183     1.0  0.89188  0.75824  0.92336  1.0000
  H   H2184     1.0  0.86177  0.76783  0.92954  1.0000
  H   H2185     1.0  0.85052  0.77400  0.95819  1.0000
  H   H2186     1.0  0.87001  0.77969  0.97580  1.0000
  H   H2187     1.0  0.86814  0.71967  0.93752  1.0000
  H   H2188     1.0  0.87908  0.69919  0.95567  1.0000
  H   H2189     1.0  0.85636  0.72620  0.95964  1.0000
  H   H2190     1.0  0.93601  0.80803  0.97246  1.0000
  H   H2191     1.0  0.93622  0.72072  0.81432  1.0000
  H   H2192     1.0  0.92626  0.77205  0.97707  1.0000
  H   H2193     1.0  0.90294  0.80846  0.91844  1.0000
  H   H2194     1.0  0.87441  0.82196  0.92742  1.0000
  H   H2195     1.0  0.87516  0.80068  0.90769  1.0000
  H   H2196     1.0  0.84715  0.82232  0.95062  1.0000
  H   H2197     1.0  0.87670  0.83257  0.95862  1.0000
  H   H2198     1.0  0.85338  0.82532  0.97376  1.0000
  N   N89       1.0  0.91802  0.68039  0.81996  1.0000
  C   C1285     1.0  0.58957  0.98568  0.86579  1.0000
  H   H2199     1.0  0.68940  0.66695  0.97140  1.0000
  H   H2200     1.0  0.90855  0.69038  0.78404  1.0000
  C   C1286     1.0  0.91110  0.65165  0.81166  1.0000
  H   H2201     1.0  0.89936  0.71877  0.83022  1.0000
  C   C1287     1.0  0.56727  0.99554  0.85894  1.0000
  C   C1288     1.0  0.65854  0.99931  0.99461  1.0000
  H   H2202     1.0  0.71458  0.64581  0.97856  1.0000
  N   N90       1.0  0.74070  0.69431  0.99327  1.0000
  C   C1289     1.0  0.98670  0.52542  0.81459  1.0000
  C   C1290     1.0  0.55194  0.99035  0.91143  1.0000
  S   S378      1.0  0.50203  0.94653  0.78417  1.0000
  H   H2203     1.0  0.54856  0.97056  0.94364  1.0000
  H   H2204     1.0  0.71775  0.85104  0.96090  1.0000
  H   H2205     1.0  0.51296  0.99674  0.91758  1.0000
  H   H2206     1.0  0.90621  0.80302  0.98105  1.0000
  H   H2207     1.0  0.93724  0.69724  0.84256  1.0000
  C   C1291     1.0  0.50664  0.62140  0.77228  1.0000
  H   H2208     1.0  0.53118  0.00306  0.94339  1.0000
  H   H2209     1.0  0.98067  0.90203  0.81561  1.0000
  C   C1292     1.0  0.95786  0.65998  0.83327  1.0000
  H   H2210     1.0  0.67713  0.89771  0.00509  1.0000
  C   C1293     1.0  0.93346  0.67588  0.83607  1.0000
  N   N91       1.0  0.65421  0.60654  0.88846  1.0000
  C   C1294     1.0  0.64948  0.61458  0.90755  1.0000
  C   C1295     1.0  0.67857  0.61865  0.88338  1.0000
  C   C1296     1.0  0.65547  0.57371  0.88733  1.0000
  C   C1297     1.0  0.62574  0.60300  0.91566  1.0000
  H   H2211     1.0  0.66476  0.60715  0.91599  1.0000
  H   H2212     1.0  0.64842  0.63863  0.90934  1.0000
  H   H2213     1.0  0.68277  0.61500  0.86922  1.0000
  H   H2214     1.0  0.69320  0.60685  0.89037  1.0000
  H   H2215     1.0  0.66945  0.56528  0.89655  1.0000
  H   H2216     1.0  0.63810  0.56379  0.89151  1.0000
  H   H2217     1.0  0.62306  0.61301  0.92893  1.0000
  H   H2218     1.0  0.60963  0.60856  0.90770  1.0000
  H   H2219     1.0  0.62643  0.57917  0.91773  1.0000
  H   H2220     1.0  0.67773  0.56896  0.86296  1.0000
  N   N92       1.0  0.71135  0.92090  0.97959  1.0000
  C   C1298     1.0  0.73659  0.93181  0.97583  1.0000
  C   C1299     1.0  0.71266  0.88805  0.97887  1.0000
  H   H2221     1.0  0.87691  0.65875  0.83825  1.0000
  C   C1300     1.0  0.69424  0.93361  0.96618  1.0000
  C   C1301     1.0  0.95722  0.51412  0.76896  1.0000
  H   H2222     1.0  0.76438  0.74118  0.97399  1.0000
  H   H2223     1.0  0.70434  0.95487  0.99909  1.0000
  C   C1302     1.0  0.67043  0.91695  0.96274  1.0000
  H   H2224     1.0  0.75010  0.92072  0.98439  1.0000
  H   H2225     1.0  0.50437  0.73647  0.80605  1.0000
  H   H2226     1.0  0.69510  0.87788  0.98194  1.0000
  H   H2227     1.0  0.52031  0.83596  0.77949  1.0000
  H   H2228     1.0  0.97705  0.52871  0.82736  1.0000
  H   H2229     1.0  0.75824  0.97064  0.97221  1.0000
  H   H2230     1.0  0.68929  0.95646  0.96982  1.0000
  H   H2231     1.0  0.92872  0.87379  0.76932  1.0000
  S   S379      1.0  0.63041  0.98877  0.88635  1.0000
  H   H2232     1.0  0.59616  0.96411  0.86232  1.0000
  H   H2233     1.0  0.92917  0.71989  0.78143  1.0000
  H   H2234     1.0  0.62950  0.98310  0.01082  1.0000
  S   S380      1.0  0.98699  0.80196  0.83023  1.0000
  H   H2235     1.0  0.94858  0.64406  0.80032  1.0000
  C   C1303     1.0  0.67950  0.92162  0.00493  1.0000
  H   H2236     1.0  0.98291  0.88506  0.83660  1.0000
  C   C1304     1.0  0.58981  0.99464  0.92754  1.0000
  H   H2237     1.0  0.66434  0.90251  0.97339  1.0000
  H   H2238     1.0  0.74135  0.87706  0.95954  1.0000
  N   N93       1.0  0.93426  0.87246  0.80776  1.0000
  C   C1305     1.0  0.63968  0.62571  0.85799  1.0000
  C   C1306     1.0  0.63378  0.61835  0.87737  1.0000
  H   H2239     1.0  0.89407  0.65430  0.80401  1.0000
  H   H2240     1.0  0.94851  0.69092  0.80269  1.0000
  H   H2241     1.0  0.94419  0.86297  0.83486  1.0000
  H   H2242     1.0  0.87708  0.85941  0.82651  1.0000
  H   H2243     1.0  0.94097  0.82719  0.81421  1.0000
  C   C1307     1.0  0.66112  0.56022  0.86911  1.0000
  H   H2244     1.0  0.64537  0.56223  0.86020  1.0000
  H   H2245     1.0  0.74214  0.92649  0.96203  1.0000
  H   H2246     1.0  0.89639  0.87428  0.79965  1.0000
  H   H2247     1.0  0.73134  0.65546  0.00816  1.0000
  N   N94       1.0  0.56366  0.00442  0.92729  1.0000
  H   H2248     1.0  0.96000  0.84056  0.79767  1.0000
  C   C1308     1.0  0.94748  0.87977  0.82463  1.0000
  C   C1309     1.0  0.50965  0.75885  0.80205  1.0000
  H   H2249     1.0  0.98382  0.86288  0.81726  1.0000
  H   H2250     1.0  0.66444  0.53650  0.87075  1.0000
  H   H2251     1.0  0.72502  0.87975  0.98929  1.0000
  C   C1310     1.0  0.94224  0.89390  0.79395  1.0000
  H   H2252     1.0  0.90378  0.89893  0.81645  1.0000
  C   C1311     1.0  0.59431  0.96144  0.92769  1.0000
  C   C1312     1.0  0.89681  0.85505  0.82513  1.0000
  H   H2253     1.0  0.55031  0.76417  0.78189  1.0000
  H   H2254     1.0  0.94166  0.91651  0.79945  1.0000
  C   C1313     1.0  0.59196  0.51726  0.89135  1.0000
  H   H2255     1.0  0.51910  0.60531  0.77738  1.0000
  H   H2256     1.0  0.69389  0.66211  0.99445  1.0000
  H   H2257     1.0  0.96805  0.66051  0.84585  1.0000
  H   H2258     1.0  0.74100  0.97147  0.99216  1.0000
  H   H2259     1.0  0.72281  0.69882  0.96800  1.0000
  C   C1314     1.0  0.99300  0.54329  0.77540  1.0000
  H   H2260     1.0  0.77950  0.68726  0.98995  1.0000
  S   S381      1.0  0.98340  0.73127  0.83341  1.0000
  N   N95       1.0  0.51109  0.76087  0.78218  1.0000
  H   H2261     1.0  0.70517  0.71104  0.98626  1.0000
  H   H2262     1.0  0.92384  0.66270  0.84608  1.0000
  H   H2263     1.0  0.71231  0.88451  0.94963  1.0000
  C   C1315     1.0  0.76226  0.64955  0.97851  1.0000
  C   C1316     1.0  0.91672  0.70924  0.79091  1.0000
  H   H2264     1.0  0.71827  0.92298  0.00766  1.0000
  C   C1317     1.0  0.89519  0.69623  0.82580  1.0000
  H   H2265     1.0  0.90470  0.85777  0.83844  1.0000
  H   H2266     1.0  0.76424  0.69353  0.97036  1.0000
  H   H2267     1.0  0.81848  0.69620  0.00628  1.0000
  C   C1318     1.0  0.76224  0.68228  0.98321  1.0000
  H   H2268     1.0  0.88937  0.68508  0.85375  1.0000
  H   H2269     1.0  0.58490  0.95063  0.93874  1.0000
  H   H2270     1.0  0.96961  0.67043  0.82334  1.0000
  H   H2271     1.0  0.73198  0.74774  0.97401  1.0000
  H   H2272     1.0  0.55688  0.98159  0.85033  1.0000
  C   C1319     1.0  0.93108  0.70023  0.80739  1.0000
  H   H2273     1.0  0.75280  0.64562  0.96584  1.0000
  C   C1320     1.0  0.70351  0.66532  0.98173  1.0000
  H   H2274     1.0  0.51989  0.98915  0.89497  1.0000
  H   H2275     1.0  0.62482  0.51215  0.87633  1.0000
  H   H2276     1.0  0.90248  0.72560  0.79429  1.0000
  C   C1321     1.0  0.55012  0.99470  0.94350  1.0000
  S   S382      1.0  0.68465  0.53257  0.98227  1.0000
  H   H2277     1.0  0.89887  0.83208  0.82074  1.0000
  C   C1322     1.0  0.93989  0.54060  0.76765  1.0000
  H   H2278     1.0  0.86263  0.69345  0.84196  1.0000
  H   H2279     1.0  0.49529  0.71827  0.77760  1.0000
  H   H2280     1.0  0.66477  0.93242  0.99750  1.0000
  C   C1323     1.0  0.88045  0.68213  0.84078  1.0000
  C   C1324     1.0  0.92542  0.82642  0.78829  1.0000
  H   H2281     1.0  0.75826  0.00824  0.94716  1.0000
  H   H2282     1.0  0.72650  0.97779  0.97113  1.0000
  C   C1325     1.0  0.74045  0.96489  0.97805  1.0000
  H   H2283     1.0  0.95523  0.63669  0.82988  1.0000
  H   H2284     1.0  0.93614  0.82316  0.77599  1.0000
  H   H2285     1.0  0.95948  0.68311  0.77015  1.0000
  C   C1326     1.0  0.71826  0.69373  0.98196  1.0000
  N   N96       1.0  0.97812  0.51756  0.78152  1.0000
  H   H2286     1.0  0.55059  0.96635  0.91304  1.0000
  H   H2287     1.0  0.54928  0.99490  0.97210  1.0000
  C   C1327     1.0  0.60324  0.00327  0.87726  1.0000
  H   H2288     1.0  0.56326  0.99345  0.89944  1.0000
  H   H2289     1.0  0.49926  0.80300  0.81143  1.0000
  C   C1328     1.0  0.56065  0.00405  0.96140  1.0000
  C   C1329     1.0  0.81453  0.71928  0.00727  1.0000
  C   C1330     1.0  0.97525  0.88252  0.82317  1.0000
  Fe  Fe190     1.0  0.66200  0.00251  0.94842  1.0000
  C   C1331     1.0  0.52615  0.00112  0.90690  1.0000
  H   H2290     1.0  0.52066  0.99974  0.76976  1.0000
  C   C1332     1.0  0.74581  0.72573  0.99795  1.0000
  H   H2291     1.0  0.54002  0.71400  0.79484  1.0000
  H   H2292     1.0  0.54318  0.81128  0.77164  1.0000
  H   H2293     1.0  0.92774  0.54215  0.77933  1.0000
  C   C1333     1.0  0.99253  0.65993  0.77553  1.0000
  H   H2294     1.0  0.92014  0.80448  0.79298  1.0000
  H   H2295     1.0  0.67170  0.90444  0.95015  1.0000
  H   H2296     1.0  0.59963  0.00371  0.93904  1.0000
  H   H2297     1.0  0.70343  0.93503  0.95311  1.0000
  C   C1334     1.0  0.54270  0.71881  0.78068  1.0000
  C   C1335     1.0  0.73626  0.67853  0.01036  1.0000
  H   H2298     1.0  0.90900  0.90226  0.77848  1.0000
  C   C1336     1.0  0.50751  0.79153  0.77563  1.0000
  C   C1337     1.0  0.67277  0.51801  0.00195  1.0000
  C   C1338     1.0  0.56655  0.51890  0.89030  1.0000
  S   S383      1.0  0.60599  0.52035  0.91240  1.0000
  C   C1339     1.0  0.53582  0.75052  0.77606  1.0000
  C   C1340     1.0  0.60533  0.51333  0.87578  1.0000
  H   H2299     1.0  0.56217  0.71513  0.77757  1.0000
  H   H2300     1.0  0.55599  0.52210  0.90223  1.0000
  H   H2301     1.0  0.98655  0.56396  0.78173  1.0000
  H   H2302     1.0  0.76292  0.72769  0.00548  1.0000
  Fe  Fe191     1.0  0.64501  0.51254  0.92148  1.0000
  Fe  Fe192     1.0  0.65606  0.00373  0.90826  1.0000
  H   H2303     1.0  0.73134  0.73484  0.00676  1.0000
  C   C1341     1.0  0.96798  0.52333  0.79971  1.0000
  S   S384      1.0  0.51375  0.52091  0.79761  1.0000
  C   C1342     1.0  0.64750  0.99219  0.01076  1.0000
  C   C1343     1.0  0.56793  0.51209  0.85838  1.0000
  C   C1344     1.0  0.97037  0.66411  0.76702  1.0000
  H   H2304     1.0  0.93656  0.91093  0.76775  1.0000
