data_image0
_chemical_formula_structural       FeSCFeS2FeSFeS3HFeCFeHSHC2H4SH9CHC2H2CH7CHCH3C2H3SH2C2SHNC6H4C6H4C6H5C3H6CH2CHCHCHCH7C3H3C2H3C2H5SHCHC2H2C2H2CSH4CHFeCFeSCH2CHCHCH3C2SH4CHS2H3SFeHSHNHCHC3H2SHSCHCHC2HCH3CHCH2CH2CH4CH8NC3HCH2NCHC2H4CH2NCH2CH2NHCH3SH6CH2FeS2FeS2FeSFeS3FeS2FeS2FeSFeS3FeSFeS2FeS2HNFeS2H2FeSHSFeS2FeSFeSFeS2FeCSH2FeS2H2CSHSCHCFeS2H2SC6H5C2HC3NH3C6H4C6HCH2C5H3C6H4C6H4C6H4C6H4C6H4C5H3FeCHNCHC3SCH8SHCHCHCH4C2HC2HCH3NC4HC4SH21CHCH4NHCH4CH5CFeHSNH2CHCHCFeH5C3HC3H4SH8C2H3CH3CH4CSH3CNC6HCH14C2H4NC7H6CH17C2H2CH2CHCHCNC8H20C3H8CHCH2CH6CHC2H3CH6CHNCSCSHC2H3C2H5NH2NHSH4CSHFeH4CHCH3FeNSHFeS2FeS2FeSFeS3FeS2FeS2FeCFeS3FeS2FeS2FeSFeS3FeS2FeSHFeCFeHS2H2CH2SHC3HC3H2C6H3C6H4C2H8CH3C2H2C3SCH2CNH3C2HC2H2C2HC6H4C6H4C3H4CHSC6H4C3H3NHCH3NC2SCHCHCHCH3SH4C2HC2HCH2CSCH2CH4CFeH4C2HCH3CHCH2CNC7H16CHCHC2H3C4H2C2HCSH3CHCHCH6CH5NH2NC8H25CSH8CHSH2CHCH2C2H7CH4C3H7CHNC5HC2H12C2H6C3H4CH3CH5CH3SH5CH7C3HCH6CHC2H3CH2Fe2H2NCHSHFeNH2C2H3SHNSHSHCHS3CFeSFeSHNS3FeS2FeS2FeHFeS3HFeHSHCH2FeSHFeS2Fe2S3CHC7H6C2HCH4C4NCH4C6H4C6H4C6H4C6H5SHC2H3FeHCHFeC4H5C5HC2H4FeHFeSN2C5HCH2CH5SHCH4CHSH3CH6SHFe2CH3SHSNC8H21C2HCH4CHCHSHCHCHSHSH4NC8H20NC8H18C2HC2H2CH5SH3CH3CH3SH2C2HCHCSFeH2CFeH4CH3CH2S2H2CH2CNCSH2SH3SCSFeCHC2SC2H2SHNHFeS3HSCSFeHS3FeS2FeSHFeS2Fe2SHSFeSHFeS2FeSFeHS2H10C2H3C6H3C6H5FeCH6C5H4C6H4C6H12SCH3CH2CH6CFeSH2NH2CH3CH2CHC2HCHFe2H3CH2C2H7CHCHFeHC5HC3H2CH2C2HSHC5H4SCH3SC2H3CHNH2NH2FeCFeHCSCH3FeH4CH3CSC2HCH4CH2CHCH3CH2SH2SFeH2NC8H20NC4HCHCH10CHC2HCH2CHNC8H22C2HC2SNC3H4SHCHC2H4C2HSCH3CHSH2C2SH5CHSC3HCNFeH8C3HS2FeS2CSFeSFeSH3CSFe2HSFeS2FeS2FeSFeS3FeS2FeS2FeSFeS3HFeS2FeSFeSFeS3CHCHC2HCH2C3H2C7H4C6H4C6H4C2HSC6H4C6H4C6HCH2CHC2H4CH4C3HCH2NC3H2C2H7SHCH7CH2FeNC5H3CH7CH9CHNHNC8H17C3H2CH7CHCH4CHCH5CH2CH2C2H3CH2SC2SH2CSH3CH3CH2CH2CH2SHSC3HCH2SC2H3CH3SC2H2C2HC2H4C2H3CSHC2H2CH2CHNC8H20NC5HC2NH2CH6CH2CH6NC8H23C2FeCH3FeSHCH5C2SH3CFeCH3CHNC5H2CH2FeH2CHCHSH3NHC3H9CHNCH3NSHFeH5CH2C2H3SCFeSHFeS2FeSFeS3FeS2FeS2FeSFeCS2FeS2FeS2FeHFeS3NH4S2FeS2FeS2FeSFeS3HCS3HFeSCSC6H4C6H4C6H5C2H4C3H3C6H9CH3C6H5C6H7C6H2CHCH6C5H4CFe2H3C2HFeHCH4C2H5CHC2H3CH4C2SHSH7CHSH5C2H6NHCH3CHCH2NCH2NH2C3HC2H2NH2CH3CH3CH5C2H5CH4FeH2C5H2C2HNC5H12C3HC2SH3CH2C2H4CH8NC8H24CH3CH6CH4C2H5CH2FeCH4CNSH3CH2NHCH2CHC5H3CHSC2H2CHC2SH3CH4C4H5CH7C2H3NH4NH3CH5CHSH2SCH2CH2CSHS2FeSFeSFe2S2CFeHS2HSH4CHCHCH3C2H5SHCSH4SHFeSHC2HC2HCNH2CFeSCHSH2CH3SC2FeHC4H4CHC2HC2HC2HC3NH2C2H7C2H5CH2C6H2C6H5C2HC7H4C2HNHC2SCHCSCHNCHCH2NCHSHSCH6CH6C2H3NHCH2FeHCH2SHCH2CH2CHC2HFeH2SH6SHC3H7FeHFeHC3SHCH2C2H2CH2CHSCH2CH3CSHCHCHSC3H3C4H2CHCFeH2C2H3CHSH4CH2CH2C3H5CHS2HCHCS2HC2HCHC2H2NH2C2H4CH2NHCH3CH3FeHC2HCH3C2H2FeH2CH2CH3FeH3FeCHC2NHCHCH4FeHNHC2H2C2HCHC2H2CHFeH2SCHCH3S3H3CH2FeH2SHCHSFeSH2SC2SHCH6FeS2FeS2FeSFeS3FeS2FeSHFeSFeS3FeS2FeS2FeS2FeSFeS3NH3FeSH2FeSCFeSFeSFeS2H2FeC6H4C6H4C6H3C6H4C6H4C6H4C6H5C4H5CHC2H2CHCHC5H3C2H2CH2CH5C2H2SFeH4SHCH2NH2C2HC3H7CHCSCH6SH10SC2HCNC8H20NC8H22C2H7SNC8H21NH2C3H5CHCH4C2HCH3CNHC2FeHC2H2CH8FeH4SH2C2H2C2SH7C3HC2H4NC2HC2H4CH5CH3CHCNC3FeCHC3HNCH3CH5CH4FeS2C2HSH3CH2CHSHCH2CHC2HC2H7SC3H3SHSHCHC2H2CHSHCSFeCH2CHS2FeS2HSHFeSFeS3FeS2FeS2FeSFeHS2HCH4CH2CHC2H6C6H4C2H3CH3NC6H3C7H3CH2SH4CHCH5C2H4C2H2CH2CHCFeNC2H4FeH5NCH4C3HCH2NH2C3HC3HCH7CHCHCH2CNC2SHCH2CH3CHSHC2H2CHNHNH2C3H4C2H15C2HCH3CHSCH2C2HCHCHC2H5CHCHC2H2CHCH3CH3C2H2CH2CH3CH3CH9C2H2C3H2CFeSFeS2FeSFeS3FeS2FeS2FeSFeS3HCFeS2FeSFe2S3HSFeS2FeSFeS2HC6H3C3H2C6H4C2H2C6H4C6H4CH2CHCHC6HNH2CNH4CHCH2C3HCH2C2H3C2HCNH3CH2CH3CHCHCSH2CH2SH3CHCHCHCHCH2CHC3NH4CH16CSCH3CH7C2NH5NCH7NC8H22CH3C2H2FeCH2SHCH11CHC2NC8H11CH10CH2CH3SHSH2CHCHC3HCH2C3HCHCHN2C2H2CSH7CHC2SHCH3CH2NC2H5C3HSHSH2NC2HCHC3HCH2SH2CH7CH3CHCH3C5HC3H3SFeS2FeSFeSFeS3FeHCFeS2FeSHS3FeS2FeS2FeSFeS3HSC2SHCFeS2H4CH2SFeCH2SCH2CFeC3HNSH2CHFeS2FeSHFeSFeS2HCH10SCH2NH2C3H2C2H3C6H4C6H4C6H4C2H3C6H4CH4C2HCHC6H2C7H3C6H4CH2CHC2FeH2C6H7CH5CSH3SC2HCH11C2HCSH4NC7H17NC8H20NC7H11CH5C2NH10CFeH2SC2SH2CFeH2CHNC8H20NH3C2H8NC5H8CH13CH2S2H2C4HCH3CHCSFe2HC2H2CH2CH2SFeS2FeS2FeSFeS3FeSHFeS2FeSFeS3FeS2FeSHFeHFeS3CHCH3CSHFeS2FeS2FeSFeS3FeS2HCFeSHS2FeS2FeS2FeSFeS3H2SCHC7H4C4H3C6H8CSC8H4CHCH2C7H4C4H3C6H4C6H4C6H4C6H4C6H4C2H3CHCHNC4HC3H8CH3CH4CH2NC8H23CH2C4HCH5CH2C2H13NC2HFeCH3CH2CHCH7SH3CH3C2FeHNC2H8CNC8H20NHC2H2CH2CHC7H2CH5CH2NH3CH2CH2CH3CH2CNC8H20C2H2SNHNH3C2H5CNHC2H2SH2C4H3CH3CHSH2CH3CNHC2H7SH2CNH2C2H2CHCH2CH3CH3CH3C2H2FeCH5SH7CH6CH8CFeH3C2HFeH3NHSCFeHFeS2FeS2Fe2HS2HSCH2CHSFeSNCH3C2S2CSFeCSCH2FeSHSHCHC2H2C6H2CH7SH2SH5CHSC5H5C6H3C6H6C2H3CHFeH3CHCH2CFeNH6SH2CH2CHCHSFeH2CHCHNCH2SCHCHC4H4CNH2C5SHSHCFeH3CH5CH3CH2C2H4CH4CHCSNHCHCHC2H3FeHFeH2CH2CH2FeCH2CH2CH2C2HCH4SC2HCH6FeHSH8C3HN2C8H15SH4NC8H3CH3CHCHCH2CH3S2CH3SH2CH3C2H4CHCSCFeH2FeCFeSHSFeS2FeS2FeSFeS4HSCH3CHC2SFeS2FeS2FeHFeS3HSCHNH2SHFeS2FeSFeHS2C6HC2HCH4C2H3C6H4CH3CHFeC3HC8HCH3CHC6H4C2H2C2H2SHC6H4C6H7C3SH3N2C7H16CFeCH5SH3C2NH3SHC2H9CH2CS2H4NC8HFeH6CH4CH7CH2NC2FeC4H4CH9CH2CNC8H22CH4NH2CHCHCHCH2CHC2HSCHSHCSH2C2H2CH5FeHFeCH4CHCH4CHCHC3H2SHCH5SC2H3SCH2CH3CHSC2HNHCNFeCH3CHSHCH2CFeC2S2HC2H4SH2SH4CHC2HFeCH6C2H3FeH4CHNCH7SHC2HFe2C3H2CH7CFeHCNH4CHSFeSFeS3FeS2H2SCFeS2FeSFeHFeS2FeS2FeSFeS3FeS2FeS2FeSFeS3FeS2FeSH2FeS2HCHCH2CH2SHCHCSHC6H4C6H4C6H5NC6H9CHC4SH2CHFeHCH2C6H4C4H9CNC5H2CH22C2HC2H6NC8H20NC8H24CH3CH2C3H3FeHCH2C2SH2CH2CH2CFeHC2H2CH2CH3FeNC7H19CS2H4NC8H14C3H6NHC2HCHSCH2CH2NC8H5SCSC3S2HCHCH7C2FeHC4H2CNH2CH4C2H6SH2C3HCHNCNH3C5H2CH4CH5NHCSH2CH4C3HCHC2H6CHC2HFeSHFeS2FeCFeS3FeS2FeS2FeSFeS3FeS2FeS2FeSFeS3FeH3FeHFeSHCHSHFeS2FeS2FeSFeHS2C3H2C4H4NH2C7H4C6H4CH2SC4HCH3C6H4C6H7C6H4C6H4C4HCH6CH4CHCH3CH3SH5C3HCHCHCFeH3CHNH2CH4SC2H12NC4H2C3H3CH3CH2SHNH9SCH2C6H7CH6C2H5CSFeHCH5CHFeCHCH3CHCH2C3SH4CH3CH3SC2H3SC2H2NC8H21C2H3NC4H12C2NHSHCH4CH2NCH2C4HFeH4C2H3C2HCNHCHC3SH2CH3C2H5NHCH6CH3C4HCS2H2C2H3CH4CHNCHCH2C3HC2HCH5C2H5C3H3CH4CH9CHSHSHCHCHS3CFeCHSH3FeNH2C2FeS2HCH2CHCHCNFeSHCFeSHFeS2FeS2FeSFeS3CSHSCFeSCHSHNHFeC6H5CH6CHC6H8NH4CH2SC4HCH2C6H4CH6FeCHCH2C7H7C4H2SH7CHCHCHCH4SHC2HS2HCHCH2CHC2H2NH2FeSH4C2H2CNC7SH8FeHCFeHCS2H4CH2C2H2CHCH3FeH6SC2H2CH3C2NH2CSH3CHSH3C2HCH3CH4NC8H17C2H2FeSHCS2FeCFeH2C2H2CSH3CH4SCSCH2SH3FeH2CH7CH4FeCSH2CHSHFeS2FeSHSH5C3H2S3FeS2FeHSFeH3S3HC2SCFeS2FeSCFeSFeS2H2C2HC2H2C7H4C4H2C6H4CH5C2H2SHSCHC3H2CFeCHCSH2C3HCH2C6H5SHFeHC2H8C3NH3CH3SC2FeCH3CH5CH2FeH2CH3CNH4CH6CH10C5H2CH2CH2SH2C2HC2NHCH3CNC8H8CH11NCHC2NH3NH5C2HC2SH7C2H8C2SC2H3FeCHC2HCH2CHCHFeCH4CNSH7CHCSHCS2HSCFe2S2FeS2FeSFeS3FeSFeS2FeS3CHFeS2FeS2FeS2FeS2FeSFeS3H3FeS2FeS2FeHFeS3H2SFeSH3FeSCSH3CHFeHC2HCH8C5H2C6H4C6H4C6H4C2HC8H2C7H3C6H4CHCH2FeH3C8H3C3H5NC8H3CH16NCHC2SCH2CH11NC8H20C3H7CHNC3H11CH8NHNC8H20C2H5CH4CH2CHCNH3CH2CH2CH2CH5CH2CH3FeC4H2CHCHCH2C2HC2H3C2HNH2CHCHNHSCH3FeH2SCHC3H3CHNCNH7CHNH2CH2SH3C3HC2H3CHC2H3SHCHSH2C2H2C3SCH8CHSCH2CHSH2FeCH2NHCH8C3HS2H6CH2C2H5SH3FeS2FeS2FeHFeNS2FeS2FeS2FeHFeS3FeS2FeH2SCNHCHCHC6H4CH2C3NCH2C5H4CHCHC7HCH5CH3CH5C3HNH2NCH2C2SH6C2H5CHNHCH4CHFeHCHCH3C3H3NH3CH10SC2H5CHC3HC3H3CH6CHC2H6C2H2C2HC2HSH4CH9CHSCHSHCHCHCHCH2CHC3HC2H2SHSHCFeC2HCH3CH7CHC3H2FeHFeS2FeSCFeSFeS3FeS2FeS2FeSFeS3CHSH3CH2SHFeS2FeSFeCSHFeS2FeS2FeSFeS3HCFeS2FeSHFeSFeS3FeS2FeSFeSFeHS2H3SH3CFeH5C2H4C2HC3HSHC2H3C6H4CH4C7H4NHCH5CHC6H5C5HNC3HC3H2CHC6H4C6H4CHC6H4C6H8CHNH4CHFeCSC2H3NC2H8NC8H20NC8H20CH3C5H3CHC2H3CH2CH2CHCHC2H5CNCH3C2H2CH4CSH5CH4NC8H20CHCHCH4SH3CHCNCHC6H9NHCHCHCH2CH3CH2CH2SHSH5SHC2H3CH4CHCHSCH2SHCH3C5HNCHFeC2H2NH2CH7CHC3H5CH3C2HCHCHCH2NC2H4CH3CH2C2HNH5CHCHC2HCH2CSH6CH9C2NCHCH3C2SH3CHCH2CSH7SHCHCH2C2HCH2FeHSCFeS2FeS2FeSFeS3CH5CSHFeS2FeS2FeSFeS3CSHCH2CFeSCSH3CNCHC2H4CH6CHC6H4C2NHCH2CH2C6H5CSH3CSH4NH2CH2C2HCHCHCHC6H4C6H4C6H4C2H2CH2NHN2CH3CH2SH2CHSH3FeCHCH3CHSC2SH2C2HC2H5FeHCHCHNC8H5CH9C2H8FeC2HC3H2SH3CH3CSCHSH3CH3C2H4CHCH4C3H5FeHCH3C5H3CH3SH3C3H2CHC2NHFeH3CH3CH2CHSH2C2SH10FeH2CH8SH3CHNH2CHFeHC3HCSH4CH4C2HCH2FeSHFeS2FeSFeS3FeS2FeS2FeSFeS3HC4SFeSHCH4C5HCH3C2HC6H2C6H4C6H4CH2C6H4CHNC3H9NCFeHCH4SCHC2H5NHCH6SHS2CHC2H2CHCHCHCH6NCH3CH2C2H2C2H4CHCHCHCH4CH2C4HSFeH5CNH11CH2CH3C2H7FeH5CH2FeH2CH9SCH9C2HCHFeCHCHC3H3NSH5SC3H
_chemical_formula_sum              "Fe480 S960 C3360 H5760 N240"
_cell_length_a       78.9091
_cell_length_b       79.1362
_cell_length_c       79.1727
_cell_angle_alpha    75.0359
_cell_angle_beta     75.0323
_cell_angle_gamma    75.1028

_space_group_name_H-M_alt    "P 1"
_space_group_IT_number       1

loop_
  _space_group_symop_operation_xyz
  'x, y, z'

loop_
  _atom_site_type_symbol
  _atom_site_label
  _atom_site_symmetry_multiplicity
  _atom_site_fract_x
  _atom_site_fract_y
  _atom_site_fract_z
  _atom_site_occupancy
  Fe  Fe1       1.0  0.44058  0.13624  0.12548  1.0000
  S   S1        1.0  0.44577  0.13467  0.09671  1.0000
  C   C1        1.0  0.24372  0.30725  0.08622  1.0000
  Fe  Fe2       1.0  0.40773  0.11923  0.13564  1.0000
  S   S2        1.0  0.41022  0.11662  0.10745  1.0000
  S   S3        1.0  0.38509  0.10885  0.15669  1.0000
  Fe  Fe3       1.0  0.43955  0.10732  0.10718  1.0000
  S   S4        1.0  0.45792  0.08241  0.09950  1.0000
  Fe  Fe4       1.0  0.41591  0.14442  0.09961  1.0000
  S   S5        1.0  0.40549  0.16431  0.07642  1.0000
  S   S6        1.0  0.43672  0.10803  0.13582  1.0000
  S   S7        1.0  0.41105  0.14791  0.12789  1.0000
  H   H1        1.0  0.32587  0.22620  0.04846  1.0000
  Fe  Fe5       1.0  0.35962  0.28620  0.02292  1.0000
  C   C2        1.0  0.23187  0.31151  0.99523  1.0000
  Fe  Fe6       1.0  0.45374  0.00898  0.05675  1.0000
  H   H2        1.0  0.23603  0.29884  0.03583  1.0000
  S   S8        1.0  0.43325  0.03400  0.06200  1.0000
  H   H3        1.0  0.47471  0.07576  0.02588  1.0000
  C   C3        1.0  0.27689  0.31135  0.06305  1.0000
  C   C4        1.0  0.43058  0.05641  0.14157  1.0000
  H   H4        1.0  0.45965  0.98490  0.20262  1.0000
  H   H5        1.0  0.48458  0.25015  0.10856  1.0000
  H   H6        1.0  0.46995  0.27852  0.09626  1.0000
  H   H7        1.0  0.41286  0.01824  0.10949  1.0000
  S   S9        1.0  0.35932  0.24202  0.08202  1.0000
  H   H8        1.0  0.25447  0.29253  0.12629  1.0000
  H   H9        1.0  0.38415  0.27030  0.07237  1.0000
  H   H10       1.0  0.43238  0.24505  0.06998  1.0000
  H   H11       1.0  0.48985  0.10687  0.02776  1.0000
  H   H12       1.0  0.27231  0.27318  0.01815  1.0000
  H   H13       1.0  0.34821  0.08798  0.22069  1.0000
  H   H14       1.0  0.43947  0.31269  0.99952  1.0000
  H   H15       1.0  0.00417  0.21908  0.21613  1.0000
  H   H16       1.0  0.25189  0.29612  0.14870  1.0000
  C   C5        1.0  0.29580  0.27445  0.98136  1.0000
  H   H17       1.0  0.30888  0.18555  0.08103  1.0000
  C   C6        1.0  0.17195  0.29260  0.19874  1.0000
  C   C7        1.0  0.41409  0.30625  0.00090  1.0000
  H   H18       1.0  0.44892  0.00974  0.18308  1.0000
  H   H19       1.0  0.32397  0.15686  0.08589  1.0000
  C   C8        1.0  0.31450  0.25003  0.99816  1.0000
  H   H20       1.0  0.18501  0.28398  0.19906  1.0000
  H   H21       1.0  0.24718  0.31237  0.04208  1.0000
  H   H22       1.0  0.28300  0.30173  0.00562  1.0000
  H   H23       1.0  0.40618  0.27462  0.06792  1.0000
  H   H24       1.0  0.48963  0.10797  0.08876  1.0000
  H   H25       1.0  0.25552  0.27914  0.09103  1.0000
  H   H26       1.0  0.31351  0.18359  0.05839  1.0000
  C   C9        1.0  0.41425  0.06565  0.13301  1.0000
  H   H27       1.0  0.33802  0.21657  0.07568  1.0000
  C   C10       1.0  0.30813  0.26837  0.99273  1.0000
  H   H28       1.0  0.42150  0.99706  0.18803  1.0000
  H   H29       1.0  0.47204  0.04565  0.02635  1.0000
  H   H30       1.0  0.18030  0.30759  0.17217  1.0000
  C   C11       1.0  0.40421  0.02732  0.15920  1.0000
  C   C12       1.0  0.37907  0.11396  0.21035  1.0000
  H   H31       1.0  0.41098  0.00809  0.20592  1.0000
  H   H32       1.0  0.46652  0.06441  0.04782  1.0000
  H   H33       1.0  0.42530  0.25795  0.00692  1.0000
  S   S10       1.0  0.46715  0.00583  0.02870  1.0000
  H   H34       1.0  0.40867  0.22345  0.07293  1.0000
  H   H35       1.0  0.46573  0.29241  0.05766  1.0000
  C   C13       1.0  0.27921  0.31456  0.10932  1.0000
  C   C14       1.0  0.39357  0.04511  0.14999  1.0000
  S   S11       1.0  0.32161  0.26252  0.05372  1.0000
  H   H36       1.0  0.12987  0.29941  0.22415  1.0000
  N   N1        1.0  0.40256  0.05384  0.13169  1.0000
  C   C15       1.0  0.39351  0.18610  0.07830  1.0000
  C   C16       1.0  0.38840  0.19172  0.09458  1.0000
  C   C17       1.0  0.37802  0.20896  0.09558  1.0000
  C   C18       1.0  0.37269  0.22063  0.08035  1.0000
  C   C19       1.0  0.37813  0.21508  0.06405  1.0000
  C   C20       1.0  0.38848  0.19791  0.06303  1.0000
  H   H37       1.0  0.39222  0.18273  0.10644  1.0000
  H   H38       1.0  0.37396  0.21318  0.10825  1.0000
  H   H39       1.0  0.37429  0.22391  0.05221  1.0000
  H   H40       1.0  0.39245  0.19366  0.05038  1.0000
  C   C21       1.0  0.39624  0.05986  0.20113  1.0000
  C   C22       1.0  0.37903  0.06635  0.19752  1.0000
  C   C23       1.0  0.37592  0.08100  0.18343  1.0000
  C   C24       1.0  0.38995  0.08932  0.17292  1.0000
  C   C25       1.0  0.40726  0.08247  0.17619  1.0000
  C   C26       1.0  0.41041  0.06771  0.19017  1.0000
  H   H41       1.0  0.46963  0.22558  0.11270  1.0000
  H   H42       1.0  0.36251  0.08614  0.18089  1.0000
  H   H43       1.0  0.41815  0.08883  0.16831  1.0000
  H   H44       1.0  0.42378  0.06273  0.19284  1.0000
  C   C27       1.0  0.44955  0.06901  0.09039  1.0000
  C   C28       1.0  0.45750  0.05087  0.09210  1.0000
  C   C29       1.0  0.45228  0.04003  0.08372  1.0000
  C   C30       1.0  0.43931  0.04731  0.07326  1.0000
  C   C31       1.0  0.43092  0.06541  0.07198  1.0000
  C   C32       1.0  0.43601  0.07627  0.08057  1.0000
  H   H45       1.0  0.46782  0.04515  0.09986  1.0000
  H   H46       1.0  0.45806  0.02596  0.08570  1.0000
  H   H47       1.0  0.42073  0.07109  0.06406  1.0000
  H   H48       1.0  0.42986  0.09032  0.07913  1.0000
  H   H49       1.0  0.34447  0.31367  0.97842  1.0000
  C   C33       1.0  0.46700  0.17022  0.10632  1.0000
  C   C34       1.0  0.47669  0.18295  0.09511  1.0000
  C   C35       1.0  0.34809  0.18992  0.03430  1.0000
  H   H50       1.0  0.37872  0.05786  0.12104  1.0000
  H   H51       1.0  0.34888  0.10798  0.20338  1.0000
  H   H52       1.0  0.45553  0.16807  0.10268  1.0000
  H   H53       1.0  0.47272  0.19051  0.08278  1.0000
  H   H54       1.0  0.47296  0.08323  0.06251  1.0000
  H   H55       1.0  0.36809  0.06016  0.20562  1.0000
  C   C36       1.0  0.24743  0.30141  0.13583  1.0000
  H   H56       1.0  0.31314  0.22362  0.99671  1.0000
  H   H57       1.0  0.47200  0.25274  0.06411  1.0000
  C   C37       1.0  0.24948  0.30272  0.00177  1.0000
  H   H58       1.0  0.45304  0.25325  0.01638  1.0000
  C   C38       1.0  0.48688  0.16339  0.12696  1.0000
  H   H59       1.0  0.44113  0.99958  0.22607  1.0000
  C   C39       1.0  0.47867  0.10308  0.03873  1.0000
  H   H60       1.0  0.23057  0.30399  0.98572  1.0000
  C   C40       1.0  0.40286  0.25629  0.05263  1.0000
  H   H61       1.0  0.40645  0.07581  0.14101  1.0000
  H   H62       1.0  0.46012  0.25185  0.03683  1.0000
  H   H63       1.0  0.46874  0.22993  0.08977  1.0000
  H   H64       1.0  0.28644  0.27577  0.03112  1.0000
  H   H65       1.0  0.41720  0.30507  0.98707  1.0000
  H   H66       1.0  0.34462  0.16395  0.07673  1.0000
  H   H67       1.0  0.40495  0.08615  0.22433  1.0000
  C   C41       1.0  0.48612  0.25247  0.06429  1.0000
  C   C42       1.0  0.32002  0.18371  0.06928  1.0000
  C   C43       1.0  0.45133  0.25998  0.02754  1.0000
  H   H68       1.0  0.40002  0.01569  0.15726  1.0000
  H   H69       1.0  0.42640  0.05091  0.15600  1.0000
  H   H70       1.0  0.36216  0.18457  0.02814  1.0000
  C   C44       1.0  0.27235  0.30118  0.01803  1.0000
  C   C45       1.0  0.43158  0.26451  0.03720  1.0000
  H   H71       1.0  0.42043  0.04771  0.10753  1.0000
  H   H72       1.0  0.30014  0.22977  0.07336  1.0000
  H   H73       1.0  0.35743  0.18453  0.05870  1.0000
  C   C46       1.0  0.25754  0.29230  0.08374  1.0000
  C   C47       1.0  0.40644  0.30867  0.03675  1.0000
  H   H74       1.0  0.42922  0.20917  0.06470  1.0000
  H   H75       1.0  0.34311  0.20174  0.02442  1.0000
  H   H76       1.0  0.28101  0.29988  0.11449  1.0000
  H   H77       1.0  0.33351  0.15737  0.06297  1.0000
  H   H78       1.0  0.43990  0.04613  0.13455  1.0000
  S   S12       1.0  0.29774  0.31477  0.04938  1.0000
  H   H79       1.0  0.41894  0.02552  0.15530  1.0000
  C   C48       1.0  0.40313  0.02893  0.11575  1.0000
  H   H80       1.0  0.42457  0.03129  0.12641  1.0000
  C   C49       1.0  0.34379  0.10270  0.21770  1.0000
  C   C50       1.0  0.41356  0.04055  0.12039  1.0000
  H   H81       1.0  0.38084  0.04197  0.14921  1.0000
  H   H82       1.0  0.46364  0.30412  0.07503  1.0000
  C   C51       1.0  0.30827  0.23782  0.99255  1.0000
  C   C52       1.0  0.14090  0.30126  0.21292  1.0000
  H   H83       1.0  0.39458  0.24607  0.05538  1.0000
  H   H84       1.0  0.41932  0.07336  0.11951  1.0000
  C   C53       1.0  0.37231  0.13296  0.20015  1.0000
  S   S13       1.0  0.22358  0.30430  0.10172  1.0000
  H   H85       1.0  0.41571  0.22721  0.03852  1.0000
  H   H86       1.0  0.48731  0.03561  0.04086  1.0000
  H   H87       1.0  0.40113  0.25347  0.08145  1.0000
  H   H88       1.0  0.43838  0.06661  0.14060  1.0000
  C   C54       1.0  0.39377  0.30455  0.02968  1.0000
  H   H89       1.0  0.42596  0.21725  0.08496  1.0000
  Fe  Fe7       1.0  0.32125  0.29191  0.04452  1.0000
  C   C55       1.0  0.39865  0.26407  0.06956  1.0000
  Fe  Fe8       1.0  0.33535  0.26108  0.02539  1.0000
  S   S14       1.0  0.46030  0.14426  0.13650  1.0000
  C   C56       1.0  0.47170  0.29270  0.06882  1.0000
  H   H90       1.0  0.39346  0.11309  0.20997  1.0000
  H   H91       1.0  0.45619  0.27268  0.02161  1.0000
  C   C57       1.0  0.47885  0.06509  0.03715  1.0000
  H   H92       1.0  0.39438  0.07115  0.10774  1.0000
  C   C58       1.0  0.42671  0.31058  0.00792  1.0000
  H   H93       1.0  0.38066  0.13485  0.18640  1.0000
  C   C59       1.0  0.41692  0.24826  0.01513  1.0000
  H   H94       1.0  0.42610  0.99188  0.12910  1.0000
  H   H95       1.0  0.48770  0.04719  0.06586  1.0000
  H   H96       1.0  0.31269  0.27786  0.99722  1.0000
  C   C60       1.0  0.42336  0.22086  0.07120  1.0000
  C   C61       1.0  0.27321  0.28132  0.02726  1.0000
  S   S15       1.0  0.33293  0.29056  0.01570  1.0000
  H   H97       1.0  0.28477  0.28277  0.07071  1.0000
  H   H98       1.0  0.44999  0.98530  0.10281  1.0000
  H   H99       1.0  0.41767  0.23864  0.00681  1.0000
  H   H100      1.0  0.35587  0.18492  0.08638  1.0000
  C   C62       1.0  0.15775  0.29006  0.21345  1.0000
  H   H101      1.0  0.39440  0.02245  0.12769  1.0000
  S   S16       1.0  0.40037  0.04231  0.21945  1.0000
  S   S17       1.0  0.33040  0.24182  0.01176  1.0000
  H   H102      1.0  0.44566  0.23163  0.05506  1.0000
  H   H103      1.0  0.34351  0.19687  0.10331  1.0000
  H   H104      1.0  0.45606  0.24598  0.10356  1.0000
  S   S18       1.0  0.36307  0.25644  0.03007  1.0000
  Fe  Fe9       1.0  0.34940  0.26008  0.05774  1.0000
  H   H105      1.0  0.22005  0.31064  0.00636  1.0000
  S   S19       1.0  0.34795  0.28982  0.05112  1.0000
  H   H106      1.0  0.40061  0.02662  0.17386  1.0000
  N   N2        1.0  0.42239  0.24895  0.04570  1.0000
  H   H107      1.0  0.31831  0.20896  0.08840  1.0000
  C   C63       1.0  0.34211  0.19049  0.09290  1.0000
  H   H108      1.0  0.30817  0.30875  0.10852  1.0000
  C   C64       1.0  0.27411  0.29433  0.07223  1.0000
  C   C65       1.0  0.39759  0.30322  0.01177  1.0000
  C   C66       1.0  0.47204  0.16046  0.12230  1.0000
  H   H109      1.0  0.40343  0.30954  0.05067  1.0000
  H   H110      1.0  0.38408  0.09245  0.12744  1.0000
  S   S20       1.0  0.38213  0.29748  0.00279  1.0000
  H   H111      1.0  0.38971  0.05451  0.15931  1.0000
  S   S21       1.0  0.47944  0.00167  0.06659  1.0000
  C   C67       1.0  0.48529  0.24517  0.09643  1.0000
  H   H112      1.0  0.24805  0.28881  0.00841  1.0000
  C   C68       1.0  0.42364  0.23789  0.03236  1.0000
  H   H113      1.0  0.33478  0.17963  0.10003  1.0000
  C   C69       1.0  0.38828  0.06565  0.12185  1.0000
  C   C70       1.0  0.33147  0.16466  0.07382  1.0000
  H   H114      1.0  0.43876  0.02035  0.20214  1.0000
  C   C71       1.0  0.16932  0.30600  0.18349  1.0000
  H   H115      1.0  0.36493  0.08747  0.12347  1.0000
  H   H116      1.0  0.42896  0.02657  0.18315  1.0000
  H   H117      1.0  0.29165  0.21201  0.06962  1.0000
  C   C72       1.0  0.43613  0.01496  0.19169  1.0000
  H   H118      1.0  0.26032  0.30166  0.98963  1.0000
  C   C73       1.0  0.48482  0.08575  0.05185  1.0000
  H   H119      1.0  0.34031  0.17949  0.03638  1.0000
  H   H120      1.0  0.39312  0.98955  0.22309  1.0000
  C   C74       1.0  0.37660  0.08164  0.13002  1.0000
  H   H121      1.0  0.31666  0.21167  0.04128  1.0000
  H   H122      1.0  0.43133  0.27212  0.04730  1.0000
  C   C75       1.0  0.47159  0.27526  0.08298  1.0000
  H   H123      1.0  0.36452  0.26916  0.98732  1.0000
  H   H124      1.0  0.35411  0.20709  0.04797  1.0000
  H   H125      1.0  0.29244  0.23241  0.05348  1.0000
  H   H126      1.0  0.37372  0.14338  0.20644  1.0000
  C   C76       1.0  0.43144  0.23726  0.06050  1.0000
  H   H127      1.0  0.46744  0.10219  0.03321  1.0000
  H   H128      1.0  0.02463  0.23215  0.22094  1.0000
  H   H129      1.0  0.37129  0.07779  0.14455  1.0000
  H   H130      1.0  0.35829  0.13512  0.19864  1.0000
  H   H131      1.0  0.45867  0.27156  0.08384  1.0000
  H   H132      1.0  0.39512  0.03677  0.10561  1.0000
  H   H133      1.0  0.43763  0.23058  0.02839  1.0000
  H   H134      1.0  0.37911  0.10440  0.20227  1.0000
  N   N3        1.0  0.32963  0.19910  0.06383  1.0000
  C   C77       1.0  0.31864  0.21494  0.05340  1.0000
  C   C78       1.0  0.34784  0.19517  0.05185  1.0000
  C   C79       1.0  0.33160  0.20471  0.07995  1.0000
  H   H135      1.0  0.47850  0.10932  0.11074  1.0000
  C   C80       1.0  0.29968  0.22245  0.06333  1.0000
  H   H136      1.0  0.42426  0.27426  0.02733  1.0000
  H   H137      1.0  0.39716  0.26714  0.04229  1.0000
  N   N4        1.0  0.25444  0.31170  0.01395  1.0000
  C   C81       1.0  0.42294  0.31166  0.02593  1.0000
  H   H138      1.0  0.40276  0.25535  0.01797  1.0000
  C   C82       1.0  0.13829  0.31473  0.19769  1.0000
  C   C83       1.0  0.46888  0.23641  0.10058  1.0000
  H   H139      1.0  0.03811  0.21043  0.22082  1.0000
  H   H140      1.0  0.48513  0.29592  0.06355  1.0000
  H   H141      1.0  0.23306  0.30072  0.13861  1.0000
  H   H142      1.0  0.32893  0.10554  0.21987  1.0000
  C   C84       1.0  0.29559  0.24387  0.98167  1.0000
  H   H143      1.0  0.38107  0.30241  0.03813  1.0000
  H   H144      1.0  0.34368  0.27515  0.98122  1.0000
  N   N5        1.0  0.43134  0.98467  0.21253  1.0000
  C   C85       1.0  0.42420  0.00093  0.19951  1.0000
  H   H145      1.0  0.28006  0.30293  0.14295  1.0000
  H   H146      1.0  0.27668  0.30711  0.02709  1.0000
  C   C86       1.0  0.48385  0.04746  0.03037  1.0000
  H   H147      1.0  0.48439  0.14503  0.08095  1.0000
  H   H148      1.0  0.26284  0.27955  0.03968  1.0000
  N   N6        1.0  0.48699  0.25978  0.07985  1.0000
  H   H149      1.0  0.05095  0.23952  0.22193  1.0000
  C   C87       1.0  0.24079  0.31168  0.03131  1.0000
  H   H150      1.0  0.47352  0.11417  0.04612  1.0000
  H   H151      1.0  0.01455  0.19707  0.22490  1.0000
  H   H152      1.0  0.49038  0.27621  0.04244  1.0000
  S   S22       1.0  0.43892  0.31545  0.03569  1.0000
  H   H153      1.0  0.37464  0.08095  0.22754  1.0000
  H   H154      1.0  0.34313  0.12617  0.22716  1.0000
  H   H155      1.0  0.30201  0.31581  0.08702  1.0000
  H   H156      1.0  0.42700  0.06729  0.43668  1.0000
  H   H157      1.0  0.24048  0.07080  0.44882  1.0000
  H   H158      1.0  0.17110  0.00524  0.43077  1.0000
  C   C88       1.0  0.21612  0.09893  0.45885  1.0000
  H   H159      1.0  0.12409  0.00471  0.44835  1.0000
  H   H160      1.0  0.05083  0.18048  0.25787  1.0000
  Fe  Fe10      1.0  0.22632  0.11737  0.36692  1.0000
  S   S23       1.0  0.22006  0.09144  0.36677  1.0000
  S   S24       1.0  0.23045  0.12326  0.39172  1.0000
  Fe  Fe11      1.0  0.21775  0.13475  0.33013  1.0000
  S   S25       1.0  0.21086  0.11006  0.32679  1.0000
  S   S26       1.0  0.21658  0.16007  0.30883  1.0000
  Fe  Fe12      1.0  0.19634  0.10802  0.35545  1.0000
  S   S27       1.0  0.16819  0.10474  0.36910  1.0000
  Fe  Fe13      1.0  0.23534  0.09571  0.33826  1.0000
  S   S28       1.0  0.25556  0.07199  0.32971  1.0000
  S   S29       1.0  0.20144  0.13375  0.35785  1.0000
  S   S30       1.0  0.24346  0.12051  0.33932  1.0000
  Fe  Fe14      1.0  0.09576  0.06386  0.36190  1.0000
  S   S31       1.0  0.09114  0.06956  0.38921  1.0000
  S   S32       1.0  0.11674  0.07530  0.33950  1.0000
  Fe  Fe15      1.0  0.06769  0.04032  0.37343  1.0000
  S   S33       1.0  0.06136  0.04414  0.40175  1.0000
  S   S34       1.0  0.05090  0.02248  0.37023  1.0000
  Fe  Fe16      1.0  0.06203  0.07276  0.38919  1.0000
  S   S35       1.0  0.04134  0.09554  0.39874  1.0000
  Fe  Fe17      1.0  0.09100  0.04041  0.39894  1.0000
  S   S36       1.0  0.10659  0.02193  0.41918  1.0000
  S   S37       1.0  0.06655  0.06941  0.36098  1.0000
  S   S38       1.0  0.09751  0.03421  0.37158  1.0000
  Fe  Fe18      1.0  0.34515  0.02013  0.25710  1.0000
  S   S39       1.0  0.37442  0.00960  0.25651  1.0000
  Fe  Fe19      1.0  0.34478  0.05439  0.26800  1.0000
  S   S40       1.0  0.37424  0.04690  0.26805  1.0000
  S   S41       1.0  0.32744  0.08086  0.27328  1.0000
  Fe  Fe20      1.0  0.36894  0.01968  0.28185  1.0000
  S   S42       1.0  0.37862  0.00208  0.30620  1.0000
  S   S43       1.0  0.33932  0.02778  0.28362  1.0000
  H   H161      1.0  0.13575  0.11465  0.30717  1.0000
  N   N7        1.0  0.05415  0.03845  0.47113  1.0000
  Fe  Fe21      1.0  0.42573  0.01029  0.41634  1.0000
  S   S44       1.0  0.39853  0.01667  0.40941  1.0000
  S   S45       1.0  0.42620  0.02344  0.43859  1.0000
  H   H162      1.0  0.25691  0.03619  0.26471  1.0000
  H   H163      1.0  0.41964  0.00093  0.30861  1.0000
  Fe  Fe22      1.0  0.41311  0.01605  0.38120  1.0000
  S   S46       1.0  0.40313  0.03596  0.35788  1.0000
  H   H164      1.0  0.39898  0.09114  0.24653  1.0000
  S   S47       1.0  0.44023  0.01256  0.38751  1.0000
  Fe  Fe23      1.0  0.10323  0.25653  0.27117  1.0000
  S   S48       1.0  0.10601  0.25270  0.29928  1.0000
  S   S49       1.0  0.07618  0.25538  0.26726  1.0000
  Fe  Fe24      1.0  0.14003  0.26580  0.25633  1.0000
  S   S50       1.0  0.14566  0.26260  0.28370  1.0000
  Fe  Fe25      1.0  0.13405  0.23795  0.29069  1.0000
  S   S51       1.0  0.14115  0.21280  0.31118  1.0000
  Fe  Fe26      1.0  0.11728  0.27748  0.29002  1.0000
  S   S52       1.0  0.13047  0.23976  0.26292  1.0000
  S   S53       1.0  0.11243  0.28265  0.26230  1.0000
  Fe  Fe27      1.0  0.37710  0.03772  0.24261  1.0000
  C   C89       1.0  0.13717  0.12434  0.31442  1.0000
  S   S54       1.0  0.02326  0.02211  0.30231  1.0000
  H   H165      1.0  0.24020  0.04352  0.43918  1.0000
  H   H166      1.0  0.19641  0.10705  0.41190  1.0000
  Fe  Fe28      1.0  0.30078  0.07711  0.44435  1.0000
  S   S55       1.0  0.28042  0.05990  0.45264  1.0000
  S   S56       1.0  0.30484  0.09100  0.41543  1.0000
  H   H167      1.0  0.05004  0.24521  0.24306  1.0000
  H   H168      1.0  0.36732  0.12471  0.26736  1.0000
  C   C90       1.0  0.44440  0.08739  0.45564  1.0000
  S   S57       1.0  0.32288  0.05526  0.45375  1.0000
  H   H169      1.0  0.08283  0.14985  0.31686  1.0000
  S   S58       1.0  0.00849  0.16558  0.30106  1.0000
  C   C91       1.0  0.14287  0.04299  0.38032  1.0000
  H   H170      1.0  0.10094  0.11883  0.31444  1.0000
  C   C92       1.0  0.07574  0.13926  0.31718  1.0000
  Fe  Fe29      1.0  0.01828  0.18503  0.31052  1.0000
  S   S59       1.0  0.04808  0.18391  0.30263  1.0000
  S   S60       1.0  0.00529  0.17684  0.33932  1.0000
  H   H171      1.0  0.25982  0.05216  0.42830  1.0000
  H   H172      1.0  0.14359  0.02844  0.38543  1.0000
  S   S61       1.0  0.34804  0.04755  0.24135  1.0000
  C   C93       1.0  0.06846  0.23579  0.27900  1.0000
  C   C94       1.0  0.08051  0.21951  0.28216  1.0000
  C   C95       1.0  0.07407  0.20369  0.28995  1.0000
  C   C96       1.0  0.05561  0.20416  0.29501  1.0000
  C   C97       1.0  0.04356  0.22056  0.29278  1.0000
  C   C98       1.0  0.04998  0.23631  0.28441  1.0000
  H   H173      1.0  0.09477  0.21907  0.27803  1.0000
  H   H174      1.0  0.08341  0.19104  0.29175  1.0000
  H   H175      1.0  0.02932  0.22105  0.29704  1.0000
  H   H176      1.0  0.04063  0.24893  0.28212  1.0000
  H   H177      1.0  0.13900  0.06736  0.38889  1.0000
  C   C99       1.0  0.99199  0.23236  0.34646  1.0000
  C   C100      1.0  0.04860  0.21718  0.24545  1.0000
  H   H178      1.0  0.44150  0.98696  0.34734  1.0000
  C   C101      1.0  0.32540  0.00026  0.45102  1.0000
  C   C102      1.0  0.33843  0.01013  0.44127  1.0000
  C   C103      1.0  0.35530  0.00145  0.43323  1.0000
  N   N8        1.0  0.15629  0.04766  0.40506  1.0000
  H   H179      1.0  0.29980  0.02870  0.29952  1.0000
  H   H180      1.0  0.33550  0.02441  0.43980  1.0000
  H   H181      1.0  0.36521  0.00914  0.42566  1.0000
  C   C104      1.0  0.38337  0.01271  0.32093  1.0000
  C   C105      1.0  0.38396  0.00348  0.33849  1.0000
  C   C106      1.0  0.38959  0.01075  0.34999  1.0000
  C   C107      1.0  0.39498  0.02715  0.34395  1.0000
  C   C108      1.0  0.39369  0.03675  0.32660  1.0000
  C   C109      1.0  0.38788  0.02956  0.31510  1.0000
  H   H182      1.0  0.02188  0.98850  0.32743  1.0000
  H   H183      1.0  0.18140  0.08493  0.45684  1.0000
  H   H184      1.0  0.39760  0.04958  0.32191  1.0000
  H   H185      1.0  0.38754  0.03677  0.30157  1.0000
  C   C110      1.0  0.04192  0.02580  0.35116  1.0000
  C   C111      1.0  0.05173  0.03102  0.33395  1.0000
  C   C112      1.0  0.04555  0.03043  0.31899  1.0000
  C   C113      1.0  0.02947  0.02486  0.32115  1.0000
  C   C114      1.0  0.01921  0.02060  0.33833  1.0000
  C   C115      1.0  0.02551  0.02089  0.35327  1.0000
  H   H186      1.0  0.06449  0.03465  0.33222  1.0000
  C   C116      1.0  0.41499  0.07793  0.43493  1.0000
  H   H187      1.0  0.00678  0.01639  0.34020  1.0000
  H   H188      1.0  0.01791  0.01676  0.36657  1.0000
  C   C117      1.0  0.10967  0.03022  0.43647  1.0000
  C   C118      1.0  0.10295  0.04810  0.43779  1.0000
  C   C119      1.0  0.10512  0.05415  0.45213  1.0000
  C   C120      1.0  0.46034  0.02778  0.46696  1.0000
  C   C121      1.0  0.11887  0.01856  0.44932  1.0000
  H   H189      1.0  0.09595  0.05722  0.42787  1.0000
  H   H190      1.0  0.09979  0.06796  0.45321  1.0000
  H   H191      1.0  0.00933  0.06487  0.32333  1.0000
  C   C122      1.0  0.02653  0.10474  0.38399  1.0000
  C   C123      1.0  0.01885  0.12301  0.38136  1.0000
  C   C124      1.0  0.00844  0.13080  0.36829  1.0000
  C   C125      1.0  0.00543  0.12027  0.35805  1.0000
  C   C126      1.0  0.01250  0.10187  0.36121  1.0000
  C   C127      1.0  0.02313  0.09414  0.37407  1.0000
  H   H192      1.0  0.02129  0.13122  0.38913  1.0000
  H   H193      1.0  0.99353  0.10364  0.29833  1.0000
  H   H194      1.0  0.24293  0.05541  0.41597  1.0000
  H   H195      1.0  0.02861  0.07993  0.37636  1.0000
  C   C128      1.0  0.30833  0.07943  0.29070  1.0000
  C   C129      1.0  0.30737  0.06380  0.30380  1.0000
  C   C130      1.0  0.29131  0.06197  0.31621  1.0000
  C   C131      1.0  0.27622  0.07593  0.31597  1.0000
  C   C132      1.0  0.27746  0.09201  0.30359  1.0000
  C   C133      1.0  0.29347  0.09371  0.29093  1.0000
  H   H196      1.0  0.31891  0.05298  0.30421  1.0000
  H   H197      1.0  0.29050  0.04957  0.32587  1.0000
  H   H198      1.0  0.26585  0.10283  0.30327  1.0000
  H   H199      1.0  0.29415  0.10591  0.28095  1.0000
  C   C134      1.0  0.19642  0.17620  0.31013  1.0000
  C   C135      1.0  0.18308  0.17523  0.32566  1.0000
  C   C136      1.0  0.16657  0.18730  0.32607  1.0000
  C   C137      1.0  0.16317  0.20037  0.31092  1.0000
  C   C138      1.0  0.17670  0.20184  0.29554  1.0000
  C   C139      1.0  0.19334  0.18978  0.29518  1.0000
  H   H200      1.0  0.18521  0.16489  0.33723  1.0000
  H   H201      1.0  0.15618  0.18619  0.33805  1.0000
  H   H202      1.0  0.17417  0.21188  0.28376  1.0000
  H   H203      1.0  0.20364  0.19068  0.28312  1.0000
  C   C140      1.0  0.15431  0.09753  0.35948  1.0000
  C   C141      1.0  0.16109  0.08866  0.34522  1.0000
  C   C142      1.0  0.14948  0.08202  0.33889  1.0000
  C   C143      1.0  0.13120  0.08409  0.34694  1.0000
  C   C144      1.0  0.12449  0.09333  0.36087  1.0000
  C   C145      1.0  0.13597  0.10006  0.36708  1.0000
  H   H204      1.0  0.17525  0.08665  0.33931  1.0000
  H   H205      1.0  0.15472  0.07496  0.32801  1.0000
  H   H206      1.0  0.11043  0.09534  0.36686  1.0000
  H   H207      1.0  0.13066  0.10700  0.37806  1.0000
  C   C146      1.0  0.25138  0.11438  0.39779  1.0000
  C   C147      1.0  0.26583  0.10557  0.38662  1.0000
  C   C148      1.0  0.28236  0.09860  0.39195  1.0000
  C   C149      1.0  0.28427  0.09992  0.40867  1.0000
  C   C150      1.0  0.26973  0.10852  0.41989  1.0000
  C   C151      1.0  0.25348  0.11612  0.41426  1.0000
  H   H208      1.0  0.26433  0.10426  0.37384  1.0000
  H   H209      1.0  0.29361  0.09198  0.38322  1.0000
  H   H210      1.0  0.27118  0.10969  0.43275  1.0000
  H   H211      1.0  0.24248  0.12321  0.42283  1.0000
  C   C152      1.0  0.47692  0.02630  0.45504  1.0000
  C   C153      1.0  0.47817  0.02269  0.43823  1.0000
  C   C154      1.0  0.46286  0.02112  0.43317  1.0000
  C   C155      1.0  0.44621  0.02308  0.44495  1.0000
  C   C156      1.0  0.44511  0.02604  0.46197  1.0000
  H   H212      1.0  0.15441  0.04545  0.36924  1.0000
  H   H213      1.0  0.05759  0.20640  0.23876  1.0000
  H   H214      1.0  0.46387  0.01882  0.42002  1.0000
  Fe  Fe30      1.0  0.30174  0.03885  0.46400  1.0000
  C   C157      1.0  0.23682  0.07278  0.43567  1.0000
  H   H215      1.0  0.07303  0.28303  0.31654  1.0000
  N   N9        1.0  0.27758  0.04262  0.27391  1.0000
  C   C158      1.0  0.28159  0.02388  0.28489  1.0000
  H   H216      1.0  0.03134  0.17111  0.26343  1.0000
  C   C159      1.0  0.26392  0.05387  0.28594  1.0000
  C   C160      1.0  0.29476  0.04956  0.26722  1.0000
  C   C161      1.0  0.28848  0.02192  0.30203  1.0000
  S   S62       1.0  0.99847  0.27517  0.36159  1.0000
  C   C162      1.0  0.25768  0.07368  0.27770  1.0000
  H   H217      1.0  0.05148  0.99094  0.31011  1.0000
  H   H218      1.0  0.26951  0.01779  0.28898  1.0000
  H   H219      1.0  0.29201  0.01500  0.27690  1.0000
  H   H220      1.0  0.21094  0.05283  0.44775  1.0000
  H   H221      1.0  0.38028  0.99054  0.34317  1.0000
  H   H222      1.0  0.25174  0.04796  0.29166  1.0000
  H   H223      1.0  0.26920  0.05409  0.29753  1.0000
  H   H224      1.0  0.29800  0.05391  0.27805  1.0000
  S   S63       1.0  0.32540  0.00599  0.25368  1.0000
  H   H225      1.0  0.40952  0.05427  0.46569  1.0000
  C   C163      1.0  0.24509  0.05494  0.42938  1.0000
  H   H226      1.0  0.29349  0.00752  0.30724  1.0000
  C   C164      1.0  0.37189  0.12027  0.24039  1.0000
  H   H227      1.0  0.01128  0.19878  0.26221  1.0000
  C   C165      1.0  0.04696  0.25993  0.32149  1.0000
  H   H228      1.0  0.24734  0.07999  0.28801  1.0000
  H   H229      1.0  0.25137  0.07564  0.26618  1.0000
  H   H230      1.0  0.26875  0.08102  0.27409  1.0000
  H   H231      1.0  0.06673  0.04739  0.44360  1.0000
  C   C166      1.0  0.35001  0.00467  0.38697  1.0000
  C   C167      1.0  0.43635  0.98692  0.33554  1.0000
  H   H232      1.0  0.38408  0.05075  0.45015  1.0000
  C   C168      1.0  0.04696  0.28598  0.34265  1.0000
  C   C169      1.0  0.17267  0.05277  0.39191  1.0000
  H   H233      1.0  0.08260  0.02704  0.46686  1.0000
  C   C170      1.0  0.00111  0.06784  0.31296  1.0000
  H   H234      1.0  0.36236  0.04558  0.45669  1.0000
  H   H235      1.0  0.02102  0.23254  0.26762  1.0000
  H   H236      1.0  0.36519  0.13443  0.23624  1.0000
  N   N10       1.0  0.06670  0.13221  0.33604  1.0000
  C   C171      1.0  0.35929  0.98286  0.43519  1.0000
  C   C172      1.0  0.05190  0.14694  0.34241  1.0000
  C   C173      1.0  0.05862  0.11663  0.33688  1.0000
  C   C174      1.0  0.08049  0.12608  0.34762  1.0000
  H   H237      1.0  0.14025  0.14136  0.28804  1.0000
  C   C175      1.0  0.05788  0.16276  0.34561  1.0000
  C   C176      1.0  0.04554  0.12002  0.32427  1.0000
  C   C177      1.0  0.07327  0.11960  0.36771  1.0000
  C   C178      1.0  0.06966  0.02264  0.47253  1.0000
  S   S64       1.0  0.99626  0.98859  0.29652  1.0000
  H   H238      1.0  0.04294  0.14166  0.35496  1.0000
  H   H239      1.0  0.04300  0.15281  0.33262  1.0000
  H   H240      1.0  0.06923  0.10470  0.33428  1.0000
  H   H241      1.0  0.05087  0.11237  0.35055  1.0000
  H   H242      1.0  0.09093  0.11467  0.34337  1.0000
  H   H243      1.0  0.08772  0.13690  0.34620  1.0000
  H   H244      1.0  0.13833  0.05354  0.42941  1.0000
  H   H245      1.0  0.40429  0.07150  0.43427  1.0000
  H   H246      1.0  0.15900  0.08286  0.40622  1.0000
  H   H247      1.0  0.06652  0.16920  0.33356  1.0000
  H   H248      1.0  0.04579  0.17315  0.34897  1.0000
  H   H249      1.0  0.06472  0.15882  0.35704  1.0000
  H   H250      1.0  0.03374  0.13076  0.32724  1.0000
  H   H251      1.0  0.04033  0.10770  0.32637  1.0000
  H   H252      1.0  0.05206  0.12317  0.30999  1.0000
  H   H253      1.0  0.06235  0.12961  0.37368  1.0000
  H   H254      1.0  0.08420  0.11669  0.37511  1.0000
  H   H255      1.0  0.06844  0.10707  0.37009  1.0000
  H   H256      1.0  0.02707  0.20030  0.27349  1.0000
  H   H257      1.0  0.37916  0.00222  0.45197  1.0000
  H   H258      1.0  0.13073  0.04813  0.37441  1.0000
  C   C179      1.0  0.08969  0.12535  0.30751  1.0000
  H   H259      1.0  0.13860  0.30686  0.28641  1.0000
  C   C180      1.0  0.18952  0.05064  0.39931  1.0000
  H   H260      1.0  0.18329  0.09072  0.42519  1.0000
  H   H261      1.0  0.18665  0.05400  0.41260  1.0000
  H   H262      1.0  0.15034  0.11886  0.31817  1.0000
  H   H263      1.0  0.29495  0.03323  0.24055  1.0000
  N   N11       1.0  0.04448  0.29257  0.32357  1.0000
  H   H264      1.0  0.13527  0.08355  0.40895  1.0000
  C   C181      1.0  0.40840  0.08917  0.44964  1.0000
  H   H265      1.0  0.05717  0.29113  0.36347  1.0000
  H   H266      1.0  0.06111  0.25906  0.31428  1.0000
  H   H267      1.0  0.19293  0.09059  0.40225  1.0000
  H   H268      1.0  0.15897  0.02376  0.44070  1.0000
  C   C182      1.0  0.99740  0.23540  0.25750  1.0000
  H   H269      1.0  0.12580  0.19580  0.27962  1.0000
  H   H270      1.0  0.04577  0.99069  0.34159  1.0000
  H   H271      1.0  0.22364  0.08478  0.40804  1.0000
  H   H272      1.0  0.05355  0.03379  0.30572  1.0000
  H   H273      1.0  0.37918  0.10571  0.47400  1.0000
  C   C183      1.0  0.11400  0.04239  0.46520  1.0000
  Fe  Fe31      1.0  0.99748  0.01291  0.30545  1.0000
  H   H274      1.0  0.12116  0.16270  0.32567  1.0000
  S   S65       1.0  0.99562  0.20784  0.30410  1.0000
  N   N12       1.0  0.21683  0.07927  0.43702  1.0000
  H   H275      1.0  0.12770  0.01542  0.47377  1.0000
  H   H276      1.0  0.12647  0.12435  0.32670  1.0000
  C   C184      1.0  0.13583  0.14304  0.30216  1.0000
  H   H277      1.0  0.02569  0.05994  0.45148  1.0000
  C   C185      1.0  0.06477  0.29404  0.29162  1.0000
  H   H278      1.0  0.39363  0.09338  0.45082  1.0000
  C   C186      1.0  0.16815  0.02007  0.42837  1.0000
  Fe  Fe32      1.0  0.40207  0.98715  0.41269  1.0000
  H   H279      1.0  0.41883  0.08671  0.42175  1.0000
  H   H280      1.0  0.01393  0.24461  0.34510  1.0000
  H   H281      1.0  0.03230  0.02531  0.47401  1.0000
  H   H282      1.0  0.16062  0.05338  0.42903  1.0000
  H   H283      1.0  0.08363  0.11493  0.30569  1.0000
  C   C187      1.0  0.36486  0.11503  0.26075  1.0000
  C   C188      1.0  0.06995  0.00748  0.46344  1.0000
  C   C189      1.0  0.05385  0.29842  0.35034  1.0000
  H   H284      1.0  0.43395  0.00889  0.28850  1.0000
  C   C190      1.0  0.43167  0.99041  0.22916  1.0000
  C   C191      1.0  0.33326  0.98655  0.24485  1.0000
  C   C192      1.0  0.14716  0.07793  0.41514  1.0000
  H   H285      1.0  0.00261  0.14490  0.36631  1.0000
  H   H286      1.0  0.21237  0.06668  0.41767  1.0000
  H   H287      1.0  0.04122  0.07375  0.45109  1.0000
  H   H288      1.0  0.07329  0.30363  0.28338  1.0000
  S   S66       1.0  0.99340  0.12987  0.34087  1.0000
  H   H289      1.0  0.41856  0.99874  0.23437  1.0000
  H   H290      1.0  0.03417  0.28327  0.35181  1.0000
  H   H291      1.0  0.03357  0.28322  0.30574  1.0000
  H   H292      1.0  0.07365  0.01147  0.44866  1.0000
  H   H293      1.0  0.01010  0.09362  0.35346  1.0000
  H   H294      1.0  0.02263  0.27901  0.32816  1.0000
  H   H295      1.0  0.38967  0.00363  0.36354  1.0000
  H   H296      1.0  0.21301  0.06317  0.46380  1.0000
  C   C193      1.0  0.03614  0.27934  0.31944  1.0000
  C   C194      1.0  0.03170  0.31046  0.32263  1.0000
  H   H297      1.0  0.27522  0.03173  0.23442  1.0000
  H   H298      1.0  0.02481  0.06147  0.29264  1.0000
  H   H299      1.0  0.02040  0.08390  0.29543  1.0000
  C   C195      1.0  0.15068  0.05735  0.42035  1.0000
  H   H300      1.0  0.24419  0.08293  0.42637  1.0000
  H   H301      1.0  0.04156  0.06605  0.43187  1.0000
  H   H302      1.0  0.37191  0.10163  0.26669  1.0000
  C   C196      1.0  0.01787  0.23294  0.25459  1.0000
  H   H303      1.0  0.28268  0.07255  0.24730  1.0000
  H   H304      1.0  0.18087  0.06602  0.44814  1.0000
  H   H305      1.0  0.04085  0.25206  0.31582  1.0000
  H   H306      1.0  0.30455  0.06023  0.23879  1.0000
  C   C197      1.0  0.38661  0.99872  0.46293  1.0000
  S   S67       1.0  0.10498  0.29729  0.30791  1.0000
  H   H307      1.0  0.16721  0.02041  0.40133  1.0000
  H   H308      1.0  0.06569  0.14599  0.30868  1.0000
  H   H309      1.0  0.09551  0.13224  0.29394  1.0000
  C   C198      1.0  0.21203  0.09767  0.44123  1.0000
  N   N13       1.0  0.33571  0.03836  0.38684  1.0000
  C   C199      1.0  0.32290  0.04892  0.40006  1.0000
  C   C200      1.0  0.35437  0.04008  0.38665  1.0000
  C   C201      1.0  0.33388  0.01904  0.39326  1.0000
  C   C202      1.0  0.33052  0.04604  0.36891  1.0000
  C   C203      1.0  0.30325  0.04662  0.40478  1.0000
  C   C204      1.0  0.35812  0.05915  0.38029  1.0000
  H   H310      1.0  0.36151  0.00357  0.39314  1.0000
  C   C205      1.0  0.34293  0.03878  0.35273  1.0000
  H   H311      1.0  0.32755  0.04554  0.41291  1.0000
  H   H312      1.0  0.32238  0.06349  0.39504  1.0000
  H   H313      1.0  0.36483  0.03184  0.37810  1.0000
  H   H314      1.0  0.35741  0.03479  0.40025  1.0000
  H   H315      1.0  0.33134  0.01534  0.40811  1.0000
  H   H316      1.0  0.32200  0.01693  0.38957  1.0000
  H   H317      1.0  0.31711  0.04370  0.36931  1.0000
  H   H318      1.0  0.32858  0.06089  0.36553  1.0000
  H   H319      1.0  0.29530  0.05558  0.41402  1.0000
  H   H320      1.0  0.29702  0.05061  0.39293  1.0000
  H   H321      1.0  0.30189  0.03283  0.41191  1.0000
  H   H322      1.0  0.35620  0.06504  0.36643  1.0000
  H   H323      1.0  0.34997  0.06813  0.38942  1.0000
  H   H324      1.0  0.37238  0.05851  0.38020  1.0000
  C   C206      1.0  0.99967  0.24521  0.34952  1.0000
  C   C207      1.0  0.29565  0.06512  0.25067  1.0000
  H   H325      1.0  0.26506  0.05479  0.25088  1.0000
  H   H326      1.0  0.33952  0.02647  0.35142  1.0000
  H   H327      1.0  0.35726  0.03629  0.35297  1.0000
  H   H328      1.0  0.34146  0.04906  0.34034  1.0000
  N   N14       1.0  0.14511  0.15577  0.30578  1.0000
  C   C208      1.0  0.14376  0.17237  0.29114  1.0000
  C   C209      1.0  0.16480  0.14817  0.30538  1.0000
  C   C210      1.0  0.13594  0.16124  0.32343  1.0000
  C   C211      1.0  0.15918  0.02767  0.41206  1.0000
  C   C212      1.0  0.12476  0.18389  0.29066  1.0000
  C   C213      1.0  0.17581  0.14175  0.28823  1.0000
  C   C214      1.0  0.14191  0.14910  0.34044  1.0000
  H   H329      1.0  0.15216  0.18133  0.29205  1.0000
  H   H330      1.0  0.14907  0.16900  0.27771  1.0000
  H   H331      1.0  0.16721  0.13673  0.31660  1.0000
  H   H332      1.0  0.17123  0.15832  0.30721  1.0000
  H   H333      1.0  0.13795  0.17470  0.32329  1.0000
  H   H334      1.0  0.21911  0.10692  0.43023  1.0000
  C   C215      1.0  0.01388  0.07319  0.29503  1.0000
  H   H335      1.0  0.11582  0.17665  0.28788  1.0000
  H   H336      1.0  0.11848  0.18913  0.30304  1.0000
  H   H337      1.0  0.17667  0.15293  0.27646  1.0000
  H   H338      1.0  0.18980  0.13588  0.29003  1.0000
  H   H339      1.0  0.17063  0.13115  0.28556  1.0000
  H   H340      1.0  0.14144  0.13497  0.34193  1.0000
  H   H341      1.0  0.13281  0.15375  0.35236  1.0000
  H   H342      1.0  0.15558  0.15005  0.34088  1.0000
  H   H343      1.0  0.19769  0.06029  0.39041  1.0000
  H   H344      1.0  0.30207  0.07504  0.25302  1.0000
  H   H345      1.0  0.42165  0.98865  0.33989  1.0000
  H   H346      1.0  0.34615  0.99141  0.39151  1.0000
  H   H347      1.0  0.06627  0.30243  0.34169  1.0000
  H   H348      1.0  0.04639  0.25335  0.33575  1.0000
  H   H349      1.0  0.14420  0.08335  0.42745  1.0000
  H   H350      1.0  0.35440  0.00693  0.37230  1.0000
  H   H351      1.0  0.18095  0.02424  0.42648  1.0000
  C   C216      1.0  0.20766  0.06609  0.45150  1.0000
  C   C217      1.0  0.34921  0.11167  0.23010  1.0000
  H   H352      1.0  0.19778  0.03693  0.39969  1.0000
  H   H353      1.0  0.12124  0.14873  0.30341  1.0000
  C   C218      1.0  0.05339  0.04504  0.45160  1.0000
  H   H354      1.0  0.19765  0.10376  0.44178  1.0000
  H   H355      1.0  0.16965  0.06666  0.38411  1.0000
  C   C219      1.0  0.06250  0.29426  0.31158  1.0000
  H   H356      1.0  0.14614  0.02320  0.41625  1.0000
  C   C220      1.0  0.03729  0.18259  0.25503  1.0000
  H   H357      1.0  0.38943  0.06803  0.47443  1.0000
  C   C221      1.0  0.28158  0.02976  0.24595  1.0000
  N   N15       1.0  0.23374  0.17614  0.35959  1.0000
  C   C222      1.0  0.23394  0.16828  0.34405  1.0000
  C   C223      1.0  0.21593  0.17526  0.37233  1.0000
  C   C224      1.0  0.24889  0.16484  0.36859  1.0000
  C   C225      1.0  0.23633  0.19509  0.35219  1.0000
  C   C226      1.0  0.25191  0.16580  0.33041  1.0000
  C   C227      1.0  0.19912  0.18547  0.36475  1.0000
  C   C228      1.0  0.24662  0.16387  0.38879  1.0000
  C   C229      1.0  0.23433  0.20654  0.36587  1.0000
  H   H358      1.0  0.23012  0.15501  0.34898  1.0000
  H   H359      1.0  0.22384  0.17670  0.33614  1.0000
  H   H360      1.0  0.21497  0.18041  0.38438  1.0000
  H   H361      1.0  0.21452  0.16106  0.37742  1.0000
  H   H362      1.0  0.25122  0.15060  0.36750  1.0000
  H   H363      1.0  0.26176  0.16917  0.36174  1.0000
  H   H364      1.0  0.24990  0.19532  0.34360  1.0000
  H   H365      1.0  0.22677  0.20242  0.34329  1.0000
  H   H366      1.0  0.26300  0.15679  0.33652  1.0000
  H   H367      1.0  0.25037  0.15948  0.32002  1.0000
  H   H368      1.0  0.25571  0.17873  0.32328  1.0000
  H   H369      1.0  0.19729  0.17944  0.35436  1.0000
  H   H370      1.0  0.18708  0.18458  0.37568  1.0000
  H   H371      1.0  0.19920  0.19986  0.35948  1.0000
  H   H372      1.0  0.24325  0.17704  0.39247  1.0000
  H   H373      1.0  0.25937  0.15650  0.39302  1.0000
  H   H374      1.0  0.23623  0.15619  0.39680  1.0000
  H   H375      1.0  0.22106  0.20761  0.37508  1.0000
  H   H376      1.0  0.23550  0.22036  0.35857  1.0000
  H   H377      1.0  0.24522  0.20163  0.37344  1.0000
  C   C230      1.0  0.21274  0.08019  0.41913  1.0000
  C   C231      1.0  0.19526  0.09284  0.41467  1.0000
  C   C232      1.0  0.18705  0.07065  0.45678  1.0000
  H   H378      1.0  0.35920  0.99214  0.23110  1.0000
  H   H379      1.0  0.41314  0.10200  0.44446  1.0000
  H   H380      1.0  0.30620  0.03862  0.26370  1.0000
  H   H381      1.0  0.27761  0.02681  0.31278  1.0000
  H   H382      1.0  0.00034  0.22192  0.33969  1.0000
  H   H383      1.0  0.41131  0.10557  0.47365  1.0000
  H   H384      1.0  0.05677  0.27304  0.34413  1.0000
  H   H385      1.0  0.38061  0.03236  0.44329  1.0000
  C   C233      1.0  0.40399  0.06407  0.47462  1.0000
  H   H386      1.0  0.07238  0.28081  0.28891  1.0000
  C   C234      1.0  0.03958  0.06220  0.44666  1.0000
  H   H387      1.0  0.28328  0.01532  0.25221  1.0000
  H   H388      1.0  0.12815  0.05120  0.40478  1.0000
  C   C235      1.0  0.14100  0.05299  0.39529  1.0000
  H   H389      1.0  0.05704  0.00297  0.46744  1.0000
  H   H390      1.0  0.17701  0.04464  0.38142  1.0000
  H   H391      1.0  0.05234  0.29754  0.28645  1.0000
  H   H392      1.0  0.45499  0.98427  0.29651  1.0000
  H   H393      1.0  0.00725  0.07723  0.28351  1.0000
  H   H394      1.0  0.35022  0.11556  0.26422  1.0000
  C   C236      1.0  0.26945  0.04150  0.25906  1.0000
  H   H395      1.0  0.99819  0.05480  0.31294  1.0000
  C   C237      1.0  0.37688  0.03953  0.45445  1.0000
  C   C238      1.0  0.02535  0.20009  0.26001  1.0000
  H   H396      1.0  0.36778  0.08452  0.24954  1.0000
  H   H397      1.0  0.05189  0.21422  0.25888  1.0000
  H   H398      1.0  0.34216  0.10650  0.24384  1.0000
  C   C239      1.0  0.05493  0.23461  0.23507  1.0000
  H   H399      1.0  0.99887  0.21078  0.23949  1.0000
  H   H400      1.0  0.99735  0.10080  0.31989  1.0000
  H   H401      1.0  0.99295  0.23906  0.24460  1.0000
  H   H402      1.0  0.35155  0.98833  0.47526  1.0000
  H   H403      1.0  0.06626  0.30668  0.31220  1.0000
  H   H404      1.0  0.41839  0.99679  0.28757  1.0000
  C   C240      1.0  0.38220  0.02742  0.47175  1.0000
  H   H405      1.0  0.21094  0.11283  0.46095  1.0000
  N   N16       1.0  0.02912  0.21702  0.24699  1.0000
  C   C241      1.0  0.35037  0.98287  0.23409  1.0000
  S   S68       1.0  0.29249  0.08799  0.46959  1.0000
  C   C242      1.0  0.42752  0.99741  0.29588  1.0000
  S   S69       1.0  0.30442  0.01060  0.46175  1.0000
  H   H406      1.0  0.44014  0.99846  0.32512  1.0000
  C   C243      1.0  0.39591  0.08408  0.23765  1.0000
  C   C244      1.0  0.12101  0.02461  0.46367  1.0000
  H   H407      1.0  0.44074  0.09957  0.46131  1.0000
  H   H408      1.0  0.35292  0.01960  0.46618  1.0000
  H   H409      1.0  0.44379  0.09096  0.44128  1.0000
  C   C245      1.0  0.43280  0.07362  0.46628  1.0000
  C   C246      1.0  0.37599  0.08928  0.23625  1.0000
  H   H410      1.0  0.45863  0.08132  0.45633  1.0000
  H   H411      1.0  0.05024  0.03480  0.44620  1.0000
  H   H412      1.0  0.18280  0.06371  0.47083  1.0000
  H   H413      1.0  0.20940  0.09015  0.47059  1.0000
  H   H414      1.0  0.38635  0.12056  0.23816  1.0000
  N   N17       1.0  0.41284  0.07996  0.46761  1.0000
  H   H415      1.0  0.43795  0.06159  0.46033  1.0000
  H   H416      1.0  0.43239  0.02718  0.47129  1.0000
  N   N18       1.0  0.36905  0.10879  0.22925  1.0000
  H   H417      1.0  0.06999  0.05783  0.46892  1.0000
  S   S70       1.0  0.16172  0.27275  0.23211  1.0000
  H   H418      1.0  0.39989  0.00219  0.45634  1.0000
  H   H419      1.0  0.39924  0.06956  0.24343  1.0000
  H   H420      1.0  0.08050  0.99582  0.46744  1.0000
  H   H421      1.0  0.03849  0.18220  0.24088  1.0000
  C   C247      1.0  0.11594  0.31426  0.30699  1.0000
  S   S71       1.0  0.41468  0.98690  0.38403  1.0000
  H   H422      1.0  0.02095  0.24564  0.24571  1.0000
  Fe  Fe33      1.0  0.99375  0.15900  0.32940  1.0000
  H   H423      1.0  0.23072  0.09602  0.45849  1.0000
  H   H424      1.0  0.06980  0.23208  0.23258  1.0000
  H   H425      1.0  0.39697  0.02586  0.46959  1.0000
  H   H426      1.0  0.99225  0.22362  0.26611  1.0000
  C   C248      1.0  0.01001  0.21076  0.22770  1.0000
  H   H427      1.0  0.99093  0.24670  0.26442  1.0000
  C   C249      1.0  0.02611  0.21809  0.22862  1.0000
  H   H428      1.0  0.01984  0.31110  0.29987  1.0000
  H   H429      1.0  0.04343  0.31041  0.35293  1.0000
  H   H430      1.0  0.01916  0.30928  0.33292  1.0000
  Fe  Fe34      1.0  0.44066  0.98308  0.39226  1.0000
  N   N19       1.0  0.37696  0.00941  0.47720  1.0000
  S   S72       1.0  0.43297  0.06365  0.51772  1.0000
  H   H431      1.0  0.40596  0.12191  0.56135  1.0000
  Fe  Fe35      1.0  0.36363  0.11551  0.57445  1.0000
  S   S73       1.0  0.37139  0.13487  0.54904  1.0000
  S   S74       1.0  0.38650  0.09535  0.58442  1.0000
  Fe  Fe36      1.0  0.32452  0.13327  0.57923  1.0000
  S   S75       1.0  0.32952  0.15447  0.55456  1.0000
  S   S76       1.0  0.29561  0.13517  0.59368  1.0000
  Fe  Fe37      1.0  0.34672  0.13169  0.54212  1.0000
  S   S77       1.0  0.34462  0.13157  0.51423  1.0000
  Fe  Fe38      1.0  0.35369  0.15556  0.56401  1.0000
  S   S78       1.0  0.36300  0.18124  0.56119  1.0000
  S   S79       1.0  0.34041  0.11036  0.56629  1.0000
  S   S80       1.0  0.34714  0.13639  0.58992  1.0000
  Fe  Fe39      1.0  0.39971  0.22000  0.62610  1.0000
  S   S81       1.0  0.42871  0.22221  0.61685  1.0000
  S   S82       1.0  0.39065  0.19565  0.62367  1.0000
  Fe  Fe40      1.0  0.39090  0.24994  0.64727  1.0000
  S   S83       1.0  0.41912  0.25388  0.63995  1.0000
  S   S84       1.0  0.36993  0.26785  0.66400  1.0000
  Fe  Fe41      1.0  0.41823  0.25192  0.61257  1.0000
  C   C250      1.0  0.15561  0.08647  0.70536  1.0000
  Fe  Fe42      1.0  0.42703  0.22413  0.64496  1.0000
  S   S85       1.0  0.44761  0.20992  0.66159  1.0000
  S   S86       1.0  0.38920  0.24982  0.61928  1.0000
  S   S87       1.0  0.39880  0.22013  0.65478  1.0000
  Fe  Fe43      1.0  0.23219  0.06818  0.62128  1.0000
  S   S88       1.0  0.21354  0.09242  0.60986  1.0000
  S   S89       1.0  0.26218  0.06598  0.61628  1.0000
  Fe  Fe44      1.0  0.20169  0.04812  0.63987  1.0000
  S   S90       1.0  0.18090  0.07099  0.62957  1.0000
  S   S91       1.0  0.19132  0.02493  0.65959  1.0000
  Fe  Fe45      1.0  0.20099  0.07284  0.60358  1.0000
  S   S92       1.0  0.19678  0.07668  0.57549  1.0000
  Fe  Fe46      1.0  0.19552  0.08799  0.63704  1.0000
  S   S93       1.0  0.18040  0.11058  0.65126  1.0000
  S   S94       1.0  0.22091  0.04868  0.61336  1.0000
  S   S95       1.0  0.21512  0.06498  0.64895  1.0000
  Fe  Fe47      1.0  0.14542  0.03096  0.53628  1.0000
  S   S96       1.0  0.16709  0.00691  0.53243  1.0000
  S   S97       1.0  0.14012  0.03973  0.56244  1.0000
  Fe  Fe48      1.0  0.13405  0.03301  0.50171  1.0000
  S   S98       1.0  0.15485  0.00890  0.49529  1.0000
  H   H432      1.0  0.37600  0.31241  0.66241  1.0000
  Fe  Fe49      1.0  0.14683  0.99683  0.52442  1.0000
  C   C251      1.0  0.42377  0.13259  0.52906  1.0000
  Fe  Fe50      1.0  0.17307  0.02117  0.50393  1.0000
  H   H433      1.0  0.14167  0.98770  0.56422  1.0000
  S   S99       1.0  0.12451  0.01994  0.53032  1.0000
  S   S100      1.0  0.15297  0.04624  0.50825  1.0000
  H   H434      1.0  0.29477  0.18638  0.59567  1.0000
  H   H435      1.0  0.03995  0.02226  0.49404  1.0000
  C   C252      1.0  0.47471  0.24332  0.60941  1.0000
  H   H436      1.0  0.13386  0.06543  0.68775  1.0000
  H   H437      1.0  0.00853  0.04304  0.48876  1.0000
  S   S101      1.0  0.43221  0.27112  0.59049  1.0000
  H   H438      1.0  0.29637  0.19954  0.64325  1.0000
  C   C253      1.0  0.21348  0.03442  0.49159  1.0000
  C   C254      1.0  0.46959  0.12818  0.61586  1.0000
  C   C255      1.0  0.41875  0.12529  0.56155  1.0000
  H   H439      1.0  0.43602  0.11188  0.51356  1.0000
  C   C256      1.0  0.21480  0.06082  0.50111  1.0000
  C   C257      1.0  0.20495  0.04869  0.50019  1.0000
  C   C258      1.0  0.20615  0.02055  0.56963  1.0000
  H   H440      1.0  0.20813  0.07202  0.50749  1.0000
  H   H441      1.0  0.19073  0.05060  0.50580  1.0000
  C   C259      1.0  0.18704  0.11237  0.67022  1.0000
  C   C260      1.0  0.18015  0.12792  0.67722  1.0000
  C   C261      1.0  0.18572  0.12977  0.69205  1.0000
  C   C262      1.0  0.19823  0.11605  0.69988  1.0000
  C   C263      1.0  0.20442  0.10019  0.69343  1.0000
  C   C264      1.0  0.19882  0.09836  0.67868  1.0000
  H   H442      1.0  0.17080  0.13873  0.67091  1.0000
  H   H443      1.0  0.21387  0.08941  0.69964  1.0000
  H   H444      1.0  0.20367  0.08610  0.67389  1.0000
  C   C265      1.0  0.18040  0.06706  0.57206  1.0000
  C   C266      1.0  0.16894  0.05854  0.58645  1.0000
  C   C267      1.0  0.15647  0.05041  0.58332  1.0000
  C   C268      1.0  0.15572  0.05031  0.56583  1.0000
  C   C269      1.0  0.16727  0.05870  0.55143  1.0000
  C   C270      1.0  0.17934  0.06733  0.55455  1.0000
  H   H445      1.0  0.16961  0.05829  0.59999  1.0000
  H   H446      1.0  0.14742  0.04411  0.59451  1.0000
  H   H447      1.0  0.16666  0.05886  0.53790  1.0000
  H   H448      1.0  0.18803  0.07408  0.54334  1.0000
  C   C271      1.0  0.19034  0.00766  0.64984  1.0000
  C   C272      1.0  0.20278  0.00378  0.63451  1.0000
  H   H449      1.0  0.48033  0.12058  0.62327  1.0000
  H   H450      1.0  0.46435  0.15448  0.53005  1.0000
  H   H451      1.0  0.10951  0.99649  0.56944  1.0000
  H   H452      1.0  0.35751  0.25130  0.71720  1.0000
  H   H453      1.0  0.21293  0.01166  0.62833  1.0000
  H   H454      1.0  0.20315  0.00705  0.57200  1.0000
  H   H455      1.0  0.44184  0.31252  0.65498  1.0000
  H   H456      1.0  0.45976  0.23787  0.58374  1.0000
  C   C273      1.0  0.21433  0.00320  0.53810  1.0000
  H   H457      1.0  0.27276  0.07522  0.51505  1.0000
  H   H458      1.0  0.34360  0.17117  0.62537  1.0000
  H   H459      1.0  0.20104  0.00232  0.69746  1.0000
  C   C274      1.0  0.12329  0.98539  0.62110  1.0000
  C   C275      1.0  0.33669  0.18326  0.63095  1.0000
  H   H460      1.0  0.40477  0.98854  0.50779  1.0000
  H   H461      1.0  0.31250  0.18895  0.57579  1.0000
  C   C276      1.0  0.37516  0.27040  0.68342  1.0000
  C   C277      1.0  0.38923  0.25864  0.69072  1.0000
  C   C278      1.0  0.39210  0.26003  0.70709  1.0000
  S   S102      1.0  0.20827  0.11908  0.71597  1.0000
  C   C279      1.0  0.47584  0.24909  0.62618  1.0000
  H   H462      1.0  0.39761  0.24814  0.68401  1.0000
  H   H463      1.0  0.40271  0.25057  0.71289  1.0000
  C   C280      1.0  0.30142  0.20834  0.61401  1.0000
  N   N20       1.0  0.16060  0.06660  0.70582  1.0000
  H   H464      1.0  0.35360  0.29316  0.68659  1.0000
  H   H465      1.0  0.18091  0.14207  0.69695  1.0000
  H   H466      1.0  0.30099  0.22123  0.61746  1.0000
  C   C281      1.0  0.46422  0.19295  0.65318  1.0000
  C   C282      1.0  0.46959  0.19350  0.63482  1.0000
  H   H467      1.0  0.20676  0.03176  0.53507  1.0000
  C   C283      1.0  0.40573  0.16900  0.52912  1.0000
  C   C284      1.0  0.38173  0.00055  0.49512  1.0000
  H   H468      1.0  0.47456  0.22889  0.61314  1.0000
  H   H469      1.0  0.37320  0.00801  0.50556  1.0000
  C   C285      1.0  0.45069  0.15443  0.52865  1.0000
  C   C286      1.0  0.14600  0.05829  0.71918  1.0000
  H   H470      1.0  0.46797  0.17808  0.67932  1.0000
  C   C287      1.0  0.28684  0.11585  0.59769  1.0000
  C   C288      1.0  0.29761  0.09884  0.60125  1.0000
  C   C289      1.0  0.28989  0.08365  0.60671  1.0000
  C   C290      1.0  0.27139  0.08534  0.60859  1.0000
  C   C291      1.0  0.26070  0.10233  0.60453  1.0000
  C   C292      1.0  0.26844  0.11753  0.59896  1.0000
  H   H471      1.0  0.31179  0.09741  0.60043  1.0000
  H   H472      1.0  0.29825  0.07054  0.60982  1.0000
  H   H473      1.0  0.24647  0.10382  0.60581  1.0000
  H   H474      1.0  0.26007  0.13067  0.59612  1.0000
  C   C293      1.0  0.37261  0.18445  0.57769  1.0000
  C   C294      1.0  0.37713  0.20098  0.57593  1.0000
  C   C295      1.0  0.38327  0.20452  0.58963  1.0000
  C   C296      1.0  0.38491  0.19150  0.60519  1.0000
  C   C297      1.0  0.38103  0.17475  0.60664  1.0000
  C   C298      1.0  0.37491  0.17122  0.59296  1.0000
  H   H475      1.0  0.37542  0.21128  0.56412  1.0000
  H   H476      1.0  0.38624  0.21745  0.58837  1.0000
  H   H477      1.0  0.38223  0.16461  0.61866  1.0000
  H   H478      1.0  0.37155  0.15843  0.59447  1.0000
  C   C299      1.0  0.34101  0.11215  0.50993  1.0000
  C   C300      1.0  0.34564  0.09536  0.52074  1.0000
  C   C301      1.0  0.34316  0.08003  0.51659  1.0000
  H   H479      1.0  0.08269  0.22872  0.72591  1.0000
  H   H480      1.0  0.24316  0.05979  0.53841  1.0000
  H   H481      1.0  0.33571  0.17774  0.59422  1.0000
  H   H482      1.0  0.35151  0.09414  0.53204  1.0000
  C   C302      1.0  0.48483  0.16447  0.65868  1.0000
  H   H483      1.0  0.33744  0.20715  0.57904  1.0000
  S   S103      1.0  0.47585  0.02599  0.51186  1.0000
  C   C303      1.0  0.42050  0.07182  0.53672  1.0000
  C   C304      1.0  0.42768  0.06929  0.55183  1.0000
  C   C305      1.0  0.41713  0.07620  0.56676  1.0000
  C   C306      1.0  0.39954  0.08570  0.56642  1.0000
  C   C307      1.0  0.39248  0.08818  0.55130  1.0000
  C   C308      1.0  0.40289  0.08118  0.53654  1.0000
  H   H484      1.0  0.44125  0.06193  0.55204  1.0000
  H   H485      1.0  0.42260  0.07425  0.57848  1.0000
  H   H486      1.0  0.37888  0.09531  0.55100  1.0000
  H   H487      1.0  0.39721  0.08306  0.52498  1.0000
  C   C309      1.0  0.33358  0.19993  0.61598  1.0000
  C   C310      1.0  0.32471  0.21324  0.58723  1.0000
  C   C311      1.0  0.30904  0.18165  0.58979  1.0000
  H   H488      1.0  0.17664  0.05753  0.72621  1.0000
  H   H489      1.0  0.34546  0.24621  0.69375  1.0000
  H   H490      1.0  0.42888  0.11258  0.56173  1.0000
  N   N21       1.0  0.42384  0.13933  0.54525  1.0000
  H   H491      1.0  0.34580  0.18528  0.63856  1.0000
  C   C312      1.0  0.32686  0.23189  0.58799  1.0000
  H   H492      1.0  0.33824  0.23111  0.59417  1.0000
  H   H493      1.0  0.32997  0.23966  0.57410  1.0000
  H   H494      1.0  0.31442  0.23963  0.59492  1.0000
  N   N22       1.0  0.22283  0.02244  0.55527  1.0000
  C   C313      1.0  0.41061  0.29770  0.60719  1.0000
  C   C314      1.0  0.21857  0.02115  0.53818  1.0000
  S   S104      1.0  0.24519  0.07456  0.49351  1.0000
  C   C315      1.0  0.23822  0.00803  0.56091  1.0000
  H   H495      1.0  0.16338  0.01174  0.60235  1.0000
  C   C316      1.0  0.40616  0.09308  0.47990  1.0000
  H   H496      1.0  0.19447  0.01929  0.59784  1.0000
  C   C317      1.0  0.11596  0.99561  0.58066  1.0000
  H   H497      1.0  0.07012  0.01628  0.48675  1.0000
  C   C318      1.0  0.41416  0.29433  0.65618  1.0000
  H   H498      1.0  0.22937  0.02388  0.52640  1.0000
  H   H499      1.0  0.47546  0.26361  0.62371  1.0000
  H   H500      1.0  0.40370  0.01159  0.49753  1.0000
  S   S105      1.0  0.20143  0.02008  0.48839  1.0000
  H   H501      1.0  0.24325  0.01175  0.57109  1.0000
  H   H502      1.0  0.25597  0.04191  0.48008  1.0000
  H   H503      1.0  0.48687  0.27472  0.59507  1.0000
  H   H504      1.0  0.21481  0.05123  0.54930  1.0000
  C   C319      1.0  0.40891  0.30154  0.67359  1.0000
  C   C320      1.0  0.21217  0.99119  0.69423  1.0000
  H   H505      1.0  0.37922  0.08750  0.49335  1.0000
  C   C321      1.0  0.06222  0.04708  0.49696  1.0000
  C   C322      1.0  0.32179  0.18264  0.60118  1.0000
  H   H506      1.0  0.47605  0.13011  0.60149  1.0000
  C   C323      1.0  0.34765  0.24245  0.72178  1.0000
  H   H507      1.0  0.38255  0.10853  0.49441  1.0000
  H   H508      1.0  0.22472  0.99158  0.54234  1.0000
  C   C324      1.0  0.40147  0.99886  0.49595  1.0000
  S   S106      1.0  0.47753  0.06716  0.48850  1.0000
  C   C325      1.0  0.15049  0.99815  0.59012  1.0000
  H   H509      1.0  0.39792  0.16319  0.52304  1.0000
  H   H510      1.0  0.41020  0.13029  0.52983  1.0000
  C   C326      1.0  0.27528  0.08583  0.52037  1.0000
  H   H511      1.0  0.34703  0.06705  0.52485  1.0000
  H   H512      1.0  0.40071  0.06213  0.50370  1.0000
  H   H513      1.0  0.11960  0.99068  0.70632  1.0000
  H   H514      1.0  0.15893  0.99095  0.61607  1.0000
  C   C327      1.0  0.14525  0.07147  0.67930  1.0000
  Fe  Fe51      1.0  0.46273  0.05412  0.51481  1.0000
  H   H515      1.0  0.36085  0.22678  0.70140  1.0000
  H   H516      1.0  0.35879  0.29568  0.71534  1.0000
  H   H517      1.0  0.14797  0.06794  0.66600  1.0000
  H   H518      1.0  0.28223  0.06493  0.54236  1.0000
  C   C328      1.0  0.36443  0.28395  0.69224  1.0000
  C   C329      1.0  0.18960  0.04167  0.70627  1.0000
  H   H519      1.0  0.31435  0.21564  0.57918  1.0000
  C   C330      1.0  0.38106  0.27329  0.71617  1.0000
  H   H520      1.0  0.11695  0.00941  0.58030  1.0000
  H   H521      1.0  0.32426  0.18076  0.64058  1.0000
  H   H522      1.0  0.39674  0.15355  0.55449  1.0000
  C   C331      1.0  0.16828  0.99651  0.71013  1.0000
  H   H523      1.0  0.13322  0.03545  0.72581  1.0000
  C   C332      1.0  0.23316  0.05870  0.49344  1.0000
  H   H524      1.0  0.41776  0.17222  0.51919  1.0000
  H   H525      1.0  0.46336  0.20441  0.62564  1.0000
  C   C333      1.0  0.47105  0.24151  0.57282  1.0000
  N   N23       1.0  0.28763  0.08916  0.54625  1.0000
  C   C334      1.0  0.29297  0.10600  0.53424  1.0000
  C   C335      1.0  0.28703  0.07719  0.53445  1.0000
  C   C336      1.0  0.30212  0.08015  0.55681  1.0000
  C   C337      1.0  0.26979  0.09426  0.55848  1.0000
  C   C338      1.0  0.29688  0.11906  0.54358  1.0000
  C   C339      1.0  0.30049  0.06176  0.56896  1.0000
  C   C340      1.0  0.25769  0.08032  0.56551  1.0000
  H   H526      1.0  0.30510  0.10265  0.52387  1.0000
  H   H527      1.0  0.28232  0.11387  0.52679  1.0000
  H   H528      1.0  0.31549  0.07841  0.54761  1.0000
  H   H529      1.0  0.30282  0.08857  0.56580  1.0000
  H   H530      1.0  0.27184  0.09797  0.57029  1.0000
  H   H531      1.0  0.26138  0.10652  0.55186  1.0000
  H   H532      1.0  0.29796  0.13192  0.53394  1.0000
  H   H533      1.0  0.28616  0.12196  0.55527  1.0000
  H   H534      1.0  0.30999  0.11397  0.54770  1.0000
  H   H535      1.0  0.31285  0.05619  0.57447  1.0000
  H   H536      1.0  0.29941  0.05192  0.56179  1.0000
  H   H537      1.0  0.28933  0.06295  0.58067  1.0000
  H   H538      1.0  0.25178  0.07882  0.55485  1.0000
  H   H539      1.0  0.24628  0.08506  0.57594  1.0000
  H   H540      1.0  0.26452  0.06705  0.57178  1.0000
  H   H541      1.0  0.17309  0.07071  0.67772  1.0000
  C   C341      1.0  0.47207  0.17855  0.66509  1.0000
  H   H542      1.0  0.30105  0.29001  0.71180  1.0000
  C   C342      1.0  0.34809  0.99642  0.48565  1.0000
  H   H543      1.0  0.42654  0.14259  0.51653  1.0000
  C   C343      1.0  0.33375  0.11352  0.49509  1.0000
  C   C344      1.0  0.33557  0.08146  0.50196  1.0000
  H   H544      1.0  0.27817  0.20023  0.63307  1.0000
  H   H545      1.0  0.17134  0.09003  0.72318  1.0000
  H   H546      1.0  0.47270  0.23348  0.56267  1.0000
  C   C345      1.0  0.16231  0.06415  0.68711  1.0000
  C   C346      1.0  0.15719  0.09242  0.72193  1.0000
  C   C347      1.0  0.44213  0.14191  0.54514  1.0000
  C   C348      1.0  0.25461  0.00309  0.54602  1.0000
  H   H547      1.0  0.32999  0.21182  0.62221  1.0000
  H   H548      1.0  0.10687  0.99033  0.59304  1.0000
  C   C349      1.0  0.29299  0.19685  0.63154  1.0000
  C   C350      1.0  0.24174  0.04403  0.48551  1.0000
  H   H549      1.0  0.15204  0.10707  0.72039  1.0000
  C   C351      1.0  0.16322  0.99782  0.60210  1.0000
  S   S107      1.0  0.48177  0.05620  0.53056  1.0000
  H   H550      1.0  0.42014  0.27987  0.65940  1.0000
  H   H551      1.0  0.15156  0.03404  0.70782  1.0000
  H   H552      1.0  0.40148  0.28862  0.61296  1.0000
  C   C352      1.0  0.17740  0.99716  0.65795  1.0000
  H   H553      1.0  0.42944  0.13089  0.58227  1.0000
  C   C353      1.0  0.41646  0.13014  0.57982  1.0000
  H   H554      1.0  0.45083  0.30064  0.57901  1.0000
  C   C354      1.0  0.13433  0.98285  0.57797  1.0000
  H   H555      1.0  0.48789  0.24134  0.63148  1.0000
  H   H556      1.0  0.14149  0.08626  0.67704  1.0000
  H   H557      1.0  0.31964  0.17230  0.61352  1.0000
  H   H558      1.0  0.22009  0.99624  0.68088  1.0000
  H   H559      1.0  0.16667  0.04993  0.68600  1.0000
  H   H560      1.0  0.39826  0.04290  0.49768  1.0000
  C   C355      1.0  0.48620  0.10896  0.54498  1.0000
  H   H561      1.0  0.42020  0.04716  0.49406  1.0000
  H   H562      1.0  0.33330  0.00114  0.48787  1.0000
  H   H563      1.0  0.31053  0.16747  0.58918  1.0000
  H   H564      1.0  0.07584  0.03859  0.49695  1.0000
  H   H565      1.0  0.44189  0.14730  0.55685  1.0000
  N   N24       1.0  0.32016  0.20078  0.60501  1.0000
  H   H566      1.0  0.35110  0.98808  0.49850  1.0000
  H   H567      1.0  0.44304  0.16837  0.52767  1.0000
  N   N25       1.0  0.25060  0.11143  0.65910  1.0000
  C   C356      1.0  0.23400  0.12551  0.65608  1.0000
  C   C357      1.0  0.25203  0.10919  0.67823  1.0000
  C   C358      1.0  0.24795  0.09411  0.65648  1.0000
  C   C359      1.0  0.26660  0.11731  0.64578  1.0000
  C   C360      1.0  0.22833  0.12800  0.63821  1.0000
  C   C361      1.0  0.25133  0.12657  0.68406  1.0000
  C   C362      1.0  0.26320  0.07770  0.65914  1.0000
  C   C363      1.0  0.28501  0.11074  0.65124  1.0000
  H   H568      1.0  0.22231  0.12274  0.66688  1.0000
  H   H569      1.0  0.23567  0.13888  0.65666  1.0000
  H   H570      1.0  0.26445  0.09973  0.68122  1.0000
  H   H571      1.0  0.24097  0.10305  0.68755  1.0000
  H   H572      1.0  0.23550  0.09051  0.66557  1.0000
  H   H573      1.0  0.24612  0.09538  0.64272  1.0000
  H   H574      1.0  0.26818  0.11299  0.63315  1.0000
  H   H575      1.0  0.26463  0.13215  0.64195  1.0000
  H   H576      1.0  0.23963  0.12960  0.62666  1.0000
  H   H577      1.0  0.22230  0.11682  0.63806  1.0000
  H   H578      1.0  0.21771  0.14026  0.63652  1.0000
  H   H579      1.0  0.25986  0.13518  0.67405  1.0000
  H   H580      1.0  0.23733  0.13430  0.68661  1.0000
  H   H581      1.0  0.25593  0.12317  0.69688  1.0000
  H   H582      1.0  0.27503  0.07888  0.64806  1.0000
  H   H583      1.0  0.25863  0.06575  0.65847  1.0000
  H   H584      1.0  0.26692  0.07491  0.67229  1.0000
  H   H585      1.0  0.28588  0.11740  0.66161  1.0000
  H   H586      1.0  0.29556  0.11430  0.63935  1.0000
  H   H587      1.0  0.28844  0.09612  0.65595  1.0000
  H   H588      1.0  0.33024  0.12647  0.48663  1.0000
  H   H589      1.0  0.37627  0.03515  0.48259  1.0000
  H   H590      1.0  0.05214  0.04000  0.50667  1.0000
  H   H591      1.0  0.17175  0.00563  0.69709  1.0000
  H   H592      1.0  0.23862  0.02092  0.47794  1.0000
  C   C364      1.0  0.23192  0.03202  0.48446  1.0000
  S   S108      1.0  0.29352  0.04602  0.49090  1.0000
  H   H593      1.0  0.48211  0.09118  0.53063  1.0000
  H   H594      1.0  0.19420  0.03012  0.56538  1.0000
  H   H595      1.0  0.05812  0.17804  0.71316  1.0000
  H   H596      1.0  0.34703  0.20045  0.60724  1.0000
  H   H597      1.0  0.26211  0.09362  0.52595  1.0000
  H   H598      1.0  0.29662  0.18235  0.63185  1.0000
  H   H599      1.0  0.28229  0.09464  0.50885  1.0000
  H   H600      1.0  0.39792  0.29490  0.68212  1.0000
  C   C365      1.0  0.48290  0.17977  0.62836  1.0000
  H   H601      1.0  0.31913  0.26101  0.70672  1.0000
  S   S109      1.0  0.33238  0.06199  0.49740  1.0000
  H   H602      1.0  0.37883  0.98691  0.49971  1.0000
  H   H603      1.0  0.29194  0.21219  0.60476  1.0000
  C   C366      1.0  0.33080  0.09825  0.49124  1.0000
  H   H604      1.0  0.09030  0.19928  0.71788  1.0000
  C   C367      1.0  0.43735  0.11519  0.52592  1.0000
  H   H605      1.0  0.20104  0.00153  0.54656  1.0000
  H   H606      1.0  0.21210  0.98633  0.61563  1.0000
  C   C368      1.0  0.05681  0.19111  0.71665  1.0000
  C   C369      1.0  0.38562  0.09884  0.48553  1.0000
  H   H607      1.0  0.21368  0.00305  0.52429  1.0000
  H   H608      1.0  0.41133  0.11935  0.59050  1.0000
  H   H609      1.0  0.30080  0.07229  0.52705  1.0000
  H   H610      1.0  0.25565  0.03772  0.54448  1.0000
  H   H611      1.0  0.06249  0.22268  0.72568  1.0000
  H   H612      1.0  0.17719  0.99150  0.59675  1.0000
  H   H613      1.0  0.16745  0.00040  0.66951  1.0000
  C   C370      1.0  0.03716  0.03232  0.48179  1.0000
  H   H614      1.0  0.41364  0.16454  0.55431  1.0000
  H   H615      1.0  0.47458  0.10707  0.55549  1.0000
  H   H616      1.0  0.46404  0.24626  0.63689  1.0000
  H   H617      1.0  0.20561  0.03729  0.58821  1.0000
  C   C371      1.0  0.40604  0.05365  0.49359  1.0000
  C   C372      1.0  0.36740  0.28545  0.70852  1.0000
  C   C373      1.0  0.42676  0.29249  0.59566  1.0000
  H   H618      1.0  0.06214  0.05915  0.50172  1.0000
  H   H619      1.0  0.45164  0.12886  0.54648  1.0000
  H   H620      1.0  0.33737  0.22685  0.70851  1.0000
  H   H621      1.0  0.40424  0.30391  0.70784  1.0000
  H   H622      1.0  0.40657  0.14271  0.58140  1.0000
  H   H623      1.0  0.39711  0.18181  0.53217  1.0000
  H   H624      1.0  0.14157  0.09204  0.70358  1.0000
  C   C374      1.0  0.48505  0.26733  0.58568  1.0000
  H   H625      1.0  0.18738  0.06913  0.70554  1.0000
  N   N26       1.0  0.44467  0.15674  0.61583  1.0000
  C   C375      1.0  0.44886  0.16110  0.59562  1.0000
  C   C376      1.0  0.46179  0.14625  0.62169  1.0000
  C   C377      1.0  0.43932  0.17418  0.62207  1.0000
  C   C378      1.0  0.42956  0.14668  0.62214  1.0000
  C   C379      1.0  0.43342  0.17274  0.58646  1.0000
  H   H626      1.0  0.02087  0.04696  0.50261  1.0000
  C   C380      1.0  0.43405  0.17314  0.64239  1.0000
  C   C381      1.0  0.42759  0.13509  0.64132  1.0000
  H   H627      1.0  0.46036  0.16807  0.59050  1.0000
  H   H628      1.0  0.45316  0.14869  0.59017  1.0000
  H   H629      1.0  0.46052  0.14360  0.63634  1.0000
  H   H630      1.0  0.47245  0.15425  0.61640  1.0000
  H   H631      1.0  0.45022  0.18187  0.61656  1.0000
  H   H632      1.0  0.42752  0.18281  0.61693  1.0000
  H   H633      1.0  0.41649  0.15616  0.62124  1.0000
  H   H634      1.0  0.43100  0.13748  0.61309  1.0000
  H   H635      1.0  0.43027  0.18677  0.58820  1.0000
  H   H636      1.0  0.43769  0.17336  0.57184  1.0000
  H   H637      1.0  0.42110  0.16716  0.59106  1.0000
  H   H638      1.0  0.22783  0.04296  0.56604  1.0000
  C   C382      1.0  0.02126  0.04677  0.48852  1.0000
  C   C383      1.0  0.17842  0.05936  0.71148  1.0000
  H   H639      1.0  0.43121  0.18686  0.64493  1.0000
  H   H640      1.0  0.44488  0.16530  0.64948  1.0000
  H   H641      1.0  0.42144  0.16819  0.64830  1.0000
  H   H642      1.0  0.41319  0.13718  0.64799  1.0000
  H   H643      1.0  0.43475  0.13799  0.65018  1.0000
  H   H644      1.0  0.43177  0.12066  0.64091  1.0000
  C   C384      1.0  0.24330  0.04543  0.53973  1.0000
  C   C385      1.0  0.40997  0.15646  0.54668  1.0000
  C   C386      1.0  0.17709  0.98266  0.65095  1.0000
  H   H645      1.0  0.45945  0.11988  0.61870  1.0000
  H   H646      1.0  0.45142  0.11655  0.52385  1.0000
  H   H647      1.0  0.15690  0.00351  0.57612  1.0000
  H   H648      1.0  0.41151  0.08779  0.49237  1.0000
  C   C387      1.0  0.40585  0.31497  0.61072  1.0000
  H   H649      1.0  0.45238  0.14986  0.51610  1.0000
  H   H650      1.0  0.16397  0.09373  0.69363  1.0000
  H   H651      1.0  0.25540  0.98952  0.54394  1.0000
  C   C388      1.0  0.34750  0.23523  0.70549  1.0000
  H   H652      1.0  0.42419  0.30071  0.64567  1.0000
  H   H653      1.0  0.33185  0.27526  0.70956  1.0000
  H   H654      1.0  0.11739  0.99834  0.61342  1.0000
  H   H655      1.0  0.42026  0.29588  0.68068  1.0000
  H   H656      1.0  0.20117  0.03707  0.71303  1.0000
  C   C389      1.0  0.14693  0.03829  0.72075  1.0000
  H   H657      1.0  0.46112  0.24980  0.60674  1.0000
  H   H658      1.0  0.41103  0.99501  0.48391  1.0000
  H   H659      1.0  0.15355  0.99984  0.71502  1.0000
  S   S110      1.0  0.11536  0.05015  0.48359  1.0000
  H   H660      1.0  0.04411  0.20005  0.71358  1.0000
  H   H661      1.0  0.21844  0.01472  0.59326  1.0000
  H   H662      1.0  0.13848  0.00859  0.59325  1.0000
  H   H663      1.0  0.46751  0.25575  0.56628  1.0000
  H   H664      1.0  0.43471  0.10358  0.53676  1.0000
  C   C390      1.0  0.20652  0.02312  0.58817  1.0000
  H   H665      1.0  0.24389  0.04373  0.52616  1.0000
  H   H666      1.0  0.06761  0.19766  0.70771  1.0000
  H   H667      1.0  0.48470  0.04899  0.58652  1.0000
  H   H668      1.0  0.47077  0.27218  0.58457  1.0000
  H   H669      1.0  0.02078  0.06041  0.48034  1.0000
  H   H670      1.0  0.19522  0.04358  0.69166  1.0000
  H   H671      1.0  0.25517  0.01246  0.53297  1.0000
  C   C391      1.0  0.22637  0.04080  0.55321  1.0000
  C   C392      1.0  0.49024  0.16502  0.64032  1.0000
  C   C393      1.0  0.43842  0.30447  0.58813  1.0000
  H   H672      1.0  0.48714  0.18045  0.61417  1.0000
  C   C394      1.0  0.05821  0.05278  0.47800  1.0000
  H   H673      1.0  0.32505  0.09946  0.47986  1.0000
  H   H674      1.0  0.40231  0.29547  0.65059  1.0000
  H   H675      1.0  0.43611  0.06912  0.47978  1.0000
  H   H676      1.0  0.26711  0.00236  0.55041  1.0000
  H   H677      1.0  0.08849  0.16945  0.72160  1.0000
  H   H678      1.0  0.12942  0.98770  0.63124  1.0000
  C   C395      1.0  0.32199  0.26668  0.71691  1.0000
  H   H679      1.0  0.22115  0.98780  0.70386  1.0000
  C   C396      1.0  0.35688  0.01283  0.47915  1.0000
  C   C397      1.0  0.30433  0.27925  0.72335  1.0000
  H   H680      1.0  0.23347  0.99538  0.56776  1.0000
  H   H681      1.0  0.18203  0.03085  0.71039  1.0000
  H   H682      1.0  0.35006  0.02214  0.48845  1.0000
  C   C398      1.0  0.20236  0.98940  0.62741  1.0000
  H   H683      1.0  0.13242  0.06564  0.71702  1.0000
  H   H684      1.0  0.17392  0.99930  0.72025  1.0000
  Fe  Fe52      1.0  0.27384  0.06860  0.47869  1.0000
  Fe  Fe53      1.0  0.31298  0.06444  0.47980  1.0000
  H   H685      1.0  0.45922  0.03040  0.47999  1.0000
  H   H686      1.0  0.48840  0.08239  0.59299  1.0000
  N   N27       1.0  0.48896  0.24745  0.59298  1.0000
  C   C399      1.0  0.48865  0.23711  0.57957  1.0000
  H   H687      1.0  0.04729  0.06478  0.47798  1.0000
  S   S111      1.0  0.13925  0.18855  0.74406  1.0000
  H   H688      1.0  0.05460  0.12933  0.85655  1.0000
  Fe  Fe54      1.0  0.36964  0.29654  0.75124  1.0000
  N   N28       1.0  0.05616  0.01249  0.78679  1.0000
  H   H689      1.0  0.28592  0.29123  0.87990  1.0000
  H   H690      1.0  0.07604  0.13389  0.83368  1.0000
  C   C400      1.0  0.05543  0.99389  0.76448  1.0000
  C   C401      1.0  0.18387  0.24359  0.76499  1.0000
  H   H691      1.0  0.16955  0.23041  0.78939  1.0000
  H   H692      1.0  0.04344  0.02157  0.76397  1.0000
  H   H693      1.0  0.04726  0.20030  0.74173  1.0000
  S   S112      1.0  0.35297  0.29335  0.77921  1.0000
  H   H694      1.0  0.33737  0.29347  0.84475  1.0000
  N   N29       1.0  0.32984  0.25205  0.73093  1.0000
  S   S113      1.0  0.28236  0.29871  0.91460  1.0000
  H   H695      1.0  0.32133  0.26767  0.75173  1.0000
  S   S114      1.0  0.03154  0.07563  0.82733  1.0000
  H   H696      1.0  0.15065  0.25394  0.75844  1.0000
  C   C402      1.0  0.33365  0.26032  0.74437  1.0000
  H   H697      1.0  0.08178  0.01711  0.78732  1.0000
  S   S115      1.0  0.19949  0.12623  0.76283  1.0000
  S   S116      1.0  0.11730  0.99792  0.74070  1.0000
  S   S117      1.0  0.16698  0.15763  0.77679  1.0000
  C   C403      1.0  0.06327  0.16839  0.77375  1.0000
  Fe  Fe55      1.0  0.19580  0.15527  0.76318  1.0000
  S   S118      1.0  0.21560  0.16686  0.77068  1.0000
  Fe  Fe56      1.0  0.16991  0.12954  0.77364  1.0000
  S   S119      1.0  0.15686  0.10901  0.79476  1.0000
  H   H698      1.0  0.08445  0.18300  0.76529  1.0000
  N   N30       1.0  0.07455  0.18513  0.74164  1.0000
  S   S120      1.0  0.11855  0.02316  0.77613  1.0000
  S   S121      1.0  0.16332  0.04127  0.76306  1.0000
  S   S122      1.0  0.09229  0.00542  0.82522  1.0000
  Fe  Fe57      1.0  0.20725  0.24124  0.82285  1.0000
  S   S123      1.0  0.21839  0.25894  0.79753  1.0000
  S   S124      1.0  0.19073  0.22129  0.82325  1.0000
  Fe  Fe58      1.0  0.21810  0.26087  0.84620  1.0000
  S   S125      1.0  0.22936  0.28035  0.82262  1.0000
  S   S126      1.0  0.22041  0.26019  0.87432  1.0000
  Fe  Fe59      1.0  0.20516  0.28124  0.81222  1.0000
  H   H699      1.0  0.18289  0.19522  0.75601  1.0000
  Fe  Fe60      1.0  0.24157  0.25641  0.81020  1.0000
  S   S127      1.0  0.27094  0.25162  0.79683  1.0000
  S   S128      1.0  0.19263  0.26383  0.83698  1.0000
  S   S129      1.0  0.23168  0.23654  0.83444  1.0000
  H   H700      1.0  0.00458  0.26366  0.77708  1.0000
  Fe  Fe61      1.0  0.08019  0.30216  0.87117  1.0000
  H   H701      1.0  0.35363  0.23077  0.73124  1.0000
  S   S130      1.0  0.08025  0.27378  0.87085  1.0000
  H   H702      1.0  0.37831  0.27997  0.95385  1.0000
  C   C404      1.0  0.12806  0.24191  0.76273  1.0000
  H   H703      1.0  0.16158  0.31377  0.88703  1.0000
  H   H704      1.0  0.02501  0.26936  0.77659  1.0000
  Fe  Fe62      1.0  0.01542  0.20790  0.83035  1.0000
  S   S131      1.0  0.03254  0.19442  0.80831  1.0000
  H   H705      1.0  0.06857  0.22124  0.74663  1.0000
  Fe  Fe63      1.0  0.03291  0.23995  0.81783  1.0000
  S   S132      1.0  0.05175  0.22933  0.79478  1.0000
  S   S133      1.0  0.03178  0.26758  0.82118  1.0000
  Fe  Fe64      1.0  0.02793  0.22166  0.79081  1.0000
  Fe  Fe65      1.0  0.05497  0.20305  0.81406  1.0000
  S   S134      1.0  0.08029  0.18225  0.81517  1.0000
  S   S135      1.0  0.00848  0.23453  0.81229  1.0000
  S   S136      1.0  0.03829  0.21432  0.83771  1.0000
  C   C405      1.0  0.22862  0.30964  0.87139  1.0000
  H   H706      1.0  0.30518  0.28607  0.73361  1.0000
  C   C406      1.0  0.17188  0.31450  0.89397  1.0000
  C   C407      1.0  0.04511  0.26890  0.83529  1.0000
  C   C408      1.0  0.04282  0.28502  0.84064  1.0000
  C   C409      1.0  0.05330  0.28645  0.85187  1.0000
  C   C410      1.0  0.06633  0.27187  0.85758  1.0000
  C   C411      1.0  0.06861  0.25570  0.85227  1.0000
  C   C412      1.0  0.05801  0.25420  0.84114  1.0000
  H   H707      1.0  0.03273  0.29636  0.83632  1.0000
  H   H708      1.0  0.05100  0.29873  0.85640  1.0000
  H   H709      1.0  0.07859  0.24434  0.85675  1.0000
  H   H710      1.0  0.05985  0.24173  0.83705  1.0000
  H   H711      1.0  0.06979  0.02945  0.75089  1.0000
  H   H712      1.0  0.04719  0.99380  0.75506  1.0000
  C   C413      1.0  0.00655  0.22553  0.73938  1.0000
  C   C414      1.0  0.00669  0.22696  0.75658  1.0000
  H   H713      1.0  0.32076  0.29947  0.86411  1.0000
  C   C415      1.0  0.35133  0.28635  0.93645  1.0000
  H   H714      1.0  0.02176  0.04257  0.80864  1.0000
  H   H715      1.0  0.01061  0.29478  0.79026  1.0000
  H   H716      1.0  0.00311  0.27515  0.80329  1.0000
  H   H717      1.0  0.16810  0.30321  0.83152  1.0000
  C   C416      1.0  0.22531  0.27872  0.87922  1.0000
  C   C417      1.0  0.23110  0.27665  0.89512  1.0000
  C   C418      1.0  0.23597  0.29091  0.89900  1.0000
  C   C419      1.0  0.23488  0.30741  0.88705  1.0000
  N   N31       1.0  0.04148  0.12974  0.83525  1.0000
  C   C420      1.0  0.22393  0.29533  0.86744  1.0000
  H   H718      1.0  0.23211  0.26385  0.90434  1.0000
  H   H719      1.0  0.24074  0.28908  0.91113  1.0000
  H   H720      1.0  0.13077  0.23879  0.74929  1.0000
  H   H721      1.0  0.21926  0.29714  0.85526  1.0000
  C   C421      1.0  0.20880  0.18149  0.78579  1.0000
  C   C422      1.0  0.21977  0.19320  0.78509  1.0000
  C   C423      1.0  0.21456  0.20529  0.79670  1.0000
  C   C424      1.0  0.19850  0.20545  0.80937  1.0000
  C   C425      1.0  0.18780  0.19334  0.81045  1.0000
  C   C426      1.0  0.19279  0.18157  0.79855  1.0000
  H   H722      1.0  0.23225  0.19312  0.77535  1.0000
  H   H723      1.0  0.22294  0.21451  0.79579  1.0000
  H   H724      1.0  0.17549  0.19322  0.82040  1.0000
  H   H725      1.0  0.18430  0.17257  0.79925  1.0000
  C   C427      1.0  0.15868  0.08992  0.78634  1.0000
  C   C428      1.0  0.14860  0.07691  0.79586  1.0000
  C   C429      1.0  0.14988  0.06181  0.78893  1.0000
  C   C430      1.0  0.16143  0.05963  0.77259  1.0000
  C   C431      1.0  0.17170  0.07249  0.76330  1.0000
  C   C432      1.0  0.17023  0.08765  0.77006  1.0000
  H   H726      1.0  0.13967  0.07859  0.80848  1.0000
  H   H727      1.0  0.14197  0.05189  0.79622  1.0000
  H   H728      1.0  0.18089  0.07073  0.75084  1.0000
  H   H729      1.0  0.17820  0.09748  0.76268  1.0000
  C   C433      1.0  0.12249  0.18689  0.76350  1.0000
  C   C434      1.0  0.10958  0.20198  0.76726  1.0000
  C   C435      1.0  0.09682  0.20080  0.78334  1.0000
  C   C436      1.0  0.09672  0.18443  0.79549  1.0000
  C   C437      1.0  0.10958  0.16934  0.79163  1.0000
  C   C438      1.0  0.12235  0.17054  0.77561  1.0000
  H   H730      1.0  0.10953  0.21460  0.75782  1.0000
  H   H731      1.0  0.08719  0.21255  0.78638  1.0000
  H   H732      1.0  0.10959  0.15663  0.80093  1.0000
  H   H733      1.0  0.13191  0.15868  0.77257  1.0000
  C   C439      1.0  0.04847  0.05611  0.82758  1.0000
  C   C440      1.0  0.06499  0.05687  0.81560  1.0000
  C   C441      1.0  0.07866  0.04148  0.81492  1.0000
  C   C442      1.0  0.07591  0.02525  0.82631  1.0000
  C   C443      1.0  0.05948  0.02456  0.83847  1.0000
  C   C444      1.0  0.04575  0.03992  0.83906  1.0000
  H   H734      1.0  0.06718  0.06938  0.80672  1.0000
  H   H735      1.0  0.06888  0.99545  0.75631  1.0000
  H   H736      1.0  0.05733  0.01205  0.84738  1.0000
  H   H737      1.0  0.03309  0.03924  0.84838  1.0000
  H   H738      1.0  0.10207  0.15755  0.75701  1.0000
  S   S137      1.0  0.15638  0.99648  0.76339  1.0000
  H   H739      1.0  0.09131  0.04217  0.80560  1.0000
  C   C445      1.0  0.28945  0.26217  0.97590  1.0000
  C   C446      1.0  0.16617  0.22223  0.74960  1.0000
  H   H740      1.0  0.29059  0.30450  0.82905  1.0000
  H   H741      1.0  0.15542  0.02997  0.73032  1.0000
  H   H742      1.0  0.17753  0.30854  0.93401  1.0000
  Fe  Fe66      1.0  0.27285  0.29605  0.94421  1.0000
  H   H743      1.0  0.36118  0.25911  0.97073  1.0000
  C   C447      1.0  0.02268  0.13667  0.83183  1.0000
  H   H744      1.0  0.11895  0.25524  0.76226  1.0000
  Fe  Fe67      1.0  0.36686  0.31310  0.78322  1.0000
  C   C448      1.0  0.30627  0.28460  0.78054  1.0000
  C   C449      1.0  0.29872  0.26932  0.78569  1.0000
  C   C450      1.0  0.28008  0.27097  0.78948  1.0000
  C   C451      1.0  0.26904  0.28798  0.78775  1.0000
  H   H745      1.0  0.07775  0.15707  0.74156  1.0000
  H   H746      1.0  0.32062  0.28322  0.77786  1.0000
  H   H747      1.0  0.30733  0.25620  0.78709  1.0000
  H   H748      1.0  0.25468  0.28944  0.79014  1.0000
  H   H749      1.0  0.08150  0.12133  0.81613  1.0000
  C   C452      1.0  0.33461  0.29960  0.85658  1.0000
  C   C453      1.0  0.27647  0.30405  0.83051  1.0000
  C   C454      1.0  0.00195  0.28540  0.79085  1.0000
  C   C455      1.0  0.01079  0.27517  0.77564  1.0000
  C   C456      1.0  0.04182  0.13535  0.85198  1.0000
  H   H750      1.0  0.34181  0.27068  0.73746  1.0000
  C   C457      1.0  0.07652  0.03039  0.76118  1.0000
  C   C458      1.0  0.01854  0.13042  0.81663  1.0000
  H   H751      1.0  0.32726  0.31404  0.94723  1.0000
  H   H752      1.0  0.30536  0.23586  0.76792  1.0000
  H   H753      1.0  0.34360  0.29085  0.86549  1.0000
  H   H754      1.0  0.09648  0.19847  0.73785  1.0000
  Fe  Fe68      1.0  0.12742  0.99841  0.76469  1.0000
  H   H755      1.0  0.08489  0.98529  0.80305  1.0000
  Fe  Fe69      1.0  0.14743  0.01977  0.77700  1.0000
  S   S138      1.0  0.02735  0.22526  0.76196  1.0000
  N   N32       1.0  0.35363  0.29761  0.94819  1.0000
  N   N33       1.0  0.15953  0.22567  0.76833  1.0000
  C   C459      1.0  0.15222  0.20975  0.78009  1.0000
  C   C460      1.0  0.05416  0.13767  0.81915  1.0000
  C   C461      1.0  0.17448  0.22801  0.77556  1.0000
  C   C462      1.0  0.14241  0.21159  0.79931  1.0000
  C   C463      1.0  0.07494  0.01490  0.77762  1.0000
  H   H756      1.0  0.27311  0.31012  0.81717  1.0000
  C   C464      1.0  0.16074  0.31254  0.82199  1.0000
  H   H757      1.0  0.16315  0.19771  0.78137  1.0000
  H   H758      1.0  0.39113  0.29794  0.93033  1.0000
  C   C465      1.0  0.05658  0.18870  0.73670  1.0000
  H   H759      1.0  0.02786  0.01939  0.81774  1.0000
  H   H760      1.0  0.18485  0.21558  0.77710  1.0000
  H   H761      1.0  0.13769  0.19901  0.80632  1.0000
  H   H762      1.0  0.15135  0.21342  0.80711  1.0000
  H   H763      1.0  0.13035  0.22249  0.79969  1.0000
  S   S139      1.0  0.19059  0.16463  0.73531  1.0000
  H   H764      1.0  0.03287  0.00649  0.78169  1.0000
  C   C466      1.0  0.34361  0.24726  0.75849  1.0000
  H   H765      1.0  0.07121  0.15515  0.77144  1.0000
  H   H766      1.0  0.15597  0.21753  0.74553  1.0000
  H   H767      1.0  0.11060  0.14856  0.73734  1.0000
  H   H768      1.0  0.14579  0.05967  0.73286  1.0000
  C   C467      1.0  0.27658  0.30323  0.78290  1.0000
  H   H769      1.0  0.20558  0.30545  0.94174  1.0000
  S   S140      1.0  0.19115  0.30590  0.79575  1.0000
  H   H770      1.0  0.08019  0.14511  0.81134  1.0000
  H   H771      1.0  0.19485  0.30758  0.91452  1.0000
  H   H772      1.0  0.05528  0.09918  0.86299  1.0000
  C   C468      1.0  0.05660  0.99753  0.80318  1.0000
  H   H773      1.0  0.09088  0.02972  0.75471  1.0000
  H   H774      1.0  0.04917  0.16987  0.77280  1.0000
  H   H775      1.0  0.33671  0.26713  0.95720  1.0000
  H   H776      1.0  0.02597  0.16306  0.84770  1.0000
  H   H777      1.0  0.18480  0.24608  0.75041  1.0000
  H   H778      1.0  0.04909  0.10538  0.82489  1.0000
  S   S141      1.0  0.16230  0.13726  0.74693  1.0000
  H   H779      1.0  0.05712  0.00260  0.81490  1.0000
  Fe  Fe70      1.0  0.11683  0.00409  0.80272  1.0000
  Fe  Fe71      1.0  0.16179  0.16513  0.74899  1.0000
  C   C469      1.0  0.36537  0.28673  0.96114  1.0000
  H   H780      1.0  0.32278  0.28463  0.94409  1.0000
  H   H781      1.0  0.02686  0.13502  0.80345  1.0000
  H   H782      1.0  0.36400  0.27665  0.93286  1.0000
  S   S142      1.0  0.38557  0.31378  0.75648  1.0000
  H   H783      1.0  0.04959  0.17748  0.74359  1.0000
  S   S143      1.0  0.38402  0.27349  0.73748  1.0000
  N   N34       1.0  0.19316  0.11653  0.82236  1.0000
  C   C470      1.0  0.20310  0.13082  0.81069  1.0000
  C   C471      1.0  0.17344  0.12492  0.82473  1.0000
  C   C472      1.0  0.19711  0.10160  0.81241  1.0000
  C   C473      1.0  0.19961  0.11002  0.83974  1.0000
  C   C474      1.0  0.22356  0.12487  0.80462  1.0000
  C   C475      1.0  0.16724  0.14072  0.83444  1.0000
  C   C476      1.0  0.18847  0.08531  0.82182  1.0000
  C   C477      1.0  0.18718  0.10052  0.85596  1.0000
  H   H784      1.0  0.19766  0.13705  0.79834  1.0000
  H   H785      1.0  0.20123  0.14193  0.81764  1.0000
  H   H786      1.0  0.16482  0.11517  0.83182  1.0000
  H   H787      1.0  0.16955  0.12994  0.81148  1.0000
  H   H788      1.0  0.19301  0.10680  0.79929  1.0000
  H   H789      1.0  0.21171  0.09593  0.80935  1.0000
  H   H790      1.0  0.21287  0.10070  0.83783  1.0000
  H   H791      1.0  0.20200  0.12142  0.84403  1.0000
  H   H792      1.0  0.23019  0.11713  0.81579  1.0000
  H   H793      1.0  0.22687  0.11721  0.79385  1.0000
  H   H794      1.0  0.22950  0.13694  0.79877  1.0000
  H   H795      1.0  0.15235  0.14423  0.83736  1.0000
  H   H796      1.0  0.17161  0.13751  0.84732  1.0000
  H   H797      1.0  0.17189  0.15284  0.82593  1.0000
  H   H798      1.0  0.19426  0.07752  0.83354  1.0000
  H   H799      1.0  0.19148  0.07622  0.81233  1.0000
  H   H800      1.0  0.17368  0.08882  0.82559  1.0000
  H   H801      1.0  0.19527  0.08819  0.86275  1.0000
  H   H802      1.0  0.17620  0.09639  0.85284  1.0000
  H   H803      1.0  0.18137  0.10905  0.86605  1.0000
  H   H804      1.0  0.05420  0.13263  0.80727  1.0000
  C   C478      1.0  0.38048  0.30643  0.92328  1.0000
  C   C479      1.0  0.08456  0.19996  0.73213  1.0000
  H   H805      1.0  0.04997  0.16142  0.84053  1.0000
  C   C480      1.0  0.04534  0.10960  0.83798  1.0000
  H   H806      1.0  0.36960  0.29531  0.96779  1.0000
  H   H807      1.0  0.19544  0.21291  0.74756  1.0000
  H   H808      1.0  0.06308  0.16873  0.78773  1.0000
  H   H809      1.0  0.12068  0.23222  0.77265  1.0000
  C   C481      1.0  0.10365  0.16101  0.74228  1.0000
  H   H810      1.0  0.33731  0.26668  0.93467  1.0000
  C   C482      1.0  0.33618  0.27565  0.94381  1.0000
  H   H811      1.0  0.03966  0.15809  0.86365  1.0000
  S   S144      1.0  0.27341  0.26914  0.96243  1.0000
  H   H812      1.0  0.07151  0.04361  0.76498  1.0000
  C   C483      1.0  0.05993  0.09885  0.84857  1.0000
  H   H813      1.0  0.07281  0.10329  0.84341  1.0000
  C   C484      1.0  0.14534  0.24255  0.76803  1.0000
  H   H814      1.0  0.14149  0.24653  0.78123  1.0000
  S   S145      1.0  0.14529  0.00259  0.80473  1.0000
  H   H815      1.0  0.29741  0.25763  0.75514  1.0000
  S   S146      1.0  0.99560  0.09747  0.86319  1.0000
  H   H816      1.0  0.34329  0.25430  0.76907  1.0000
  H   H817      1.0  0.31601  0.31471  0.83245  1.0000
  H   H818      1.0  0.00437  0.13630  0.81560  1.0000
  H   H819      1.0  0.04949  0.15237  0.81518  1.0000
  N   N35       1.0  0.13434  0.26725  0.82722  1.0000
  C   C485      1.0  0.14230  0.27763  0.80929  1.0000
  C   C486      1.0  0.11436  0.27079  0.82854  1.0000
  C   C487      1.0  0.14238  0.24759  0.82796  1.0000
  C   C488      1.0  0.13896  0.27363  0.84151  1.0000
  C   C489      1.0  0.16294  0.27343  0.80356  1.0000
  C   C490      1.0  0.10455  0.29054  0.82676  1.0000
  C   C491      1.0  0.13115  0.23405  0.84027  1.0000
  C   C492      1.0  0.13247  0.26465  0.86104  1.0000
  H   H820      1.0  0.13694  0.27548  0.79847  1.0000
  H   H821      1.0  0.13851  0.29228  0.80894  1.0000
  H   H822      1.0  0.10752  0.26354  0.84135  1.0000
  H   H823      1.0  0.11139  0.26556  0.81807  1.0000
  H   H824      1.0  0.14512  0.24441  0.81450  1.0000
  H   H825      1.0  0.15561  0.24406  0.83196  1.0000
  H   H826      1.0  0.15370  0.27150  0.83982  1.0000
  H   H827      1.0  0.13455  0.28830  0.84024  1.0000
  H   H828      1.0  0.16866  0.25924  0.80284  1.0000
  H   H829      1.0  0.16695  0.28156  0.79003  1.0000
  H   H830      1.0  0.16932  0.27734  0.81244  1.0000
  H   H831      1.0  0.10877  0.29877  0.81340  1.0000
  H   H832      1.0  0.08997  0.29124  0.82852  1.0000
  H   H833      1.0  0.10610  0.29657  0.83727  1.0000
  H   H834      1.0  0.13948  0.22035  0.84068  1.0000
  H   H835      1.0  0.11925  0.23445  0.83502  1.0000
  H   H836      1.0  0.12675  0.23593  0.85420  1.0000
  H   H837      1.0  0.14173  0.25182  0.86495  1.0000
  H   H838      1.0  0.11866  0.26250  0.86385  1.0000
  H   H839      1.0  0.13189  0.27370  0.86991  1.0000
  N   N36       1.0  0.28457  0.27047  0.84640  1.0000
  C   C493      1.0  0.27433  0.25636  0.85791  1.0000
  C   C494      1.0  0.29253  0.27662  0.85858  1.0000
  C   C495      1.0  0.29946  0.26165  0.83322  1.0000
  C   C496      1.0  0.27176  0.28527  0.83688  1.0000
  C   C497      1.0  0.26715  0.24638  0.84780  1.0000
  C   C498      1.0  0.27895  0.28479  0.87360  1.0000
  C   C499      1.0  0.31401  0.27230  0.82247  1.0000
  C   C500      1.0  0.08548  0.16794  0.73639  1.0000
  H   H840      1.0  0.28273  0.24604  0.86657  1.0000
  H   H841      1.0  0.26243  0.26227  0.86723  1.0000
  H   H842      1.0  0.30071  0.28668  0.85120  1.0000
  H   H843      1.0  0.30204  0.26526  0.86500  1.0000
  H   H844      1.0  0.30659  0.24869  0.84018  1.0000
  H   H845      1.0  0.29394  0.25826  0.82321  1.0000
  H   H846      1.0  0.26972  0.28142  0.82510  1.0000
  H   H847      1.0  0.25822  0.28722  0.84573  1.0000
  H   H848      1.0  0.27806  0.23717  0.84066  1.0000
  H   H849      1.0  0.25808  0.23809  0.85758  1.0000
  H   H850      1.0  0.25923  0.25570  0.83826  1.0000
  H   H851      1.0  0.06277  0.19638  0.76532  1.0000
  H   H852      1.0  0.26812  0.29522  0.86847  1.0000
  H   H853      1.0  0.27312  0.27444  0.88426  1.0000
  H   H854      1.0  0.30839  0.28505  0.81424  1.0000
  H   H855      1.0  0.32360  0.26439  0.81297  1.0000
  H   H856      1.0  0.32201  0.27453  0.83102  1.0000
  H   H857      1.0  0.43921  0.31269  0.77593  1.0000
  C   C501      1.0  0.33549  0.30647  0.95738  1.0000
  C   C502      1.0  0.07401  0.13402  0.82035  1.0000
  H   H858      1.0  0.03307  0.10430  0.84533  1.0000
  C   C503      1.0  0.04617  0.02963  0.79287  1.0000
  C   C504      1.0  0.07164  0.18398  0.76145  1.0000
  H   H859      1.0  0.26786  0.31313  0.83939  1.0000
  H   H860      1.0  0.14283  0.20612  0.77393  1.0000
  C   C505      1.0  0.02739  0.02928  0.80499  1.0000
  H   H861      1.0  0.06255  0.08460  0.84758  1.0000
  H   H862      1.0  0.14924  0.08594  0.73451  1.0000
  H   H863      1.0  0.03134  0.13034  0.86328  1.0000
  H   H864      1.0  0.05410  0.03370  0.80029  1.0000
  H   H865      1.0  0.04419  0.04088  0.78130  1.0000
  S   S147      1.0  0.10603  0.31012  0.86915  1.0000
  H   H866      1.0  0.37844  0.29959  0.91358  1.0000
  H   H867      1.0  0.01986  0.11573  0.81931  1.0000
  H   H868      1.0  0.01264  0.13271  0.84411  1.0000
  C   C506      1.0  0.03917  0.15565  0.85060  1.0000
  H   H869      1.0  0.34832  0.29492  0.92353  1.0000
  H   H870      1.0  0.01793  0.02689  0.79809  1.0000
  H   H871      1.0  0.99386  0.28917  0.82632  1.0000
  C   C507      1.0  0.35813  0.27170  0.97569  1.0000
  H   H872      1.0  0.01947  0.15152  0.82842  1.0000
  H   H873      1.0  0.17693  0.25613  0.76974  1.0000
  H   H874      1.0  0.32762  0.29662  0.96623  1.0000
  S   S148      1.0  0.99629  0.19456  0.85289  1.0000
  H   H875      1.0  0.11266  0.17067  0.73651  1.0000
  H   H876      1.0  0.08336  0.00269  0.77304  1.0000
  C   C508      1.0  0.30208  0.24331  0.75482  1.0000
  C   C509      1.0  0.04624  0.00930  0.77436  1.0000
  H   H877      1.0  0.16807  0.23471  0.73959  1.0000
  C   C510      1.0  0.29519  0.30158  0.77953  1.0000
  H   H878      1.0  0.35799  0.24280  0.75261  1.0000
  C   C511      1.0  0.18370  0.20819  0.74660  1.0000
  S   S149      1.0  0.37480  0.30880  0.80975  1.0000
  Fe  Fe72      1.0  0.19175  0.13575  0.73605  1.0000
  H   H879      1.0  0.01900  0.22345  0.72974  1.0000
  H   H880      1.0  0.38861  0.31020  0.83945  1.0000
  C   C512      1.0  0.31784  0.23868  0.73932  1.0000
  Fe  Fe73      1.0  0.00380  0.07764  0.84519  1.0000
  H   H881      1.0  0.29093  0.28857  0.97719  1.0000
  H   H882      1.0  0.19794  0.24020  0.76684  1.0000
  H   H883      1.0  0.04409  0.99218  0.80710  1.0000
  H   H884      1.0  0.29029  0.23860  0.75392  1.0000
  C   C513      1.0  0.36288  0.31229  0.93633  1.0000
  H   H885      1.0  0.32585  0.22557  0.74492  1.0000
  H   H886      1.0  0.18632  0.20568  0.73289  1.0000
  H   H887      1.0  0.33737  0.23552  0.76499  1.0000
  C   C514      1.0  0.07375  0.21913  0.73276  1.0000
  H   H888      1.0  0.17621  0.30076  0.90148  1.0000
  H   H889      1.0  0.01098  0.28385  0.76220  1.0000
  S   S150      1.0  0.28769  0.31570  0.94639  1.0000
  S   S151      1.0  0.24692  0.31552  0.94196  1.0000
  H   H890      1.0  0.31214  0.23606  0.72899  1.0000
  H   H891      1.0  0.29297  0.27221  0.72804  1.0000
  C   C515      1.0  0.99052  0.22985  0.76896  1.0000
  H   H892      1.0  0.99058  0.23100  0.78225  1.0000
  H   H893      1.0  0.29065  0.23433  0.97754  1.0000
  C   C516      1.0  0.13222  0.37152  0.19548  1.0000
  N   N37       1.0  0.24190  0.64839  0.14591  1.0000
  C   C517      1.0  0.15869  0.37591  0.06524  1.0000
  S   S152      1.0  0.12039  0.52540  0.02759  1.0000
  H   H894      1.0  0.04628  0.58750  0.98908  1.0000
  H   H895      1.0  0.09187  0.61102  0.10697  1.0000
  S   S153      1.0  0.07264  0.53863  0.02219  1.0000
  H   H896      1.0  0.12329  0.57637  0.13385  1.0000
  H   H897      1.0  0.17588  0.43630  0.98661  1.0000
  H   H898      1.0  0.14251  0.42876  0.00157  1.0000
  S   S154      1.0  0.13084  0.42694  0.21222  1.0000
  C   C518      1.0  0.18809  0.34216  0.18603  1.0000
  S   S155      1.0  0.46365  0.35474  0.00779  1.0000
  Fe  Fe74      1.0  0.46299  0.32565  0.01754  1.0000
  C   C519      1.0  0.26378  0.34064  0.01412  1.0000
  H   H899      1.0  0.25606  0.34030  0.02799  1.0000
  C   C520      1.0  0.15791  0.57156  0.21062  1.0000
  C   C521      1.0  0.06943  0.60553  0.12819  1.0000
  S   S156      1.0  0.23222  0.59452  0.19657  1.0000
  C   C522      1.0  0.12303  0.45297  0.99589  1.0000
  C   C523      1.0  0.26290  0.32622  0.06509  1.0000
  H   H900      1.0  0.18341  0.33276  0.19833  1.0000
  H   H901      1.0  0.03650  0.59455  0.06505  1.0000
  S   S157      1.0  0.47714  0.31821  0.99124  1.0000
  H   H902      1.0  0.14476  0.58783  0.05179  1.0000
  N   N38       1.0  0.16522  0.36971  0.19631  1.0000
  H   H903      1.0  0.14904  0.48926  0.10622  1.0000
  Fe  Fe75      1.0  0.20191  0.35904  0.12833  1.0000
  S   S158      1.0  0.17242  0.36842  0.13034  1.0000
  S   S159      1.0  0.22095  0.36968  0.13758  1.0000
  S   S160      1.0  0.99721  0.52334  0.02434  1.0000
  H   H904      1.0  0.12451  0.58768  0.11111  1.0000
  S   S161      1.0  0.14619  0.47394  0.03175  1.0000
  C   C524      1.0  0.24595  0.63345  0.16146  1.0000
  S   S162      1.0  0.20738  0.35610  0.09993  1.0000
  Fe  Fe76      1.0  0.13116  0.37728  0.99996  1.0000
  H   H905      1.0  0.08931  0.57517  0.07434  1.0000
  S   S163      1.0  0.13406  0.35957  0.02690  1.0000
  S   S164      1.0  0.09817  0.49494  0.05314  1.0000
  S   S165      1.0  0.09216  0.53385  0.06455  1.0000
  Fe  Fe77      1.0  0.10140  0.50478  0.07605  1.0000
  S   S166      1.0  0.09276  0.49035  0.10415  1.0000
  S   S167      1.0  0.13070  0.50497  0.06618  1.0000
  Fe  Fe78      1.0  0.14010  0.63540  0.11012  1.0000
  S   S168      1.0  0.16223  0.62482  0.08891  1.0000
  H   H906      1.0  0.22314  0.53736  0.17674  1.0000
  Fe  Fe79      1.0  0.16183  0.61915  0.13931  1.0000
  S   S169      1.0  0.18553  0.60690  0.12052  1.0000
  S   S170      1.0  0.15981  0.61579  0.16885  1.0000
  Fe  Fe80      1.0  0.18010  0.63349  0.10176  1.0000
  Fe  Fe81      1.0  0.16526  0.59944  0.10979  1.0000
  S   S171      1.0  0.16663  0.57101  0.10785  1.0000
  H   H907      1.0  0.42947  0.35148  0.98810  1.0000
  S   S172      1.0  0.14199  0.60967  0.13020  1.0000
  Fe  Fe82      1.0  0.16137  0.47776  0.20452  1.0000
  S   S173      1.0  0.13402  0.47876  0.20038  1.0000
  H   H908      1.0  0.21222  0.32166  0.04013  1.0000
  Fe  Fe83      1.0  0.17975  0.45603  0.17560  1.0000
  S   S174      1.0  0.15411  0.45593  0.16869  1.0000
  S   S175      1.0  0.20628  0.44407  0.16022  1.0000
  Fe  Fe84      1.0  0.14651  0.48462  0.17128  1.0000
  S   S176      1.0  0.13604  0.50834  0.15150  1.0000
  Fe  Fe85      1.0  0.14441  0.45000  0.19849  1.0000
  H   H909      1.0  0.09456  0.60057  0.02923  1.0000
  S   S177      1.0  0.17323  0.48533  0.17548  1.0000
  S   S178      1.0  0.17074  0.44831  0.20534  1.0000
  H   H910      1.0  0.17611  0.52173  0.08727  1.0000
  H   H911      1.0  0.02313  0.51461  0.99244  1.0000
  H   H912      1.0  0.17185  0.57175  0.14424  1.0000
  H   H913      1.0  0.18365  0.40291  0.98415  1.0000
  H   H914      1.0  0.07343  0.54919  0.10403  1.0000
  H   H915      1.0  0.24014  0.32930  0.13729  1.0000
  H   H916      1.0  0.26794  0.34737  0.08893  1.0000
  H   H917      1.0  0.14932  0.52500  0.18381  1.0000
  H   H918      1.0  0.19070  0.40884  0.00110  1.0000
  H   H919      1.0  0.25232  0.64339  0.10529  1.0000
  C   C525      1.0  0.10621  0.63021  0.06761  1.0000
  C   C526      1.0  0.11389  0.63397  0.08001  1.0000
  H   H920      1.0  0.06675  0.57991  0.10188  1.0000
  H   H921      1.0  0.11439  0.62205  0.05821  1.0000
  H   H922      1.0  0.12794  0.62877  0.08008  1.0000
  C   C527      1.0  0.14181  0.56117  0.06581  1.0000
  C   C528      1.0  0.14660  0.57762  0.06363  1.0000
  C   C529      1.0  0.15380  0.58096  0.07665  1.0000
  C   C530      1.0  0.15639  0.56779  0.09189  1.0000
  C   C531      1.0  0.15114  0.55153  0.09432  1.0000
  C   C532      1.0  0.14396  0.54814  0.08128  1.0000
  H   H923      1.0  0.15771  0.59358  0.07469  1.0000
  H   H924      1.0  0.15264  0.54154  0.10634  1.0000
  H   H925      1.0  0.14001  0.53555  0.08321  1.0000
  C   C533      1.0  0.10388  0.49579  0.11786  1.0000
  C   C534      1.0  0.11163  0.51084  0.11188  1.0000
  C   C535      1.0  0.12099  0.51493  0.12260  1.0000
  C   C536      1.0  0.12321  0.50359  0.13899  1.0000
  C   C537      1.0  0.11554  0.48846  0.14498  1.0000
  C   C538      1.0  0.10556  0.48476  0.13453  1.0000
  H   H926      1.0  0.11030  0.51942  0.09904  1.0000
  H   H927      1.0  0.12680  0.52670  0.11804  1.0000
  H   H928      1.0  0.11701  0.47983  0.15779  1.0000
  H   H929      1.0  0.09926  0.47330  0.13927  1.0000
  H   H930      1.0  0.10880  0.56117  0.12099  1.0000
  Fe  Fe86      1.0  0.20388  0.32798  0.11154  1.0000
  C   C539      1.0  0.17063  0.49478  0.11497  1.0000
  H   H931      1.0  0.11107  0.59414  0.08771  1.0000
  H   H932      1.0  0.26685  0.32951  0.99111  1.0000
  H   H933      1.0  0.03439  0.61173  0.04555  1.0000
  H   H934      1.0  0.14820  0.55173  0.19460  1.0000
  H   H935      1.0  0.20956  0.50381  0.11919  1.0000
  H   H936      1.0  0.09236  0.57230  0.13649  1.0000
  C   C540      1.0  0.26657  0.34447  0.11778  1.0000
  C   C541      1.0  0.15014  0.38199  0.03645  1.0000
  C   C542      1.0  0.14450  0.36571  0.04100  1.0000
  C   C543      1.0  0.14630  0.35444  0.05759  1.0000
  C   C544      1.0  0.15345  0.35946  0.06965  1.0000
  H   H937      1.0  0.07528  0.61852  0.98860  1.0000
  H   H938      1.0  0.14877  0.39084  0.02379  1.0000
  H   H939      1.0  0.14192  0.34185  0.06124  1.0000
  H   H940      1.0  0.15446  0.35079  0.08251  1.0000
  C   C545      1.0  0.21569  0.39074  0.14333  1.0000
  C   C546      1.0  0.19812  0.40072  0.14666  1.0000
  C   C547      1.0  0.19482  0.41716  0.15206  1.0000
  C   C548      1.0  0.20916  0.42360  0.15387  1.0000
  C   C549      1.0  0.22660  0.41373  0.15011  1.0000
  C   C550      1.0  0.22982  0.39733  0.14509  1.0000
  H   H941      1.0  0.18717  0.39564  0.14532  1.0000
  H   H942      1.0  0.18132  0.42482  0.15479  1.0000
  H   H943      1.0  0.23771  0.41866  0.15138  1.0000
  H   H944      1.0  0.24340  0.38971  0.14256  1.0000
  C   C551      1.0  0.21210  0.60069  0.18885  1.0000
  C   C552      1.0  0.21254  0.60420  0.17048  1.0000
  C   C553      1.0  0.19654  0.60945  0.16414  1.0000
  C   C554      1.0  0.18004  0.61104  0.17618  1.0000
  C   C555      1.0  0.17963  0.60768  0.19453  1.0000
  C   C556      1.0  0.19562  0.60240  0.20087  1.0000
  H   H945      1.0  0.22526  0.60256  0.16117  1.0000
  H   H946      1.0  0.19698  0.61205  0.14999  1.0000
  H   H947      1.0  0.16689  0.60904  0.20388  1.0000
  H   H948      1.0  0.19519  0.59987  0.21506  1.0000
  H   H949      1.0  0.01199  0.48827  0.00994  1.0000
  H   H950      1.0  0.16798  0.47133  0.10645  1.0000
  H   H951      1.0  0.19029  0.39321  0.18942  1.0000
  H   H952      1.0  0.27404  0.62130  0.15051  1.0000
  H   H953      1.0  0.20995  0.64733  0.17613  1.0000
  H   H954      1.0  0.11280  0.57111  0.09057  1.0000
  H   H955      1.0  0.17448  0.39640  0.21016  1.0000
  H   H956      1.0  0.16537  0.48900  0.12922  1.0000
  S   S179      1.0  0.48782  0.31972  0.02859  1.0000
  C   C557      1.0  0.18132  0.49852  0.22538  1.0000
  H   H957      1.0  0.10507  0.47865  0.99308  1.0000
  H   H958      1.0  0.07096  0.63793  0.99775  1.0000
  H   H959      1.0  0.22044  0.33354  0.01850  1.0000
  C   C558      1.0  0.04509  0.51992  0.03689  1.0000
  H   H960      1.0  0.18892  0.36947  0.17493  1.0000
  H   H961      1.0  0.05726  0.59989  0.13104  1.0000
  C   C559      1.0  0.15711  0.38711  0.04856  1.0000
  H   H962      1.0  0.15518  0.36835  0.17381  1.0000
  H   H963      1.0  0.21374  0.36280  0.98247  1.0000
  H   H964      1.0  0.19928  0.48965  0.08402  1.0000
  H   H965      1.0  0.26440  0.32029  0.15246  1.0000
  H   H966      1.0  0.19424  0.49413  0.13757  1.0000
  H   H967      1.0  0.21076  0.55982  0.17167  1.0000
  C   C560      1.0  0.19895  0.49917  0.09235  1.0000
  Fe  Fe87      1.0  0.22944  0.57585  0.22346  1.0000
  S   S180      1.0  0.07885  0.63334  0.05095  1.0000
  H   H968      1.0  0.15994  0.57790  0.22075  1.0000
  H   H969      1.0  0.07328  0.60886  0.09984  1.0000
  N   N39       1.0  0.19068  0.49282  0.11170  1.0000
  H   H970      1.0  0.04510  0.55675  0.00333  1.0000
  H   H971      1.0  0.05277  0.60773  0.98740  1.0000
  C   C561      1.0  0.09382  0.58720  0.07475  1.0000
  H   H972      1.0  0.06477  0.62014  0.12759  1.0000
  H   H973      1.0  0.07656  0.60015  0.13942  1.0000
  H   H974      1.0  0.30196  0.32507  0.13054  1.0000
  C   C562      1.0  0.00759  0.60923  0.99397  1.0000
  H   H975      1.0  0.99314  0.60259  0.03910  1.0000
  H   H976      1.0  0.19604  0.53315  0.17291  1.0000
  C   C563      1.0  0.25063  0.63351  0.11814  1.0000
  H   H977      1.0  0.10859  0.59747  0.12871  1.0000
  C   C564      1.0  0.17613  0.39822  0.19551  1.0000
  C   C565      1.0  0.05125  0.53439  0.02458  1.0000
  H   H978      1.0  0.26228  0.35486  0.00703  1.0000
  C   C566      1.0  0.22402  0.32704  0.03158  1.0000
  H   H979      1.0  0.19020  0.52703  0.13299  1.0000
  Fe  Fe88      1.0  0.09175  0.52404  0.04048  1.0000
  Fe  Fe89      1.0  0.12689  0.49710  0.04233  1.0000
  H   H980      1.0  0.06387  0.48838  0.00100  1.0000
  H   H981      1.0  0.26494  0.33943  0.05796  1.0000
  H   H982      1.0  0.27825  0.33559  0.01428  1.0000
  C   C567      1.0  0.24930  0.32101  0.12782  1.0000
  H   H983      1.0  0.18197  0.57776  0.17200  1.0000
  H   H984      1.0  0.23578  0.33577  0.07815  1.0000
  C   C568      1.0  0.07757  0.64761  0.07943  1.0000
  C   C569      1.0  0.03838  0.59710  0.05028  1.0000
  H   H985      1.0  0.16025  0.57486  0.17280  1.0000
  H   H986      1.0  0.16115  0.39985  0.04507  1.0000
  H   H987      1.0  0.19145  0.46735  0.13050  1.0000
  H   H988      1.0  0.19841  0.47904  0.21046  1.0000
  H   H989      1.0  0.25996  0.36764  0.09708  1.0000
  H   H990      1.0  0.37400  0.34077  0.98433  1.0000
  H   H991      1.0  0.48024  0.40386  0.01761  1.0000
  C   C570      1.0  0.10121  0.57472  0.12303  1.0000
  H   H992      1.0  0.04955  0.50895  0.00448  1.0000
  C   C571      1.0  0.18431  0.36159  0.18851  1.0000
  H   H993      1.0  0.20278  0.33747  0.18187  1.0000
  Fe  Fe90      1.0  0.17749  0.36277  0.10280  1.0000
  H   H994      1.0  0.14932  0.39653  0.19664  1.0000
  C   C572      1.0  0.01339  0.62529  0.99118  1.0000
  C   C573      1.0  0.08294  0.55340  0.10953  1.0000
  C   C574      1.0  0.15228  0.36426  0.18867  1.0000
  C   C575      1.0  0.19850  0.47311  0.11690  1.0000
  C   C576      1.0  0.16065  0.34538  0.22553  1.0000
  H   H995      1.0  0.19284  0.51840  0.06842  1.0000
  C   C577      1.0  0.16290  0.38979  0.19061  1.0000
  C   C578      1.0  0.16392  0.48607  0.10331  1.0000
  C   C579      1.0  0.16152  0.36501  0.21646  1.0000
  H   H996      1.0  0.15549  0.44046  0.02049  1.0000
  H   H997      1.0  0.12425  0.36546  0.18983  1.0000
  C   C580      1.0  0.29825  0.31805  0.10093  1.0000
  H   H998      1.0  0.16837  0.49132  0.08884  1.0000
  H   H999      1.0  0.22286  0.45332  0.12037  1.0000
  C   C581      1.0  0.13722  0.44220  0.00368  1.0000
  C   C582      1.0  0.18392  0.52094  0.12565  1.0000
  H   H1000     1.0  0.22713  0.63212  0.13942  1.0000
  S   S181      1.0  0.13236  0.55786  0.04933  1.0000
  H   H1001     1.0  0.11023  0.58301  0.01945  1.0000
  C   C583      1.0  0.02344  0.54287  0.01386  1.0000
  C   C584      1.0  0.14452  0.44882  0.01445  1.0000
  C   C585      1.0  0.12306  0.47676  0.01013  1.0000
  C   C586      1.0  0.21875  0.46812  0.11695  1.0000
  C   C587      1.0  0.09637  0.58687  0.02704  1.0000
  H   H1002     1.0  0.16215  0.53223  0.20463  1.0000
  H   H1003     1.0  0.02358  0.50525  0.04639  1.0000
  H   H1004     1.0  0.18611  0.56795  0.20056  1.0000
  H   H1005     1.0  0.24538  0.35253  0.10199  1.0000
  S   S182      1.0  0.11332  0.44505  0.98262  1.0000
  C   C588      1.0  0.10283  0.58381  0.09074  1.0000
  H   H1006     1.0  0.12841  0.38620  0.19092  1.0000
  H   H1007     1.0  0.21335  0.49923  0.09085  1.0000
  H   H1008     1.0  0.17237  0.52348  0.17372  1.0000
  S   S183      1.0  0.14862  0.33415  0.16401  1.0000
  C   C589      1.0  0.08811  0.63726  0.06713  1.0000
  C   C590      1.0  0.04038  0.54573  0.01308  1.0000
  H   H1009     1.0  0.08421  0.54463  0.12278  1.0000
  H   H1010     1.0  0.19657  0.46551  0.10777  1.0000
  H   H1011     1.0  0.27955  0.34842  0.11568  1.0000
  C   C591      1.0  0.08164  0.60265  0.11008  1.0000
  H   H1012     1.0  0.15563  0.54274  0.16619  1.0000
  N   N40       1.0  0.26805  0.32451  0.12366  1.0000
  H   H1013     1.0  0.18261  0.54953  0.15200  1.0000
  H   H1014     1.0  0.21286  0.54903  0.19440  1.0000
  N   N41       1.0  0.09042  0.58357  0.10878  1.0000
  H   H1015     1.0  0.08237  0.59871  0.07477  1.0000
  H   H1016     1.0  0.06731  0.57288  0.12461  1.0000
  Fe  Fe91      1.0  0.17118  0.33935  0.14013  1.0000
  C   C592      1.0  0.01744  0.52810  0.02553  1.0000
  Fe  Fe92      1.0  0.12218  0.41589  0.98108  1.0000
  H   H1017     1.0  0.26377  0.62755  0.12183  1.0000
  C   C593      1.0  0.05561  0.59324  0.99327  1.0000
  S   S184      1.0  0.16596  0.38345  0.08074  1.0000
  C   C594      1.0  0.11509  0.58482  0.12406  1.0000
  H   H1018     1.0  0.39973  0.36383  0.98127  1.0000
  H   H1019     1.0  0.09528  0.57739  0.04015  1.0000
  H   H1020     1.0  0.09602  0.55092  0.10025  1.0000
  Fe  Fe93      1.0  0.47977  0.34696  0.98208  1.0000
  H   H1021     1.0  0.19713  0.52832  0.08454  1.0000
  H   H1022     1.0  0.19436  0.56763  0.14650  1.0000
  H   H1023     1.0  0.10380  0.59023  0.06219  1.0000
  H   H1024     1.0  0.19476  0.52778  0.19605  1.0000
  C   C595      1.0  0.19535  0.50229  0.12369  1.0000
  H   H1025     1.0  0.18294  0.53025  0.11274  1.0000
  H   H1026     1.0  0.19365  0.36208  0.19670  1.0000
  H   H1027     1.0  0.15464  0.33865  0.21863  1.0000
  C   C596      1.0  0.19074  0.51801  0.08294  1.0000
  S   S185      1.0  0.14783  0.39798  0.98719  1.0000
  C   C597      1.0  0.26102  0.61745  0.15721  1.0000
  C   C598      1.0  0.21106  0.54706  0.18163  1.0000
  H   H1028     1.0  0.29947  0.33196  0.09950  1.0000
  C   C599      1.0  0.47967  0.40918  0.00328  1.0000
  H   H1029     1.0  0.36382  0.56142  0.19835  1.0000
  H   H1030     1.0  0.17319  0.41287  0.19024  1.0000
  H   H1031     1.0  0.26312  0.60810  0.16999  1.0000
  H   H1032     1.0  0.23402  0.62759  0.16833  1.0000
  C   C600      1.0  0.21381  0.49300  0.21910  1.0000
  H   H1033     1.0  0.03264  0.48708  0.01572  1.0000
  H   H1034     1.0  0.12824  0.36778  0.21022  1.0000
  C   C601      1.0  0.23589  0.64191  0.13249  1.0000
  H   H1035     1.0  0.24604  0.62263  0.11519  1.0000
  C   C602      1.0  0.07613  0.57320  0.11112  1.0000
  H   H1036     1.0  0.25766  0.35128  0.12853  1.0000
  H   H1037     1.0  0.15387  0.34958  0.19130  1.0000
  H   H1038     1.0  0.25715  0.60978  0.14942  1.0000
  C   C603      1.0  0.25955  0.35321  0.10042  1.0000
  H   H1039     1.0  0.18204  0.34135  0.17514  1.0000
  H   H1040     1.0  0.16351  0.50894  0.11310  1.0000
  S   S186      1.0  0.17407  0.33431  0.11262  1.0000
  H   H1041     1.0  0.17027  0.52011  0.13372  1.0000
  H   H1042     1.0  0.01509  0.55214  0.00528  1.0000
  S   S187      1.0  0.10504  0.39584  0.99566  1.0000
  Fe  Fe94      1.0  0.12132  0.53326  0.05259  1.0000
  H   H1043     1.0  0.15305  0.58251  0.19996  1.0000
  H   H1044     1.0  0.14746  0.56362  0.21753  1.0000
  N   N42       1.0  0.09856  0.41693  0.04770  1.0000
  C   C604      1.0  0.09257  0.42638  0.03037  1.0000
  C   C605      1.0  0.10444  0.39732  0.04710  1.0000
  C   C606      1.0  0.11468  0.42381  0.04785  1.0000
  C   C607      1.0  0.08330  0.42080  0.06309  1.0000
  C   C608      1.0  0.08380  0.44647  0.02863  1.0000
  C   C609      1.0  0.08946  0.38732  0.04882  1.0000
  C   C610      1.0  0.12177  0.41804  0.06530  1.0000
  C   C611      1.0  0.08442  0.40854  0.08170  1.0000
  H   H1045     1.0  0.10403  0.42497  0.01881  1.0000
  H   H1046     1.0  0.08248  0.42017  0.02806  1.0000
  H   H1047     1.0  0.11230  0.38970  0.05739  1.0000
  H   H1048     1.0  0.11397  0.39556  0.03426  1.0000
  H   H1049     1.0  0.12606  0.41972  0.03702  1.0000
  H   H1050     1.0  0.11206  0.43862  0.04495  1.0000
  H   H1051     1.0  0.08161  0.43480  0.06460  1.0000
  H   H1052     1.0  0.07041  0.42027  0.06008  1.0000
  H   H1053     1.0  0.09251  0.45468  0.03016  1.0000
  H   H1054     1.0  0.08095  0.45175  0.01498  1.0000
  H   H1055     1.0  0.07076  0.44868  0.03814  1.0000
  H   H1056     1.0  0.08322  0.39168  0.03696  1.0000
  H   H1057     1.0  0.09554  0.37288  0.04956  1.0000
  H   H1058     1.0  0.07898  0.38836  0.06107  1.0000
  H   H1059     1.0  0.12471  0.40338  0.07014  1.0000
  H   H1060     1.0  0.11246  0.42467  0.07587  1.0000
  H   H1061     1.0  0.13462  0.42249  0.06279  1.0000
  H   H1062     1.0  0.08478  0.41647  0.09128  1.0000
  H   H1063     1.0  0.09603  0.39724  0.08193  1.0000
  H   H1064     1.0  0.07220  0.40275  0.08716  1.0000
  N   N43       1.0  0.06387  0.59537  0.02222  1.0000
  C   C612      1.0  0.05812  0.58968  0.04223  1.0000
  C   C613      1.0  0.08279  0.58534  0.01683  1.0000
  C   C614      1.0  0.05164  0.58978  0.01381  1.0000
  C   C615      1.0  0.06214  0.61542  0.01742  1.0000
  H   H1065     1.0  0.03134  0.47322  0.00120  1.0000
  C   C616      1.0  0.19260  0.41042  0.98641  1.0000
  H   H1066     1.0  0.20677  0.40422  0.98155  1.0000
  C   C617      1.0  0.07515  0.62313  0.00067  1.0000
  H   H1067     1.0  0.06047  0.57480  0.04632  1.0000
  H   H1068     1.0  0.06626  0.59404  0.04928  1.0000
  H   H1069     1.0  0.08830  0.58947  0.00238  1.0000
  H   H1070     1.0  0.08308  0.57083  0.01882  1.0000
  H   H1071     1.0  0.05163  0.57530  0.01890  1.0000
  H   H1072     1.0  0.03754  0.59679  0.01762  1.0000
  H   H1073     1.0  0.04828  0.62217  0.01564  1.0000
  H   H1074     1.0  0.06406  0.62046  0.02853  1.0000
  H   H1075     1.0  0.02913  0.59022  0.04743  1.0000
  H   H1076     1.0  0.22192  0.47321  0.12735  1.0000
  C   C618      1.0  0.27526  0.31770  0.14064  1.0000
  H   H1077     1.0  0.17911  0.54861  0.21491  1.0000
  C   C619      1.0  0.18135  0.56348  0.15283  1.0000
  C   C620      1.0  0.07484  0.51204  0.98834  1.0000
  H   H1078     1.0  0.16400  0.39404  0.17586  1.0000
  C   C621      1.0  0.15993  0.53299  0.17792  1.0000
  H   H1079     1.0  0.10208  0.45606  0.22162  1.0000
  H   H1080     1.0  0.08901  0.62007  0.00295  1.0000
  C   C622      1.0  0.01152  0.63338  0.00565  1.0000
  H   H1081     1.0  0.48280  0.42268  0.99964  1.0000
  N   N44       1.0  0.14565  0.43340  0.10962  1.0000
  C   C623      1.0  0.14937  0.44514  0.09123  1.0000
  C   C624      1.0  0.16335  0.42599  0.11546  1.0000
  C   C625      1.0  0.13316  0.44495  0.12213  1.0000
  C   C626      1.0  0.13707  0.41903  0.10808  1.0000
  C   C627      1.0  0.13285  0.45720  0.08420  1.0000
  C   C628      1.0  0.17778  0.41455  0.10347  1.0000
  C   C629      1.0  0.13194  0.43758  0.14237  1.0000
  C   C630      1.0  0.13397  0.40383  0.12452  1.0000
  H   H1082     1.0  0.15832  0.45415  0.09076  1.0000
  H   H1083     1.0  0.15664  0.43698  0.08099  1.0000
  H   H1084     1.0  0.16188  0.41758  0.12908  1.0000
  H   H1085     1.0  0.16916  0.43708  0.11637  1.0000
  H   H1086     1.0  0.13720  0.45807  0.11940  1.0000
  H   H1087     1.0  0.11923  0.44818  0.11978  1.0000
  H   H1088     1.0  0.12367  0.42498  0.10471  1.0000
  H   H1089     1.0  0.14464  0.41277  0.09652  1.0000
  H   H1090     1.0  0.13728  0.46394  0.07017  1.0000
  H   H1091     1.0  0.12282  0.44970  0.08415  1.0000
  H   H1092     1.0  0.12639  0.46794  0.09181  1.0000
  H   H1093     1.0  0.18984  0.40925  0.10951  1.0000
  H   H1094     1.0  0.17314  0.40286  0.10247  1.0000
  H   H1095     1.0  0.18220  0.42236  0.08992  1.0000
  H   H1096     1.0  0.12727  0.42485  0.14713  1.0000
  H   H1097     1.0  0.12197  0.44726  0.14976  1.0000
  H   H1098     1.0  0.14477  0.43624  0.14635  1.0000
  H   H1099     1.0  0.12003  0.40662  0.13231  1.0000
  H   H1100     1.0  0.14334  0.40099  0.13355  1.0000
  H   H1101     1.0  0.13600  0.39117  0.11993  1.0000
  H   H1102     1.0  0.11751  0.49011  0.01262  1.0000
  H   H1103     1.0  0.05344  0.51107  0.04580  1.0000
  C   C631      1.0  0.13736  0.46606  0.01779  1.0000
  C   C632      1.0  0.11607  0.47029  0.99903  1.0000
  H   H1104     1.0  0.22706  0.47262  0.10373  1.0000
  C   C633      1.0  0.02821  0.51667  0.03723  1.0000
  C   C634      1.0  0.17451  0.56772  0.17175  1.0000
  S   S188      1.0  0.20053  0.33036  0.13998  1.0000
  N   N45       1.0  0.17654  0.55230  0.18745  1.0000
  C   C635      1.0  0.17583  0.55965  0.20352  1.0000
  C   C636      1.0  0.19423  0.53930  0.18447  1.0000
  C   C637      1.0  0.16138  0.54246  0.19204  1.0000
  H   H1105     1.0  0.24471  0.33882  0.00009  1.0000
  H   H1106     1.0  0.17208  0.36805  0.22152  1.0000
  H   H1107     1.0  0.22663  0.48559  0.21331  1.0000
  H   H1108     1.0  0.40535  0.34060  0.98274  1.0000
  S   S189      1.0  0.16108  0.49386  0.22434  1.0000
  H   H1109     1.0  0.22538  0.33731  0.03816  1.0000
  C   C638      1.0  0.19787  0.48927  0.21750  1.0000
  H   H1110     1.0  0.46569  0.41015  0.00219  1.0000
  C   C639      1.0  0.03010  0.50177  0.98819  1.0000
  C   C640      1.0  0.10351  0.64498  0.09180  1.0000
  H   H1111     1.0  0.48745  0.38395  0.99491  1.0000
  H   H1112     1.0  0.17415  0.33740  0.22718  1.0000
  H   H1113     1.0  0.24931  0.63864  0.17176  1.0000
  H   H1114     1.0  0.26991  0.64738  0.13246  1.0000
  C   C641      1.0  0.29060  0.32569  0.14209  1.0000
  C   C642      1.0  0.25709  0.33019  0.00405  1.0000
  H   H1115     1.0  0.14907  0.37374  0.22239  1.0000
  S   S190      1.0  0.15754  0.64613  0.12129  1.0000
  C   C643      1.0  0.02668  0.48660  0.00465  1.0000
  H   H1116     1.0  0.24352  0.32497  0.11563  1.0000
  H   H1117     1.0  0.06934  0.58673  0.98753  1.0000
  H   H1118     1.0  0.28565  0.33971  0.14390  1.0000
  C   C644      1.0  0.05900  0.50226  0.99397  1.0000
  H   H1119     1.0  0.08173  0.50900  0.99970  1.0000
  S   S191      1.0  0.20197  0.64835  0.08548  1.0000
  H   H1120     1.0  0.34146  0.61793  0.21398  1.0000
  H   H1121     1.0  0.06995  0.52676  0.98541  1.0000
  C   C645      1.0  0.00363  0.62550  0.02288  1.0000
  C   C646      1.0  0.24639  0.32420  0.07664  1.0000
  S   S192      1.0  0.02648  0.64442  0.06831  1.0000
  H   H1122     1.0  0.12519  0.32323  0.19729  1.0000
  H   H1123     1.0  0.33840  0.58318  0.21020  1.0000
  H   H1124     1.0  0.35886  0.58857  0.20985  1.0000
  H   H1125     1.0  0.23158  0.32547  0.98778  1.0000
  H   H1126     1.0  0.29589  0.31799  0.15417  1.0000
  C   C647      1.0  0.35000  0.57890  0.21698  1.0000
  H   H1127     1.0  0.05747  0.47347  0.98233  1.0000
  S   S193      1.0  0.99727  0.63686  0.04064  1.0000
  C   C648      1.0  0.00118  0.60071  0.01140  1.0000
  C   C649      1.0  0.36058  0.56054  0.21303  1.0000
  C   C650      1.0  0.99888  0.60896  0.02575  1.0000
  H   H1128     1.0  0.01519  0.64618  0.00332  1.0000
  C   C651      1.0  0.15244  0.31705  0.18287  1.0000
  N   N46       1.0  0.04950  0.50223  0.97962  1.0000
  Fe  Fe95      1.0  0.49002  0.34811  0.01632  1.0000
  H   H1129     1.0  0.99776  0.58785  0.01389  1.0000
  H   H1130     1.0  0.35280  0.54985  0.21907  1.0000
  H   H1131     1.0  0.02273  0.50039  0.97854  1.0000
  H   H1132     1.0  0.27210  0.31675  0.09832  1.0000
  H   H1133     1.0  0.19910  0.43645  0.97927  1.0000
  H   H1134     1.0  0.37351  0.55662  0.21752  1.0000
  H   H1135     1.0  0.32152  0.56207  0.22518  1.0000
  H   H1136     1.0  0.01862  0.63185  0.97774  1.0000
  C   C652      1.0  0.18832  0.43049  0.97783  1.0000
  C   C653      1.0  0.04493  0.52308  0.47558  1.0000
  C   C654      1.0  0.19664  0.51577  0.23565  1.0000
  H   H1137     1.0  0.22133  0.51017  0.30955  1.0000
  S   S194      1.0  0.40775  0.53700  0.44383  1.0000
  S   S195      1.0  0.46331  0.59848  0.32330  1.0000
  Fe  Fe96      1.0  0.31883  0.62881  0.31596  1.0000
  S   S196      1.0  0.32645  0.60604  0.30160  1.0000
  S   S197      1.0  0.30614  0.62572  0.34524  1.0000
  C   C655      1.0  0.13203  0.31642  0.29487  1.0000
  S   S198      1.0  0.34203  0.63434  0.26641  1.0000
  Fe  Fe97      1.0  0.31550  0.62671  0.27957  1.0000
  S   S199      1.0  0.29684  0.62476  0.26307  1.0000
  Fe  Fe98      1.0  0.35203  0.61608  0.29009  1.0000
  S   S200      1.0  0.37969  0.59891  0.28653  1.0000
  H   H1138     1.0  0.34096  0.55239  0.24829  1.0000
  H   H1139     1.0  0.36593  0.51805  0.46620  1.0000
  H   H1140     1.0  0.23734  0.63007  0.34040  1.0000
  C   C656      1.0  0.40085  0.60568  0.46971  1.0000
  S   S201      1.0  0.41567  0.58654  0.35262  1.0000
  Fe  Fe99      1.0  0.48500  0.57640  0.33328  1.0000
  Fe  Fe100     1.0  0.20583  0.56376  0.25899  1.0000
  H   H1141     1.0  0.48384  0.53155  0.40530  1.0000
  S   S202      1.0  0.17895  0.56730  0.27739  1.0000
  Fe  Fe101     1.0  0.14496  0.51196  0.40435  1.0000
  S   S203      1.0  0.15346  0.48355  0.40052  1.0000
  S   S204      1.0  0.12326  0.51755  0.42842  1.0000
  Fe  Fe102     1.0  0.17342  0.52458  0.37295  1.0000
  S   S205      1.0  0.18439  0.49727  0.36694  1.0000
  S   S206      1.0  0.18889  0.54575  0.35715  1.0000
  Fe  Fe103     1.0  0.15556  0.49542  0.37122  1.0000
  S   S207      1.0  0.14820  0.48633  0.34952  1.0000
  Fe  Fe104     1.0  0.18129  0.48810  0.39656  1.0000
  S   S208      1.0  0.20210  0.46748  0.40951  1.0000
  S   S209      1.0  0.14467  0.52372  0.37526  1.0000
  S   S210      1.0  0.17271  0.51552  0.40230  1.0000
  Fe  Fe105     1.0  0.11719  0.38339  0.31506  1.0000
  S   S211      1.0  0.10807  0.37934  0.34476  1.0000
  S   S212      1.0  0.13808  0.36387  0.30054  1.0000
  Fe  Fe106     1.0  0.09097  0.41810  0.30871  1.0000
  S   S213      1.0  0.07903  0.41719  0.33790  1.0000
  S   S214      1.0  0.08192  0.43998  0.28652  1.0000
  Fe  Fe107     1.0  0.10768  0.40858  0.34118  1.0000
  S   S215      1.0  0.11616  0.41688  0.36262  1.0000
  Fe  Fe108     1.0  0.08027  0.38819  0.33929  1.0000
  S   S216      1.0  0.05993  0.37226  0.35716  1.0000
  S   S217      1.0  0.11956  0.41178  0.31181  1.0000
  S   S218      1.0  0.08942  0.38998  0.30981  1.0000
  H   H1142     1.0  0.02751  0.50966  0.46868  1.0000
  Fe  Fe109     1.0  0.26475  0.55168  0.40739  1.0000
  S   S219      1.0  0.28431  0.52560  0.41118  1.0000
  S   S220      1.0  0.26255  0.56398  0.37880  1.0000
  Fe  Fe110     1.0  0.25367  0.55118  0.44717  1.0000
  S   S221      1.0  0.27251  0.52518  0.45416  1.0000
  Fe  Fe111     1.0  0.29219  0.53648  0.43078  1.0000
  S   S222      1.0  0.32127  0.53553  0.42915  1.0000
  Fe  Fe112     1.0  0.26285  0.51665  0.43402  1.0000
  S   S223      1.0  0.25828  0.48865  0.44042  1.0000
  S   S224      1.0  0.27419  0.56346  0.42540  1.0000
  S   S225      1.0  0.24241  0.54175  0.42865  1.0000
  C   C657      1.0  0.13048  0.34403  0.30397  1.0000
  H   H1143     1.0  0.08098  0.51163  0.46151  1.0000
  C   C658      1.0  0.01140  0.40908  0.35864  1.0000
  H   H1144     1.0  0.10782  0.52200  0.46414  1.0000
  C   C659      1.0  0.16959  0.49431  0.44884  1.0000
  C   C660      1.0  0.11469  0.34151  0.31638  1.0000
  H   H1145     1.0  0.16280  0.58763  0.46626  1.0000
  C   C661      1.0  0.03541  0.35385  0.35601  1.0000
  H   H1146     1.0  0.42820  0.64016  0.30338  1.0000
  H   H1147     1.0  0.10782  0.35118  0.32463  1.0000
  C   C662      1.0  0.10841  0.42053  0.26487  1.0000
  C   C663      1.0  0.09505  0.43601  0.26579  1.0000
  C   C664      1.0  0.09267  0.44872  0.25013  1.0000
  H   H1148     1.0  0.03770  0.32367  0.29431  1.0000
  H   H1149     1.0  0.11044  0.41069  0.27687  1.0000
  C   C665      1.0  0.47871  0.49535  0.42267  1.0000
  C   C666      1.0  0.13962  0.46678  0.35344  1.0000
  C   C667      1.0  0.13526  0.45662  0.37064  1.0000
  C   C668      1.0  0.12814  0.44133  0.37324  1.0000
  C   C669      1.0  0.12534  0.43607  0.35869  1.0000
  C   C670      1.0  0.12995  0.44608  0.34146  1.0000
  C   C671      1.0  0.13702  0.46140  0.33886  1.0000
  H   H1150     1.0  0.13726  0.46060  0.38195  1.0000
  H   H1151     1.0  0.12476  0.43359  0.38659  1.0000
  H   H1152     1.0  0.12822  0.44188  0.33019  1.0000
  H   H1153     1.0  0.14055  0.46907  0.32552  1.0000
  C   C672      1.0  0.21755  0.47425  0.41756  1.0000
  C   C673      1.0  0.23047  0.46104  0.42529  1.0000
  C   C674      1.0  0.24283  0.46570  0.43223  1.0000
  C   C675      1.0  0.24253  0.48364  0.43133  1.0000
  C   C676      1.0  0.22961  0.49698  0.42363  1.0000
  C   C677      1.0  0.21705  0.49226  0.41681  1.0000
  H   H1154     1.0  0.23088  0.44709  0.42601  1.0000
  H   H1155     1.0  0.27043  0.63735  0.30260  1.0000
  H   H1156     1.0  0.22906  0.51083  0.42331  1.0000
  H   H1157     1.0  0.20688  0.50253  0.41125  1.0000
  C   C678      1.0  0.18134  0.56278  0.29961  1.0000
  C   C679      1.0  0.19789  0.56196  0.30350  1.0000
  C   C680      1.0  0.20000  0.55716  0.32128  1.0000
  C   C681      1.0  0.18575  0.55265  0.33512  1.0000
  C   C682      1.0  0.16925  0.55340  0.33123  1.0000
  C   C683      1.0  0.16694  0.55884  0.31351  1.0000
  H   H1158     1.0  0.20904  0.56501  0.29279  1.0000
  H   H1159     1.0  0.21277  0.55653  0.32427  1.0000
  H   H1160     1.0  0.15816  0.55008  0.34189  1.0000
  H   H1161     1.0  0.15409  0.55959  0.31055  1.0000
  C   C684      1.0  0.03958  0.37921  0.33173  1.0000
  C   C685      1.0  0.04427  0.36798  0.34733  1.0000
  H   H1162     1.0  0.04627  0.39021  0.32502  1.0000
  S   S226      1.0  0.47451  0.57069  0.40001  1.0000
  C   C686      1.0  0.38984  0.59592  0.30471  1.0000
  C   C687      1.0  0.37940  0.59890  0.32127  1.0000
  C   C688      1.0  0.38755  0.59616  0.33581  1.0000
  C   C689      1.0  0.40616  0.59054  0.33385  1.0000
  C   C690      1.0  0.41669  0.58786  0.31723  1.0000
  C   C691      1.0  0.40849  0.59041  0.30271  1.0000
  H   H1163     1.0  0.36501  0.60301  0.32298  1.0000
  H   H1164     1.0  0.37943  0.59838  0.34863  1.0000
  H   H1165     1.0  0.43107  0.58346  0.31566  1.0000
  H   H1166     1.0  0.41662  0.58808  0.28991  1.0000
  C   C692      1.0  0.29357  0.60891  0.35426  1.0000
  C   C693      1.0  0.29187  0.59797  0.34371  1.0000
  C   C694      1.0  0.28239  0.58415  0.35137  1.0000
  C   C695      1.0  0.27439  0.58133  0.36955  1.0000
  C   C696      1.0  0.27592  0.59236  0.38008  1.0000
  C   C697      1.0  0.28554  0.60610  0.37245  1.0000
  H   H1167     1.0  0.29782  0.60012  0.32968  1.0000
  H   H1168     1.0  0.28154  0.57544  0.34328  1.0000
  H   H1169     1.0  0.26945  0.59055  0.39402  1.0000
  H   H1170     1.0  0.28672  0.61458  0.38066  1.0000
  C   C698      1.0  0.42638  0.54647  0.43242  1.0000
  C   C699      1.0  0.42648  0.55618  0.41491  1.0000
  C   C700      1.0  0.44101  0.56403  0.40519  1.0000
  C   C701      1.0  0.45573  0.56198  0.41279  1.0000
  C   C702      1.0  0.45565  0.55235  0.43039  1.0000
  C   C703      1.0  0.44093  0.54463  0.44026  1.0000
  H   H1171     1.0  0.41523  0.55767  0.40881  1.0000
  C   C704      1.0  0.00757  0.37930  0.39834  1.0000
  H   H1172     1.0  0.46706  0.55070  0.43630  1.0000
  H   H1173     1.0  0.44093  0.53707  0.45377  1.0000
  C   C705      1.0  0.44668  0.51297  0.39213  1.0000
  H   H1174     1.0  0.39151  0.58260  0.44035  1.0000
  C   C706      1.0  0.34669  0.52488  0.44946  1.0000
  C   C707      1.0  0.33049  0.52233  0.44743  1.0000
  H   H1175     1.0  0.10517  0.38561  0.25674  1.0000
  H   H1176     1.0  0.05640  0.36172  0.30222  1.0000
  H   H1177     1.0  0.46481  0.49317  0.42833  1.0000
  H   H1178     1.0  0.01480  0.34035  0.35620  1.0000
  C   C708      1.0  0.22705  0.62207  0.34247  1.0000
  H   H1179     1.0  0.19584  0.46567  0.45395  1.0000
  H   H1180     1.0  0.12629  0.45236  0.25519  1.0000
  H   H1181     1.0  0.15918  0.53213  0.27731  1.0000
  H   H1182     1.0  0.38411  0.63996  0.28717  1.0000
  C   C709      1.0  0.12687  0.53124  0.44097  1.0000
  C   C710      1.0  0.13942  0.54224  0.43395  1.0000
  C   C711      1.0  0.14201  0.55290  0.44442  1.0000
  H   H1183     1.0  0.20332  0.46487  0.31713  1.0000
  C   C712      1.0  0.48424  0.49526  0.36600  1.0000
  H   H1184     1.0  0.14697  0.54273  0.42040  1.0000
  H   H1185     1.0  0.10090  0.47364  0.26404  1.0000
  N   N47       1.0  0.08467  0.35707  0.27034  1.0000
  C   C713      1.0  0.07202  0.37495  0.26767  1.0000
  C   C714      1.0  0.10148  0.35957  0.27419  1.0000
  C   C715      1.0  0.07648  0.34400  0.28590  1.0000
  H   H1186     1.0  0.44804  0.49887  0.39940  1.0000
  H   H1187     1.0  0.39734  0.64831  0.26628  1.0000
  C   C716      1.0  0.11255  0.37155  0.25920  1.0000
  C   C717      1.0  0.21322  0.50627  0.22817  1.0000
  H   H1188     1.0  0.17943  0.47956  0.29822  1.0000
  H   H1189     1.0  0.07007  0.38169  0.27898  1.0000
  H   H1190     1.0  0.25624  0.57003  0.30848  1.0000
  H   H1191     1.0  0.40670  0.56278  0.46480  1.0000
  H   H1192     1.0  0.09840  0.36551  0.28615  1.0000
  H   H1193     1.0  0.15163  0.33320  0.28387  1.0000
  H   H1194     1.0  0.41313  0.62894  0.45625  1.0000
  S   S227      1.0  0.34535  0.63731  0.30607  1.0000
  H   H1195     1.0  0.15180  0.34498  0.23900  1.0000
  C   C718      1.0  0.13938  0.33129  0.29346  1.0000
  H   H1196     1.0  0.16315  0.50757  0.44185  1.0000
  H   H1197     1.0  0.14694  0.43339  0.27532  1.0000
  H   H1198     1.0  0.10098  0.32168  0.26463  1.0000
  H   H1199     1.0  0.00479  0.39194  0.40294  1.0000
  H   H1200     1.0  0.00518  0.37277  0.37454  1.0000
  H   H1201     1.0  0.23692  0.61908  0.28979  1.0000
  H   H1202     1.0  0.19412  0.45081  0.47482  1.0000
  C   C719      1.0  0.48482  0.51280  0.37074  1.0000
  H   H1203     1.0  0.04506  0.38838  0.26414  1.0000
  H   H1204     1.0  0.36937  0.57518  0.26845  1.0000
  Fe  Fe113     1.0  0.23054  0.53645  0.23852  1.0000
  N   N48       1.0  0.24241  0.60617  0.31607  1.0000
  C   C720      1.0  0.22587  0.61770  0.32494  1.0000
  C   C721      1.0  0.23993  0.60542  0.29806  1.0000
  C   C722      1.0  0.25883  0.61377  0.31342  1.0000
  C   C723      1.0  0.24502  0.58781  0.32792  1.0000
  C   C724      1.0  0.13181  0.55286  0.46180  1.0000
  H   H1205     1.0  0.06226  0.55943  0.44809  1.0000
  H   H1206     1.0  0.47972  0.50771  0.42607  1.0000
  H   H1207     1.0  0.40611  0.62844  0.34107  1.0000
  C   C725      1.0  0.41130  0.61975  0.46952  1.0000
  H   H1208     1.0  0.05433  0.37062  0.25233  1.0000
  H   H1209     1.0  0.25255  0.59863  0.29037  1.0000
  H   H1210     1.0  0.10065  0.50410  0.24493  1.0000
  H   H1211     1.0  0.36683  0.56153  0.24593  1.0000
  H   H1212     1.0  0.30948  0.55565  0.24733  1.0000
  H   H1213     1.0  0.24858  0.58826  0.34048  1.0000
  H   H1214     1.0  0.18445  0.52425  0.43531  1.0000
  C   C726      1.0  0.48373  0.49567  0.40238  1.0000
  H   H1215     1.0  0.26129  0.56093  0.33009  1.0000
  H   H1216     1.0  0.33546  0.62556  0.23474  1.0000
  H   H1217     1.0  0.24665  0.64276  0.30906  1.0000
  H   H1218     1.0  0.01607  0.33186  0.30624  1.0000
  H   H1219     1.0  0.07778  0.38421  0.25563  1.0000
  H   H1220     1.0  0.22704  0.47560  0.27067  1.0000
  H   H1221     1.0  0.17669  0.53344  0.45535  1.0000
  H   H1222     1.0  0.07800  0.35514  0.30834  1.0000
  H   H1223     1.0  0.40792  0.63097  0.28188  1.0000
  C   C727      1.0  0.25972  0.57336  0.31976  1.0000
  H   H1224     1.0  0.41067  0.60302  0.43648  1.0000
  N   N49       1.0  0.47972  0.51376  0.39037  1.0000
  H   H1225     1.0  0.18139  0.50454  0.27411  1.0000
  N   N50       1.0  0.08499  0.38599  0.40234  1.0000
  C   C728      1.0  0.07449  0.38923  0.38794  1.0000
  C   C729      1.0  0.10344  0.37555  0.39582  1.0000
  C   C730      1.0  0.08606  0.40401  0.40480  1.0000
  C   C731      1.0  0.07514  0.37583  0.41925  1.0000
  C   C732      1.0  0.05574  0.40154  0.39070  1.0000
  C   C733      1.0  0.10429  0.35661  0.39334  1.0000
  C   C734      1.0  0.10191  0.40484  0.41240  1.0000
  C   C735      1.0  0.25793  0.63320  0.30286  1.0000
  H   H1226     1.0  0.08216  0.39516  0.37477  1.0000
  H   H1227     1.0  0.07228  0.37646  0.38635  1.0000
  H   H1228     1.0  0.11270  0.37388  0.40479  1.0000
  H   H1229     1.0  0.10987  0.38304  0.38281  1.0000
  H   H1230     1.0  0.08697  0.41381  0.39182  1.0000
  H   H1231     1.0  0.07356  0.40981  0.41354  1.0000
  H   H1232     1.0  0.06198  0.38421  0.42410  1.0000
  H   H1233     1.0  0.07135  0.36416  0.41682  1.0000
  H   H1234     1.0  0.05632  0.41518  0.39144  1.0000
  H   H1235     1.0  0.04981  0.40302  0.37896  1.0000
  H   H1236     1.0  0.04645  0.39575  0.40260  1.0000
  H   H1237     1.0  0.11855  0.35028  0.38894  1.0000
  H   H1238     1.0  0.09896  0.34791  0.40599  1.0000
  H   H1239     1.0  0.09736  0.35678  0.38275  1.0000
  H   H1240     1.0  0.11473  0.40281  0.40251  1.0000
  H   H1241     1.0  0.10312  0.39524  0.42512  1.0000
  H   H1242     1.0  0.09994  0.41845  0.41497  1.0000
  C   C736      1.0  0.10751  0.32662  0.31795  1.0000
  C   C737      1.0  0.11698  0.53097  0.45846  1.0000
  C   C738      1.0  0.15645  0.48186  0.45196  1.0000
  H   H1243     1.0  0.14373  0.48595  0.46125  1.0000
  H   H1244     1.0  0.41265  0.62592  0.30948  1.0000
  C   C739      1.0  0.11930  0.41776  0.24835  1.0000
  H   H1245     1.0  0.21917  0.48482  0.29891  1.0000
  H   H1246     1.0  0.34629  0.57397  0.27293  1.0000
  H   H1247     1.0  0.03361  0.52743  0.45098  1.0000
  H   H1248     1.0  0.04621  0.55020  0.44382  1.0000
  H   H1249     1.0  0.37076  0.58311  0.23563  1.0000
  H   H1250     1.0  0.45627  0.52374  0.40930  1.0000
  H   H1251     1.0  0.09515  0.32489  0.32743  1.0000
  C   C740      1.0  0.41999  0.59257  0.44403  1.0000
  H   H1252     1.0  0.16820  0.49269  0.31434  1.0000
  C   C741      1.0  0.05140  0.55183  0.45489  1.0000
  H   H1253     1.0  0.07672  0.34607  0.25191  1.0000
  H   H1254     1.0  0.07963  0.35737  0.44407  1.0000
  H   H1255     1.0  0.26064  0.59058  0.24911  1.0000
  H   H1256     1.0  0.00564  0.36864  0.41053  1.0000
  C   C742      1.0  0.29449  0.58953  0.27756  1.0000
  H   H1257     1.0  0.16876  0.60822  0.46459  1.0000
  C   C743      1.0  0.27677  0.60549  0.25536  1.0000
  H   H1258     1.0  0.19007  0.47818  0.33348  1.0000
  H   H1259     1.0  0.42445  0.61397  0.47328  1.0000
  H   H1260     1.0  0.23232  0.58273  0.33230  1.0000
  H   H1261     1.0  0.12230  0.50400  0.24810  1.0000
  H   H1262     1.0  0.06591  0.33929  0.28245  1.0000
  C   C744      1.0  0.32166  0.50992  0.46031  1.0000
  H   H1263     1.0  0.19996  0.52927  0.44523  1.0000
  H   H1264     1.0  0.20623  0.51585  0.32927  1.0000
  C   C745      1.0  0.34223  0.61396  0.22832  1.0000
  H   H1265     1.0  0.18038  0.51374  0.32039  1.0000
  H   H1266     1.0  0.26220  0.61295  0.32645  1.0000
  C   C746      1.0  0.39740  0.64333  0.28073  1.0000
  C   C747      1.0  0.17986  0.47801  0.47703  1.0000
  H   H1267     1.0  0.21130  0.49330  0.32645  1.0000
  H   H1268     1.0  0.16397  0.53216  0.29803  1.0000
  H   H1269     1.0  0.47645  0.48629  0.40041  1.0000
  C   C748      1.0  0.11922  0.54192  0.46878  1.0000
  H   H1270     1.0  0.02927  0.57491  0.45569  1.0000
  H   H1271     1.0  0.25275  0.45534  0.43824  1.0000
  S   S228      1.0  0.23324  0.51025  0.23078  1.0000
  C   C749      1.0  0.46017  0.52233  0.39510  1.0000
  C   C750      1.0  0.02165  0.35117  0.34933  1.0000
  S   S229      1.0  0.46583  0.56383  0.35647  1.0000
  H   H1272     1.0  0.03900  0.34513  0.36809  1.0000
  H   H1273     1.0  0.37672  0.57181  0.45832  1.0000
  C   C751      1.0  0.19064  0.58822  0.45512  1.0000
  S   S230      1.0  0.23460  0.56276  0.46986  1.0000
  H   H1274     1.0  0.19606  0.52599  0.24267  1.0000
  H   H1275     1.0  0.00927  0.40926  0.34528  1.0000
  H   H1276     1.0  0.48814  0.48440  0.42954  1.0000
  C   C752      1.0  0.33264  0.56617  0.24655  1.0000
  H   H1277     1.0  0.19486  0.57352  0.45642  1.0000
  H   H1278     1.0  0.20694  0.46840  0.28319  1.0000
  H   H1279     1.0  0.42921  0.62148  0.33269  1.0000
  C   C753      1.0  0.11349  0.49528  0.24773  1.0000
  H   H1280     1.0  0.43838  0.60982  0.44368  1.0000
  H   H1281     1.0  0.15310  0.51911  0.46681  1.0000
  C   C754      1.0  0.05339  0.37465  0.26502  1.0000
  H   H1282     1.0  0.08430  0.53226  0.44692  1.0000
  H   H1283     1.0  0.16795  0.51893  0.24060  1.0000
  C   C755      1.0  0.18746  0.52407  0.44830  1.0000
  H   H1284     1.0  0.01740  0.53183  0.47092  1.0000
  H   H1285     1.0  0.02091  0.39669  0.36302  1.0000
  S   S231      1.0  0.22637  0.53947  0.26674  1.0000
  H   H1286     1.0  0.35389  0.53405  0.43930  1.0000
  S   S232      1.0  0.22470  0.58276  0.25039  1.0000
  C   C756      1.0  0.18981  0.47230  0.32230  1.0000
  C   C757      1.0  0.42584  0.57920  0.47459  1.0000
  C   C758      1.0  0.28887  0.60525  0.26568  1.0000
  H   H1287     1.0  0.12966  0.40581  0.24772  1.0000
  C   C759      1.0  0.15873  0.50683  0.47573  1.0000
  H   H1288     1.0  0.20651  0.48735  0.26450  1.0000
  H   H1289     1.0  0.09251  0.35985  0.24152  1.0000
  S   S233      1.0  0.44944  0.60459  0.36450  1.0000
  C   C760      1.0  0.27005  0.59021  0.25706  1.0000
  C   C761      1.0  0.43829  0.59822  0.43842  1.0000
  H   H1290     1.0  0.42137  0.64384  0.33562  1.0000
  H   H1291     1.0  0.11937  0.48840  0.23637  1.0000
  H   H1292     1.0  0.02599  0.55722  0.47471  1.0000
  C   C762      1.0  0.18073  0.51171  0.23451  1.0000
  H   H1293     1.0  0.09910  0.36498  0.43170  1.0000
  H   H1294     1.0  0.38223  0.63544  0.31880  1.0000
  H   H1295     1.0  0.15434  0.51461  0.29608  1.0000
  S   S234      1.0  0.13583  0.56550  0.47509  1.0000
  C   C763      1.0  0.03030  0.52332  0.46566  1.0000
  C   C764      1.0  0.06823  0.35074  0.30348  1.0000
  H   H1296     1.0  0.25742  0.63444  0.28871  1.0000
  H   H1297     1.0  0.43681  0.58653  0.47179  1.0000
  C   C765      1.0  0.07397  0.52403  0.45376  1.0000
  C   C766      1.0  0.17319  0.59350  0.46863  1.0000
  H   H1298     1.0  0.08118  0.37991  0.44333  1.0000
  C   C767      1.0  0.08442  0.36940  0.43536  1.0000
  C   C768      1.0  0.41782  0.63300  0.33157  1.0000
  H   H1299     1.0  0.19122  0.52236  0.27442  1.0000
  H   H1300     1.0  0.43290  0.51997  0.39740  1.0000
  H   H1301     1.0  0.45760  0.53626  0.38726  1.0000
  H   H1302     1.0  0.27080  0.60580  0.30600  1.0000
  C   C769      1.0  0.41510  0.63808  0.31222  1.0000
  C   C770      1.0  0.99582  0.37863  0.38566  1.0000
  H   H1303     1.0  0.18823  0.59377  0.44135  1.0000
  H   H1304     1.0  0.19337  0.52641  0.30227  1.0000
  H   H1305     1.0  0.35342  0.59494  0.26248  1.0000
  C   C771      1.0  0.19557  0.46471  0.46819  1.0000
  S   S235      1.0  0.99854  0.36068  0.32599  1.0000
  H   H1306     1.0  0.06070  0.50758  0.44485  1.0000
  C   C772      1.0  0.08882  0.34963  0.25367  1.0000
  C   C773      1.0  0.02570  0.37663  0.32516  1.0000
  H   H1307     1.0  0.30390  0.58922  0.28549  1.0000
  H   H1308     1.0  0.22198  0.63056  0.31565  1.0000
  C   C774      1.0  0.03622  0.56428  0.46530  1.0000
  H   H1309     1.0  0.02183  0.38562  0.31330  1.0000
  H   H1310     1.0  0.20180  0.59369  0.45628  1.0000
  C   C775      1.0  0.01658  0.36273  0.33403  1.0000
  H   H1311     1.0  0.22690  0.58208  0.30530  1.0000
  N   N51       1.0  0.24369  0.52178  0.36453  1.0000
  C   C776      1.0  0.23464  0.54129  0.36289  1.0000
  C   C777      1.0  0.25736  0.52013  0.34744  1.0000
  C   C778      1.0  0.25315  0.51683  0.37996  1.0000
  C   C779      1.0  0.22952  0.51098  0.36771  1.0000
  C   C780      1.0  0.22147  0.54672  0.37972  1.0000
  C   C781      1.0  0.24975  0.52507  0.33027  1.0000
  C   C782      1.0  0.26361  0.49748  0.38429  1.0000
  C   C783      1.0  0.23576  0.49167  0.36440  1.0000
  H   H1312     1.0  0.24478  0.54987  0.35899  1.0000
  H   H1313     1.0  0.22681  0.54563  0.35215  1.0000
  H   H1314     1.0  0.26566  0.50650  0.34789  1.0000
  H   H1315     1.0  0.26725  0.52868  0.34545  1.0000
  H   H1316     1.0  0.26268  0.52581  0.37781  1.0000
  H   H1317     1.0  0.24348  0.51885  0.39254  1.0000
  H   H1318     1.0  0.22161  0.51019  0.38157  1.0000
  H   H1319     1.0  0.21958  0.51795  0.35915  1.0000
  H   H1320     1.0  0.22863  0.54697  0.38999  1.0000
  H   H1321     1.0  0.21386  0.56055  0.37593  1.0000
  H   H1322     1.0  0.21146  0.53812  0.38559  1.0000
  H   H1323     1.0  0.23937  0.51752  0.33130  1.0000
  H   H1324     1.0  0.24423  0.53958  0.32665  1.0000
  H   H1325     1.0  0.26076  0.52177  0.31889  1.0000
  H   H1326     1.0  0.27430  0.49362  0.37299  1.0000
  H   H1327     1.0  0.25453  0.48785  0.38933  1.0000
  H   H1328     1.0  0.27037  0.49622  0.39540  1.0000
  H   H1329     1.0  0.22998  0.48233  0.37634  1.0000
  H   H1330     1.0  0.25036  0.48654  0.36168  1.0000
  H   H1331     1.0  0.23040  0.49049  0.35318  1.0000
  N   N52       1.0  0.12588  0.47007  0.27222  1.0000
  C   C784      1.0  0.13568  0.45877  0.25851  1.0000
  C   C785      1.0  0.10963  0.48194  0.26558  1.0000
  C   C786      1.0  0.12020  0.45761  0.28963  1.0000
  C   C787      1.0  0.13862  0.48046  0.27410  1.0000
  C   C788      1.0  0.15142  0.44367  0.26366  1.0000
  H   H1332     1.0  0.04606  0.36592  0.27628  1.0000
  C   C789      1.0  0.10490  0.46556  0.30377  1.0000
  C   C790      1.0  0.13082  0.49534  0.28499  1.0000
  N   N53       1.0  0.34396  0.57979  0.23645  1.0000
  H   H1333     1.0  0.14134  0.46707  0.24568  1.0000
  H   H1334     1.0  0.10086  0.48994  0.27529  1.0000
  C   C791      1.0  0.33288  0.59813  0.23790  1.0000
  H   H1335     1.0  0.11557  0.44654  0.28705  1.0000
  H   H1336     1.0  0.13177  0.45108  0.29626  1.0000
  H   H1337     1.0  0.14957  0.47132  0.28044  1.0000
  H   H1338     1.0  0.14589  0.48653  0.26082  1.0000
  H   H1339     1.0  0.12484  0.37163  0.26356  1.0000
  H   H1340     1.0  0.16214  0.44887  0.26610  1.0000
  C   C792      1.0  0.38512  0.58204  0.45466  1.0000
  H   H1341     1.0  0.03745  0.32043  0.32579  1.0000
  H   H1342     1.0  0.11699  0.36661  0.24657  1.0000
  C   C793      1.0  0.02624  0.31944  0.30458  1.0000
  H   H1343     1.0  0.09195  0.46982  0.29930  1.0000
  H   H1344     1.0  0.10794  0.47659  0.30786  1.0000
  H   H1345     1.0  0.10281  0.45495  0.31595  1.0000
  H   H1346     1.0  0.13315  0.49045  0.29884  1.0000
  H   H1347     1.0  0.11644  0.50113  0.28565  1.0000
  H   H1348     1.0  0.13762  0.50674  0.27852  1.0000
  N   N54       1.0  0.33995  0.56955  0.37575  1.0000
  C   C794      1.0  0.33646  0.58895  0.37678  1.0000
  C   C795      1.0  0.35026  0.56764  0.35719  1.0000
  C   C796      1.0  0.35084  0.55783  0.38910  1.0000
  C   C797      1.0  0.32222  0.56392  0.37993  1.0000
  C   C798      1.0  0.32798  0.59339  0.39540  1.0000
  C   C799      1.0  0.33963  0.57564  0.34213  1.0000
  C   C800      1.0  0.36908  0.56247  0.38765  1.0000
  C   C801      1.0  0.32292  0.54471  0.37829  1.0000
  H   H1349     1.0  0.34896  0.59434  0.37168  1.0000
  H   H1350     1.0  0.32726  0.59725  0.36788  1.0000
  H   H1351     1.0  0.35633  0.55343  0.35654  1.0000
  H   H1352     1.0  0.36195  0.57421  0.35338  1.0000
  H   H1353     1.0  0.34315  0.55785  0.40301  1.0000
  H   H1354     1.0  0.35368  0.54360  0.38789  1.0000
  H   H1355     1.0  0.31518  0.56464  0.39392  1.0000
  H   H1356     1.0  0.31279  0.57336  0.37184  1.0000
  H   H1357     1.0  0.31451  0.59007  0.40067  1.0000
  H   H1358     1.0  0.33668  0.58679  0.40520  1.0000
  H   H1359     1.0  0.32608  0.60802  0.39421  1.0000
  H   H1360     1.0  0.33415  0.59014  0.34123  1.0000
  H   H1361     1.0  0.34882  0.57408  0.32912  1.0000
  H   H1362     1.0  0.32864  0.56867  0.34362  1.0000
  H   H1363     1.0  0.37831  0.56087  0.37470  1.0000
  H   H1364     1.0  0.37567  0.55311  0.39829  1.0000
  H   H1365     1.0  0.36763  0.57614  0.38970  1.0000
  H   H1366     1.0  0.32458  0.53509  0.39103  1.0000
  H   H1367     1.0  0.33368  0.54007  0.36744  1.0000
  H   H1368     1.0  0.31020  0.54423  0.37499  1.0000
  H   H1369     1.0  0.15752  0.43673  0.25230  1.0000
  H   H1370     1.0  0.29219  0.56203  0.28837  1.0000
  H   H1371     1.0  0.18103  0.46238  0.32806  1.0000
  C   C802      1.0  0.11711  0.43059  0.23276  1.0000
  C   C803      1.0  0.20892  0.50738  0.31927  1.0000
  Fe  Fe114     1.0  0.24576  0.55801  0.25606  1.0000
  C   C804      1.0  0.28787  0.57418  0.27916  1.0000
  H   H1372     1.0  0.02200  0.37624  0.39192  1.0000
  H   H1373     1.0  0.32663  0.56831  0.26036  1.0000
  H   H1374     1.0  0.08665  0.33171  0.28921  1.0000
  Fe  Fe115     1.0  0.44483  0.58759  0.34812  1.0000
  S   S236      1.0  0.26653  0.55552  0.27221  1.0000
  H   H1375     1.0  0.43258  0.56610  0.47078  1.0000
  C   C805      1.0  0.99359  0.41152  0.37244  1.0000
  H   H1376     1.0  0.04160  0.57119  0.47267  1.0000
  H   H1377     1.0  0.07814  0.54535  0.47252  1.0000
  H   H1378     1.0  0.21838  0.50366  0.28110  1.0000
  H   H1379     1.0  0.11713  0.33529  0.25221  1.0000
  H   H1380     1.0  0.15179  0.56134  0.43896  1.0000
  C   C806      1.0  0.31694  0.56588  0.23839  1.0000
  C   C807      1.0  0.10378  0.33265  0.25302  1.0000
  S   S237      1.0  0.47005  0.64265  0.32829  1.0000
  H   H1381     1.0  0.18157  0.48985  0.43879  1.0000
  H   H1382     1.0  0.29950  0.55384  0.46312  1.0000
  H   H1383     1.0  0.44088  0.57147  0.39168  1.0000
  C   C808      1.0  0.27545  0.57456  0.26910  1.0000
  Fe  Fe116     1.0  0.47156  0.58159  0.37140  1.0000
  C   C809      1.0  0.36026  0.57593  0.24453  1.0000
  H   H1384     1.0  0.44759  0.51399  0.37770  1.0000
  H   H1385     1.0  0.08229  0.46066  0.25076  1.0000
  H   H1386     1.0  0.27249  0.61759  0.24605  1.0000
  C   C810      1.0  0.21262  0.48040  0.27619  1.0000
  H   H1387     1.0  0.15292  0.48266  0.43903  1.0000
  N   N55       1.0  0.19237  0.50079  0.29767  1.0000
  C   C811      1.0  0.18303  0.51251  0.28303  1.0000
  C   C812      1.0  0.21111  0.49283  0.28889  1.0000
  C   C813      1.0  0.19289  0.51252  0.30987  1.0000
  C   C814      1.0  0.18176  0.48660  0.30764  1.0000
  C   C815      1.0  0.16408  0.52332  0.28922  1.0000
  H   H1388     1.0  0.35639  0.61123  0.22949  1.0000
  H   H1389     1.0  0.06357  0.33968  0.31409  1.0000
  C   C816      1.0  0.49001  0.52632  0.39287  1.0000
  H   H1390     1.0  0.37592  0.59490  0.45649  1.0000
  H   H1391     1.0  0.32723  0.59925  0.25204  1.0000
  Fe  Fe117     1.0  0.46965  0.61364  0.34039  1.0000
  H   H1392     1.0  0.99144  0.39004  0.35163  1.0000
  H   H1393     1.0  0.11049  0.34649  0.27763  1.0000
  C   C817      1.0  0.06895  0.51792  0.43908  1.0000
  H   H1394     1.0  0.26458  0.58125  0.46036  1.0000
  C   C818      1.0  0.19053  0.50498  0.45977  1.0000
  H   H1395     1.0  0.20205  0.49697  0.45191  1.0000
  S   S238      1.0  0.20841  0.55933  0.23155  1.0000
  H   H1396     1.0  0.44916  0.58689  0.44232  1.0000
  H   H1397     1.0  0.22473  0.59621  0.28420  1.0000
  H   H1398     1.0  0.06236  0.52915  0.42977  1.0000
  N   N56       1.0  0.05891  0.53410  0.46582  1.0000
  H   H1399     1.0  0.44174  0.60203  0.42359  1.0000
  C   C819      1.0  0.39904  0.57630  0.46676  1.0000
  C   C820      1.0  0.22483  0.59623  0.29821  1.0000
  C   C821      1.0  0.10388  0.44615  0.23367  1.0000
  H   H1400     1.0  0.30715  0.57874  0.23733  1.0000
  H   H1401     1.0  0.21417  0.61115  0.32833  1.0000
  H   H1402     1.0  0.10472  0.32768  0.24083  1.0000
  H   H1403     1.0  0.39102  0.61273  0.46106  1.0000
  H   H1404     1.0  0.42225  0.58053  0.43835  1.0000
  H   H1405     1.0  0.08149  0.51154  0.43086  1.0000
  H   H1406     1.0  0.27296  0.57715  0.31537  1.0000
  H   H1407     1.0  0.48659  0.49714  0.35123  1.0000
  H   H1408     1.0  0.19550  0.50540  0.47156  1.0000
  C   C822      1.0  0.35686  0.58031  0.26316  1.0000
  H   H1409     1.0  0.16256  0.46768  0.45669  1.0000
  N   N57       1.0  0.41167  0.58877  0.46377  1.0000
  C   C823      1.0  0.35338  0.51603  0.46490  1.0000
  H   H1410     1.0  0.99662  0.41508  0.38379  1.0000
  H   H1411     1.0  0.30955  0.50732  0.45844  1.0000
  H   H1412     1.0  0.01802  0.42040  0.35692  1.0000
  N   N58       1.0  0.17471  0.49601  0.46534  1.0000
  S   S239      1.0  0.25210  0.55254  0.22838  1.0000
  H   H1413     1.0  0.21141  0.60348  0.30391  1.0000
  Fe  Fe118     1.0  0.40197  0.52713  0.47364  1.0000
  H   H1414     1.0  0.31518  0.54288  0.47701  1.0000
  H   H1415     1.0  0.47118  0.49118  0.37162  1.0000
  H   H1416     1.0  0.47637  0.52394  0.36283  1.0000
  H   H1417     1.0  0.21399  0.63026  0.34784  1.0000
  H   H1418     1.0  0.22958  0.60987  0.35292  1.0000
  C   C824      1.0  0.30100  0.54979  0.47729  1.0000
  H   H1419     1.0  0.32078  0.60083  0.23214  1.0000
  H   H1420     1.0  0.48932  0.53857  0.38203  1.0000
  C   C825      1.0  0.32833  0.50113  0.47586  1.0000
  C   C826      1.0  0.25726  0.58248  0.47372  1.0000
  H   H1421     1.0  0.20869  0.46666  0.46927  1.0000
  H   H1422     1.0  0.27395  0.59854  0.47738  1.0000
  H   H1423     1.0  0.36159  0.64911  0.34171  1.0000
  S   S240      1.0  0.30616  0.64895  0.29469  1.0000
  C   C827      1.0  0.38279  0.52115  0.59164  1.0000
  Fe  Fe119     1.0  0.46575  0.37760  0.59513  1.0000
  S   S241      1.0  0.44135  0.38582  0.58270  1.0000
  H   H1424     1.0  0.14766  0.49936  0.48121  1.0000
  Fe  Fe120     1.0  0.44417  0.37665  0.63294  1.0000
  S   S242      1.0  0.41845  0.38500  0.62340  1.0000
  S   S243      1.0  0.43944  0.36975  0.66304  1.0000
  Fe  Fe121     1.0  0.43055  0.36526  0.60568  1.0000
  S   S244      1.0  0.41050  0.34865  0.60771  1.0000
  Fe  Fe122     1.0  0.43128  0.40480  0.60155  1.0000
  S   S245      1.0  0.41367  0.43239  0.59644  1.0000
  S   S246      1.0  0.45568  0.35548  0.61659  1.0000
  S   S247      1.0  0.45628  0.39818  0.61255  1.0000
  Fe  Fe123     1.0  0.08214  0.56077  0.52676  1.0000
  S   S248      1.0  0.08349  0.57236  0.49750  1.0000
  S   S249      1.0  0.06784  0.53809  0.54064  1.0000
  Fe  Fe124     1.0  0.10277  0.58650  0.53124  1.0000
  S   S250      1.0  0.10574  0.59989  0.50241  1.0000
  S   S251      1.0  0.11197  0.60025  0.54787  1.0000
  Fe  Fe125     1.0  0.07709  0.59869  0.50595  1.0000
  S   S252      1.0  0.05818  0.62346  0.49584  1.0000
  Fe  Fe126     1.0  0.11210  0.57229  0.49700  1.0000
  C   C828      1.0  0.00032  0.54187  0.56817  1.0000
  S   S253      1.0  0.07343  0.58714  0.53523  1.0000
  S   S254      1.0  0.11144  0.55873  0.52576  1.0000
  Fe  Fe127     1.0  0.20596  0.59415  0.55950  1.0000
  S   S255      1.0  0.20916  0.61791  0.53719  1.0000
  S   S256      1.0  0.19173  0.57322  0.55864  1.0000
  Fe  Fe128     1.0  0.23156  0.60180  0.57837  1.0000
  S   S257      1.0  0.23725  0.62595  0.55727  1.0000
  S   S258      1.0  0.24407  0.59023  0.60256  1.0000
  Fe  Fe129     1.0  0.20752  0.63236  0.55878  1.0000
  H   H1425     1.0  0.01142  0.63299  0.56526  1.0000
  Fe  Fe130     1.0  0.23841  0.60913  0.53785  1.0000
  S   S259      1.0  0.25967  0.60577  0.51303  1.0000
  S   S260      1.0  0.20165  0.60919  0.58119  1.0000
  S   S261      1.0  0.23533  0.58452  0.55885  1.0000
  N   N59       1.0  0.41334  0.50031  0.59570  1.0000
  H   H1426     1.0  0.48051  0.39746  0.67908  1.0000
  H   H1427     1.0  0.05984  0.59623  0.60727  1.0000
  H   H1428     1.0  0.41543  0.34408  0.66973  1.0000
  H   H1429     1.0  0.10545  0.56907  0.60639  1.0000
  S   S262      1.0  0.37266  0.56298  0.52076  1.0000
  S   S263      1.0  0.38148  0.51069  0.52384  1.0000
  Fe  Fe131     1.0  0.35887  0.58871  0.64138  1.0000
  S   S264      1.0  0.33321  0.58048  0.64271  1.0000
  S   S265      1.0  0.35692  0.60055  0.66517  1.0000
  Fe  Fe132     1.0  0.37738  0.57340  0.60791  1.0000
  S   S266      1.0  0.35327  0.56386  0.60717  1.0000
  S   S267      1.0  0.40173  0.56595  0.58698  1.0000
  Fe  Fe133     1.0  0.33816  0.59055  0.61304  1.0000
  S   S268      1.0  0.31892  0.60884  0.59622  1.0000
  Fe  Fe134     1.0  0.35100  0.55475  0.63670  1.0000
  S   S269      1.0  0.34585  0.52766  0.65199  1.0000
  S   S270      1.0  0.36254  0.60085  0.61194  1.0000
  S   S271      1.0  0.37633  0.56232  0.63716  1.0000
  H   H1430     1.0  0.40805  0.55761  0.68949  1.0000
  C   C829      1.0  0.20148  0.63965  0.62959  1.0000
  S   S272      1.0  0.41373  0.44133  0.70616  1.0000
  S   S273      1.0  0.46004  0.41178  0.71006  1.0000
  S   S274      1.0  0.41351  0.53045  0.49543  1.0000
  H   H1431     1.0  0.32123  0.49186  0.48598  1.0000
  Fe  Fe135     1.0  0.41570  0.46915  0.70564  1.0000
  S   S275      1.0  0.41655  0.48979  0.68015  1.0000
  C   C830      1.0  0.37089  0.61298  0.68649  1.0000
  S   S276      1.0  0.44051  0.46116  0.71708  1.0000
  C   C831      1.0  0.36544  0.51483  0.65898  1.0000
  C   C832      1.0  0.36454  0.50303  0.67563  1.0000
  C   C833      1.0  0.38029  0.49463  0.68213  1.0000
  C   C834      1.0  0.39683  0.49809  0.67190  1.0000
  C   C835      1.0  0.39771  0.50928  0.65500  1.0000
  C   C836      1.0  0.38209  0.51744  0.64845  1.0000
  H   H1432     1.0  0.35164  0.50101  0.68382  1.0000
  H   H1433     1.0  0.06324  0.51525  0.50202  1.0000
  H   H1434     1.0  0.41049  0.51209  0.64721  1.0000
  H   H1435     1.0  0.38286  0.52615  0.63541  1.0000
  C   C837      1.0  0.38151  0.56414  0.53854  1.0000
  C   C838      1.0  0.39800  0.55348  0.54170  1.0000
  C   C839      1.0  0.40467  0.55473  0.55608  1.0000
  C   C840      1.0  0.39452  0.56601  0.56774  1.0000
  C   C841      1.0  0.37816  0.57675  0.56440  1.0000
  C   C842      1.0  0.37184  0.57603  0.54967  1.0000
  H   H1436     1.0  0.40566  0.54444  0.53300  1.0000
  H   H1437     1.0  0.41755  0.54680  0.55837  1.0000
  H   H1438     1.0  0.37044  0.58580  0.57310  1.0000
  H   H1439     1.0  0.35932  0.58458  0.54707  1.0000
  C   C843      1.0  0.26477  0.59553  0.60111  1.0000
  C   C844      1.0  0.26969  0.61070  0.58919  1.0000
  C   C845      1.0  0.28614  0.61492  0.58825  1.0000
  C   C846      1.0  0.29784  0.60389  0.59910  1.0000
  C   C847      1.0  0.29292  0.58875  0.61116  1.0000
  C   C848      1.0  0.27631  0.58465  0.61224  1.0000
  H   H1440     1.0  0.26076  0.61936  0.58085  1.0000
  H   H1441     1.0  0.28991  0.62669  0.57897  1.0000
  H   H1442     1.0  0.30196  0.58015  0.61952  1.0000
  H   H1443     1.0  0.27252  0.57291  0.62156  1.0000
  H   H1444     1.0  0.42144  0.48689  0.63102  1.0000
  C   C849      1.0  0.39767  0.31824  0.70627  1.0000
  C   C850      1.0  0.25281  0.59423  0.50054  1.0000
  H   H1445     1.0  0.18576  0.61193  0.48260  1.0000
  H   H1446     1.0  0.47485  0.63390  0.70863  1.0000
  H   H1447     1.0  0.36496  0.45143  0.50567  1.0000
  H   H1448     1.0  0.38143  0.62262  0.70391  1.0000
  C   C851      1.0  0.23809  0.58604  0.50817  1.0000
  C   C852      1.0  0.41750  0.32691  0.60337  1.0000
  C   C853      1.0  0.38230  0.40705  0.72413  1.0000
  H   H1449     1.0  0.41273  0.51501  0.61548  1.0000
  H   H1450     1.0  0.23079  0.58696  0.52157  1.0000
  H   H1451     1.0  0.35746  0.61456  0.69458  1.0000
  C   C854      1.0  0.13397  0.59240  0.55127  1.0000
  C   C855      1.0  0.14254  0.60387  0.55533  1.0000
  C   C856      1.0  0.16031  0.59811  0.55764  1.0000
  C   C857      1.0  0.16933  0.58065  0.55644  1.0000
  C   C858      1.0  0.16051  0.56898  0.55304  1.0000
  C   C859      1.0  0.14293  0.57492  0.55019  1.0000
  H   H1452     1.0  0.13551  0.61725  0.55653  1.0000
  H   H1453     1.0  0.16703  0.60711  0.56043  1.0000
  H   H1454     1.0  0.16739  0.55537  0.55242  1.0000
  H   H1455     1.0  0.13626  0.56592  0.54737  1.0000
  H   H1456     1.0  0.46218  0.64330  0.64154  1.0000
  H   H1457     1.0  0.25726  0.62516  0.63435  1.0000
  H   H1458     1.0  0.41005  0.42260  0.50694  1.0000
  H   H1459     1.0  0.99337  0.55582  0.60009  1.0000
  H   H1460     1.0  0.14904  0.52036  0.49804  1.0000
  C   C860      1.0  0.37497  0.44903  0.66416  1.0000
  H   H1461     1.0  0.38475  0.53267  0.59593  1.0000
  H   H1462     1.0  0.19620  0.58852  0.51659  1.0000
  H   H1463     1.0  0.40900  0.56741  0.49976  1.0000
  C   C861      1.0  0.01900  0.53961  0.51890  1.0000
  C   C862      1.0  0.02609  0.52423  0.53031  1.0000
  C   C863      1.0  0.04101  0.52390  0.53709  1.0000
  C   C864      1.0  0.04875  0.53897  0.53262  1.0000
  C   C865      1.0  0.04135  0.55449  0.52158  1.0000
  C   C866      1.0  0.02660  0.55476  0.51464  1.0000
  H   H1464     1.0  0.19550  0.61826  0.62023  1.0000
  H   H1465     1.0  0.04674  0.51183  0.54557  1.0000
  H   H1466     1.0  0.04709  0.56625  0.51824  1.0000
  H   H1467     1.0  0.02106  0.56673  0.50592  1.0000
  H   H1468     1.0  0.01633  0.53447  0.58914  1.0000
  C   C867      1.0  0.41847  0.44553  0.57491  1.0000
  C   C868      1.0  0.40580  0.46074  0.56952  1.0000
  C   C869      1.0  0.40948  0.47172  0.55253  1.0000
  C   C870      1.0  0.42598  0.46770  0.54097  1.0000
  C   C871      1.0  0.43865  0.45250  0.54639  1.0000
  C   C872      1.0  0.43485  0.44133  0.56326  1.0000
  H   H1469     1.0  0.39311  0.46403  0.57852  1.0000
  H   H1470     1.0  0.39968  0.48343  0.54854  1.0000
  H   H1471     1.0  0.45145  0.44932  0.53751  1.0000
  H   H1472     1.0  0.44472  0.42964  0.56736  1.0000
  H   H1473     1.0  0.44854  0.63316  0.69565  1.0000
  H   H1474     1.0  0.27348  0.53902  0.54409  1.0000
  H   H1475     1.0  0.23110  0.63589  0.65592  1.0000
  C   C873      1.0  0.44501  0.38334  0.67429  1.0000
  C   C874      1.0  0.43223  0.38951  0.68844  1.0000
  C   C875      1.0  0.43666  0.39879  0.69899  1.0000
  C   C876      1.0  0.45412  0.40153  0.69579  1.0000
  C   C877      1.0  0.46697  0.39541  0.68158  1.0000
  C   C878      1.0  0.46235  0.38654  0.67065  1.0000
  H   H1476     1.0  0.41895  0.38678  0.69144  1.0000
  H   H1477     1.0  0.42677  0.40314  0.71011  1.0000
  C   C879      1.0  0.00944  0.64232  0.52041  1.0000
  H   H1478     1.0  0.40873  0.49791  0.57055  1.0000
  C   C880      1.0  0.41963  0.32943  0.67011  1.0000
  H   H1479     1.0  0.28897  0.55704  0.51379  1.0000
  H   H1480     1.0  0.29571  0.50992  0.53991  1.0000
  H   H1481     1.0  0.36552  0.33439  0.66697  1.0000
  H   H1482     1.0  0.40312  0.32778  0.64368  1.0000
  H   H1483     1.0  0.43458  0.42204  0.65647  1.0000
  H   H1484     1.0  0.31361  0.53343  0.50597  1.0000
  C   C881      1.0  0.38237  0.39117  0.71933  1.0000
  C   C882      1.0  0.37451  0.60649  0.67077  1.0000
  C   C883      1.0  0.00635  0.62389  0.52011  1.0000
  C   C884      1.0  0.39460  0.33093  0.65642  1.0000
  C   C885      1.0  0.40187  0.61551  0.68154  1.0000
  H   H1485     1.0  0.43964  0.49479  0.55313  1.0000
  H   H1486     1.0  0.10199  0.57920  0.58416  1.0000
  H   H1487     1.0  0.38835  0.50288  0.61545  1.0000
  H   H1488     1.0  0.39476  0.59962  0.64815  1.0000
  C   C886      1.0  0.14690  0.61265  0.49600  1.0000
  Fe  Fe136     1.0  0.37302  0.50897  0.49942  1.0000
  Fe  Fe137     1.0  0.40943  0.50247  0.50852  1.0000
  H   H1489     1.0  0.41003  0.44003  0.54105  1.0000
  H   H1490     1.0  0.22187  0.56951  0.50484  1.0000
  H   H1491     1.0  0.42477  0.43124  0.63730  1.0000
  C   C887      1.0  0.41635  0.47795  0.62569  1.0000
  C   C888      1.0  0.38499  0.56934  0.71535  1.0000
  H   H1492     1.0  0.43675  0.47644  0.57143  1.0000
  Fe  Fe138     1.0  0.43725  0.43321  0.71940  1.0000
  H   H1493     1.0  0.41039  0.51210  0.71670  1.0000
  C   C889      1.0  0.38882  0.39814  0.66607  1.0000
  H   H1494     1.0  0.23783  0.62475  0.61235  1.0000
  H   H1495     1.0  0.48519  0.53884  0.72240  1.0000
  H   H1496     1.0  0.30308  0.53057  0.53782  1.0000
  H   H1497     1.0  0.16819  0.47140  0.48309  1.0000
  C   C890      1.0  0.16194  0.51274  0.49156  1.0000
  C   C891      1.0  0.36991  0.54822  0.68447  1.0000
  H   H1498     1.0  0.11163  0.54148  0.48233  1.0000
  H   H1499     1.0  0.28058  0.50657  0.51105  1.0000
  H   H1500     1.0  0.16504  0.55802  0.51792  1.0000
  H   H1501     1.0  0.38203  0.38780  0.67578  1.0000
  H   H1502     1.0  0.44813  0.62995  0.65882  1.0000
  C   C892      1.0  0.27812  0.55002  0.51472  1.0000
  H   H1503     1.0  0.48958  0.62195  0.69165  1.0000
  C   C893      1.0  0.40569  0.43170  0.66319  1.0000
  C   C894      1.0  0.06705  0.53807  0.47934  1.0000
  H   H1504     1.0  0.17334  0.60053  0.51892  1.0000
  H   H1505     1.0  0.38914  0.41691  0.71471  1.0000
  H   H1506     1.0  0.39108  0.51980  0.69775  1.0000
  C   C895      1.0  0.00432  0.57549  0.57822  1.0000
  H   H1507     1.0  0.29816  0.56218  0.48247  1.0000
  H   H1508     1.0  0.40680  0.32623  0.70747  1.0000
  H   H1509     1.0  0.40365  0.62773  0.47976  1.0000
  H   H1510     1.0  0.38041  0.41498  0.68507  1.0000
  C   C896      1.0  0.42263  0.42299  0.65103  1.0000
  C   C897      1.0  0.35177  0.54343  0.69493  1.0000
  S   S277      1.0  0.40065  0.49842  0.48529  1.0000
  H   H1511     1.0  0.42242  0.40935  0.65019  1.0000
  S   S278      1.0  0.99126  0.49000  0.52600  1.0000
  H   H1512     1.0  0.46496  0.55364  0.71642  1.0000
  H   H1513     1.0  0.11123  0.62741  0.59957  1.0000
  H   H1514     1.0  0.39219  0.60278  0.48325  1.0000
  H   H1515     1.0  0.02034  0.51246  0.53359  1.0000
  H   H1516     1.0  0.05167  0.61763  0.61211  1.0000
  H   H1517     1.0  0.09096  0.62111  0.57284  1.0000
  H   H1518     1.0  0.03682  0.60768  0.55609  1.0000
  C   C898      1.0  0.37326  0.56166  0.70757  1.0000
  H   H1519     1.0  0.41897  0.60751  0.65767  1.0000
  S   S279      1.0  0.41920  0.62091  0.68817  1.0000
  H   H1520     1.0  0.47236  0.38159  0.65988  1.0000
  H   H1521     1.0  0.20138  0.59196  0.48542  1.0000
  H   H1522     1.0  0.18707  0.64037  0.60929  1.0000
  H   H1523     1.0  0.39848  0.42136  0.63536  1.0000
  H   H1524     1.0  0.36294  0.46399  0.68529  1.0000
  C   C899      1.0  0.46217  0.63289  0.68701  1.0000
  C   C900      1.0  0.03437  0.62131  0.54767  1.0000
  H   H1525     1.0  0.24902  0.53918  0.50974  1.0000
  H   H1526     1.0  0.03926  0.62019  0.53350  1.0000
  H   H1527     1.0  0.27081  0.51620  0.52998  1.0000
  H   H1528     1.0  0.99187  0.56434  0.53636  1.0000
  H   H1529     1.0  0.46416  0.62261  0.67904  1.0000
  H   H1530     1.0  0.36820  0.52123  0.59571  1.0000
  N   N60       1.0  0.17452  0.58814  0.48808  1.0000
  H   H1531     1.0  0.38631  0.52329  0.57686  1.0000
  C   C901      1.0  0.43928  0.51279  0.59919  1.0000
  H   H1532     1.0  0.31879  0.51101  0.53297  1.0000
  H   H1533     1.0  0.08344  0.57602  0.60274  1.0000
  H   H1534     1.0  0.34387  0.55316  0.70334  1.0000
  C   C902      1.0  0.06405  0.59800  0.63227  1.0000
  H   H1535     1.0  0.29230  0.52486  0.48241  1.0000
  C   C903      1.0  0.37988  0.41647  0.67088  1.0000
  H   H1536     1.0  0.20794  0.63620  0.66283  1.0000
  H   H1537     1.0  0.37957  0.48604  0.69526  1.0000
  N   N61       1.0  0.28571  0.53294  0.50785  1.0000
  C   C904      1.0  0.42247  0.44485  0.50412  1.0000
  H   H1538     1.0  0.36714  0.44052  0.69362  1.0000
  H   H1539     1.0  0.01534  0.56881  0.56883  1.0000
  N   N62       1.0  0.08015  0.61240  0.60105  1.0000
  H   H1540     1.0  0.39272  0.34571  0.65449  1.0000
  H   H1541     1.0  0.23039  0.64787  0.61082  1.0000
  C   C905      1.0  0.07788  0.61963  0.58196  1.0000
  C   C906      1.0  0.09689  0.59802  0.60192  1.0000
  C   C907      1.0  0.18729  0.59808  0.49079  1.0000
  H   H1542     1.0  0.38535  0.45251  0.68622  1.0000
  C   C908      1.0  0.06918  0.60903  0.57395  1.0000
  C   C909      1.0  0.09668  0.57975  0.59848  1.0000
  H   H1543     1.0  0.36439  0.42419  0.64148  1.0000
  H   H1544     1.0  0.14226  0.61719  0.48316  1.0000
  N   N63       1.0  0.21895  0.63188  0.63588  1.0000
  H   H1545     1.0  0.35258  0.43468  0.51677  1.0000
  H   H1546     1.0  0.41349  0.53424  0.70977  1.0000
  C   C910      1.0  0.08220  0.62768  0.60804  1.0000
  H   H1547     1.0  0.10848  0.60257  0.59190  1.0000
  H   H1548     1.0  0.10106  0.59562  0.61489  1.0000
  H   H1549     1.0  0.37606  0.52623  0.71651  1.0000
  C   C911      1.0  0.17926  0.55872  0.51187  1.0000
  H   H1550     1.0  0.00346  0.51806  0.58996  1.0000
  H   H1551     1.0  0.36493  0.57356  0.70029  1.0000
  H   H1552     1.0  0.35342  0.52965  0.70306  1.0000
  C   C912      1.0  0.01427  0.62981  0.55182  1.0000
  H   H1553     1.0  0.13485  0.61472  0.50682  1.0000
  H   H1554     1.0  0.39300  0.31909  0.61908  1.0000
  H   H1555     1.0  0.05457  0.61066  0.57961  1.0000
  H   H1556     1.0  0.07553  0.59472  0.57552  1.0000
  H   H1557     1.0  0.44504  0.33426  0.65342  1.0000
  C   C913      1.0  0.40555  0.60903  0.66576  1.0000
  C   C914      1.0  0.30503  0.51876  0.53195  1.0000
  H   H1558     1.0  0.48337  0.34074  0.58748  1.0000
  H   H1559     1.0  0.18689  0.54471  0.51284  1.0000
  H   H1560     1.0  0.00417  0.62712  0.60028  1.0000
  H   H1561     1.0  0.38618  0.31942  0.71771  1.0000
  H   H1562     1.0  0.34366  0.54391  0.68516  1.0000
  C   C915      1.0  0.38920  0.43329  0.63979  1.0000
  H   H1563     1.0  0.99796  0.57953  0.54622  1.0000
  H   H1564     1.0  0.41420  0.52795  0.59355  1.0000
  H   H1565     1.0  0.25359  0.54542  0.53485  1.0000
  H   H1566     1.0  0.43161  0.44158  0.49162  1.0000
  Fe  Fe139     1.0  0.41263  0.62922  0.71478  1.0000
  H   H1567     1.0  0.24622  0.51654  0.51832  1.0000
  H   H1568     1.0  0.37068  0.45871  0.55171  1.0000
  C   C916      1.0  0.26248  0.59234  0.48331  1.0000
  C   C917      1.0  0.39188  0.60456  0.66034  1.0000
  C   C918      1.0  0.43694  0.49091  0.56796  1.0000
  C   C919      1.0  0.06345  0.60626  0.61247  1.0000
  C   C920      1.0  0.43396  0.32156  0.59226  1.0000
  H   H1569     1.0  0.25704  0.52304  0.49558  1.0000
  H   H1570     1.0  0.35654  0.46061  0.53616  1.0000
  C   C921      1.0  0.25187  0.63675  0.62463  1.0000
  C   C922      1.0  0.23299  0.57616  0.49866  1.0000
  H   H1571     1.0  0.19065  0.61224  0.50951  1.0000
  N   N64       1.0  0.39219  0.43964  0.52450  1.0000
  C   C923      1.0  0.40060  0.43197  0.54067  1.0000
  C   C924      1.0  0.40562  0.43702  0.50751  1.0000
  C   C925      1.0  0.37737  0.43014  0.52622  1.0000
  C   C926      1.0  0.41091  0.41239  0.54254  1.0000
  C   C927      1.0  0.36647  0.43691  0.51125  1.0000
  H   H1572     1.0  0.42323  0.46413  0.63077  1.0000
  H   H1573     1.0  0.39934  0.44332  0.49569  1.0000
  H   H1574     1.0  0.38288  0.41571  0.52619  1.0000
  H   H1575     1.0  0.36795  0.42996  0.53942  1.0000
  H   H1576     1.0  0.41633  0.40860  0.55495  1.0000
  H   H1577     1.0  0.40216  0.40297  0.54395  1.0000
  H   H1578     1.0  0.42261  0.41049  0.53140  1.0000
  H   H1579     1.0  0.43013  0.43926  0.51494  1.0000
  H   H1580     1.0  0.37267  0.42972  0.50010  1.0000
  H   H1581     1.0  0.41907  0.45962  0.50211  1.0000
  H   H1582     1.0  0.39523  0.44489  0.63167  1.0000
  H   H1583     1.0  0.44139  0.52358  0.60457  1.0000
  C   C928      1.0  0.26671  0.54868  0.53387  1.0000
  C   C929      1.0  0.21975  0.61210  0.64284  1.0000
  C   C930      1.0  0.99791  0.64112  0.59730  1.0000
  H   H1584     1.0  0.39236  0.57870  0.70484  1.0000
  C   C931      1.0  0.25549  0.52507  0.50932  1.0000
  C   C932      1.0  0.23635  0.60125  0.65035  1.0000
  S   S280      1.0  0.35034  0.49657  0.49931  1.0000
  H   H1585     1.0  0.39408  0.56836  0.67419  1.0000
  H   H1586     1.0  0.41534  0.52919  0.67720  1.0000
  H   H1587     1.0  0.13089  0.64780  0.55542  1.0000
  C   C933      1.0  0.39314  0.50323  0.60089  1.0000
  H   H1588     1.0  0.20771  0.60977  0.65348  1.0000
  H   H1589     1.0  0.21949  0.60548  0.63214  1.0000
  C   C934      1.0  0.19871  0.63173  0.61485  1.0000
  C   C935      1.0  0.09825  0.63653  0.59783  1.0000
  H   H1590     1.0  0.39029  0.43266  0.55321  1.0000
  H   H1591     1.0  0.44831  0.49291  0.57240  1.0000
  H   H1592     1.0  0.40302  0.39426  0.66715  1.0000
  H   H1593     1.0  0.42193  0.54845  0.66195  1.0000
  C   C936      1.0  0.07021  0.63982  0.51592  1.0000
  H   H1594     1.0  0.00680  0.61919  0.55348  1.0000
  H   H1595     1.0  0.23426  0.58745  0.65655  1.0000
  H   H1596     1.0  0.23884  0.60666  0.66086  1.0000
  H   H1597     1.0  0.24838  0.59983  0.63947  1.0000
  H   H1598     1.0  0.39565  0.46577  0.52511  1.0000
  H   H1599     1.0  0.01090  0.57702  0.58841  1.0000
  H   H1600     1.0  0.37593  0.53842  0.67567  1.0000
  H   H1601     1.0  0.41602  0.47161  0.60084  1.0000
  N   N65       1.0  0.30987  0.58394  0.54615  1.0000
  C   C937      1.0  0.32496  0.58112  0.53033  1.0000
  C   C938      1.0  0.31775  0.58036  0.56247  1.0000
  C   C939      1.0  0.29918  0.60284  0.54338  1.0000
  C   C940      1.0  0.29753  0.57143  0.54840  1.0000
  C   C941      1.0  0.31966  0.58663  0.51192  1.0000
  C   C942      1.0  0.32809  0.56112  0.56812  1.0000
  C   C943      1.0  0.30990  0.61771  0.53941  1.0000
  C   C944      1.0  0.28284  0.57036  0.56564  1.0000
  H   H1602     1.0  0.33569  0.58822  0.52965  1.0000
  H   H1603     1.0  0.33171  0.56678  0.53174  1.0000
  H   H1604     1.0  0.30721  0.58371  0.57412  1.0000
  H   H1605     1.0  0.32733  0.58917  0.56054  1.0000
  H   H1606     1.0  0.29167  0.60551  0.53251  1.0000
  H   H1607     1.0  0.28866  0.60501  0.55541  1.0000
  H   H1608     1.0  0.29034  0.57542  0.53714  1.0000
  H   H1609     1.0  0.30530  0.55762  0.54790  1.0000
  H   H1610     1.0  0.31435  0.60119  0.50828  1.0000
  H   H1611     1.0  0.33184  0.58339  0.50157  1.0000
  H   H1612     1.0  0.30984  0.57920  0.51114  1.0000
  H   H1613     1.0  0.31967  0.55105  0.57114  1.0000
  H   H1614     1.0  0.34036  0.55766  0.55800  1.0000
  H   H1615     1.0  0.33260  0.56018  0.58058  1.0000
  H   H1616     1.0  0.31542  0.61752  0.55103  1.0000
  H   H1617     1.0  0.30068  0.63088  0.53682  1.0000
  H   H1618     1.0  0.32082  0.61713  0.52741  1.0000
  H   H1619     1.0  0.28845  0.56505  0.57790  1.0000
  H   H1620     1.0  0.27446  0.56106  0.56560  1.0000
  H   H1621     1.0  0.27370  0.58344  0.56662  1.0000
  H   H1622     1.0  0.36270  0.44824  0.63439  1.0000
  H   H1623     1.0  0.18458  0.56497  0.51979  1.0000
  H   H1624     1.0  0.44566  0.49995  0.60681  1.0000
  H   H1625     1.0  0.01002  0.54904  0.55797  1.0000
  C   C945      1.0  0.41867  0.50200  0.57561  1.0000
  H   H1626     1.0  0.08389  0.62329  0.62212  1.0000
  H   H1627     1.0  0.05710  0.54710  0.48744  1.0000
  H   H1628     1.0  0.38564  0.34034  0.68770  1.0000
  C   C946      1.0  0.07414  0.52189  0.49329  1.0000
  H   H1629     1.0  0.09817  0.64138  0.58346  1.0000
  H   H1630     1.0  0.43073  0.56831  0.50151  1.0000
  H   H1631     1.0  0.17482  0.56134  0.48578  1.0000
  H   H1632     1.0  0.40646  0.42493  0.67726  1.0000
  H   H1633     1.0  0.41398  0.58836  0.50006  1.0000
  H   H1634     1.0  0.07392  0.62666  0.52389  1.0000
  C   C947      1.0  0.41925  0.57575  0.49507  1.0000
  H   H1635     1.0  0.27490  0.54405  0.48377  1.0000
  H   H1636     1.0  0.06938  0.63330  0.58053  1.0000
  H   H1637     1.0  0.02309  0.52043  0.57326  1.0000
  H   H1638     1.0  0.44531  0.35144  0.70768  1.0000
  C   C948      1.0  0.18153  0.56819  0.49208  1.0000
  C   C949      1.0  0.15582  0.59262  0.49891  1.0000
  H   H1639     1.0  0.13456  0.64307  0.52318  1.0000
  H   H1640     1.0  0.36538  0.41861  0.67083  1.0000
  H   H1641     1.0  0.44611  0.51482  0.58496  1.0000
  H   H1642     1.0  0.07563  0.58673  0.63386  1.0000
  H   H1643     1.0  0.36373  0.55554  0.71911  1.0000
  C   C950      1.0  0.42078  0.48169  0.60507  1.0000
  H   H1644     1.0  0.04239  0.62922  0.55094  1.0000
  H   H1645     1.0  0.30967  0.51225  0.50629  1.0000
  Fe  Fe140     1.0  0.38485  0.53838  0.50923  1.0000
  C   C951      1.0  0.38448  0.61751  0.69184  1.0000
  H   H1646     1.0  0.07979  0.52678  0.50218  1.0000
  H   H1647     1.0  0.36675  0.56145  0.67544  1.0000
  H   H1648     1.0  0.37495  0.43375  0.61956  1.0000
  H   H1649     1.0  0.05173  0.59257  0.63877  1.0000
  C   C952      1.0  0.23433  0.63528  0.62033  1.0000
  N   N66       1.0  0.38279  0.54859  0.69550  1.0000
  S   S281      1.0  0.37363  0.53749  0.48643  1.0000
  H   H1650     1.0  0.37934  0.46114  0.65500  1.0000
  H   H1651     1.0  0.17144  0.52193  0.48719  1.0000
  H   H1652     1.0  0.26363  0.56200  0.53736  1.0000
  C   C953      1.0  0.38779  0.52995  0.70619  1.0000
  H   H1653     1.0  0.36498  0.47921  0.53648  1.0000
  H   H1654     1.0  0.41849  0.51616  0.56871  1.0000
  N   N67       1.0  0.38763  0.43225  0.65941  1.0000
  H   H1655     1.0  0.37250  0.33129  0.64448  1.0000
  C   C954      1.0  0.27371  0.51951  0.51517  1.0000
  H   H1656     1.0  0.40185  0.47867  0.63131  1.0000
  H   H1657     1.0  0.40277  0.54178  0.66014  1.0000
  C   C955      1.0  0.18670  0.59959  0.51005  1.0000
  H   H1658     1.0  0.40772  0.44545  0.66191  1.0000
  C   C956      1.0  0.41014  0.54273  0.66989  1.0000
  C   C957      1.0  0.39056  0.32563  0.68881  1.0000
  C   C958      1.0  0.37163  0.43497  0.63378  1.0000
  C   C959      1.0  0.30397  0.52439  0.51209  1.0000
  C   C960      1.0  0.41903  0.51447  0.60131  1.0000
  H   H1659     1.0  0.43562  0.47830  0.60126  1.0000
  H   H1660     1.0  0.07076  0.61455  0.55936  1.0000
  H   H1661     1.0  0.38928  0.38874  0.70626  1.0000
  C   C961      1.0  0.37612  0.32685  0.65783  1.0000
  H   H1662     1.0  0.38837  0.49229  0.59816  1.0000
  S   S282      1.0  0.43123  0.48137  0.51976  1.0000
  C   C962      1.0  0.37269  0.45136  0.68346  1.0000
  C   C963      1.0  0.39866  0.55513  0.68260  1.0000
  H   H1663     1.0  0.06401  0.60811  0.63971  1.0000
  H   H1664     1.0  0.38749  0.39757  0.65265  1.0000
  C   C964      1.0  0.36841  0.46448  0.53796  1.0000
  H   H1665     1.0  0.36122  0.44968  0.66251  1.0000
  C   C965      1.0  0.44962  0.64371  0.65185  1.0000
  C   C966      1.0  0.38519  0.45941  0.52369  1.0000
  S   S283      1.0  0.00130  0.54010  0.50900  1.0000
  H   H1666     1.0  0.38220  0.46651  0.51036  1.0000
  H   H1667     1.0  0.06984  0.63844  0.60812  1.0000
  H   H1668     1.0  0.26927  0.55948  0.50612  1.0000
  C   C967      1.0  0.01121  0.52805  0.58113  1.0000
  H   H1669     1.0  0.18410  0.47951  0.48882  1.0000
  H   H1670     1.0  0.15529  0.58786  0.51342  1.0000
  H   H1671     1.0  0.16648  0.50124  0.50191  1.0000
  H   H1672     1.0  0.46992  0.53056  0.71514  1.0000
  C   C968      1.0  0.47073  0.53999  0.72302  1.0000
  C   C969      1.0  0.21837  0.64043  0.65104  1.0000
  C   C970      1.0  0.40313  0.52621  0.71627  1.0000
  C   C971      1.0  0.47572  0.62519  0.69937  1.0000
  H   H1673     1.0  0.18983  0.63825  0.64099  1.0000
  H   H1674     1.0  0.42488  0.34951  0.70361  1.0000
  H   H1675     1.0  0.19610  0.56486  0.48616  1.0000
  H   H1676     1.0  0.99370  0.62075  0.52886  1.0000
  H   H1677     1.0  0.43568  0.33185  0.71886  1.0000
  C   C972      1.0  0.43273  0.34656  0.71421  1.0000
  H   H1678     1.0  0.08503  0.51189  0.48733  1.0000
  H   H1679     1.0  0.26232  0.63755  0.61215  1.0000
  H   H1680     1.0  0.44293  0.33078  0.58639  1.0000
  H   H1681     1.0  0.47263  0.61238  0.70794  1.0000
  H   H1682     1.0  0.05147  0.50888  0.47993  1.0000
  H   H1683     1.0  0.21045  0.63115  0.60358  1.0000
  H   H1684     1.0  0.99849  0.58899  0.57123  1.0000
  C   C973      1.0  0.28792  0.53731  0.48776  1.0000
  C   C974      1.0  0.24234  0.57455  0.48137  1.0000
  H   H1685     1.0  0.43428  0.56927  0.72317  1.0000
  H   H1686     1.0  0.99586  0.53437  0.56056  1.0000
  H   H1687     1.0  0.01766  0.61296  0.52365  1.0000
  N   N68       1.0  0.00813  0.64624  0.53848  1.0000
  H   H1688     1.0  0.15577  0.62121  0.49655  1.0000
  H   H1689     1.0  0.02289  0.64324  0.51172  1.0000
  H   H1690     1.0  0.43025  0.33184  0.64098  1.0000
  H   H1691     1.0  0.00579  0.62375  0.50626  1.0000
  N   N69       1.0  0.40358  0.32157  0.67197  1.0000
  H   H1692     1.0  0.11336  0.64679  0.51714  1.0000
  H   H1693     1.0  0.37613  0.57736  0.72512  1.0000
  H   H1694     1.0  0.03758  0.52772  0.48811  1.0000
  C   C975      1.0  0.43483  0.32670  0.65380  1.0000
  H   H1695     1.0  0.41859  0.37067  0.72287  1.0000
  H   H1696     1.0  0.11443  0.64016  0.54011  1.0000
  H   H1697     1.0  0.37846  0.31994  0.69107  1.0000
  H   H1698     1.0  0.14686  0.58532  0.49607  1.0000
  H   H1699     1.0  0.39444  0.55893  0.72250  1.0000
  C   C976      1.0  0.06245  0.64195  0.50124  1.0000
  H   H1700     1.0  0.48518  0.63798  0.65704  1.0000
  S   S284      1.0  0.37422  0.35854  0.72488  1.0000
  H   H1701     1.0  0.39121  0.57434  0.48074  1.0000
  H   H1702     1.0  0.42611  0.32364  0.68181  1.0000
  S   S285      1.0  0.03167  0.64804  0.59079  1.0000
  C   C977      1.0  0.12003  0.64840  0.52723  1.0000
  H   H1703     1.0  0.09745  0.64839  0.60331  1.0000
  H   H1704     1.0  0.25027  0.64913  0.62948  1.0000
  C   C978      1.0  0.34380  0.50480  0.47852  1.0000
  H   H1705     1.0  0.43834  0.64919  0.64471  1.0000
  H   H1706     1.0  0.32178  0.32336  0.97656  1.0000
  C   C979      1.0  0.10927  0.33827  0.93806  1.0000
  S   S286      1.0  0.46041  0.51120  0.82229  1.0000
  H   H1707     1.0  0.18408  0.45965  0.93816  1.0000
  S   S287      1.0  0.46048  0.56226  0.82559  1.0000
  S   S288      1.0  0.47070  0.46992  0.86356  1.0000
  Fe  Fe141     1.0  0.41510  0.40105  0.86399  1.0000
  S   S289      1.0  0.41634  0.42983  0.85101  1.0000
  Fe  Fe142     1.0  0.39142  0.37524  0.88805  1.0000
  S   S290      1.0  0.36656  0.37257  0.90957  1.0000
  Fe  Fe143     1.0  0.43141  0.36339  0.88095  1.0000
  Fe  Fe144     1.0  0.41132  0.36962  0.85066  1.0000
  S   S291      1.0  0.41309  0.38626  0.89254  1.0000
  S   S292      1.0  0.39137  0.39244  0.86077  1.0000
  C   C980      1.0  0.03989  0.52149  0.95042  1.0000
  Fe  Fe145     1.0  0.47735  0.49347  0.84160  1.0000
  H   H1708     1.0  0.05571  0.38328  0.91191  1.0000
  S   S293      1.0  0.12597  0.40867  0.95469  1.0000
  S   S294      1.0  0.17417  0.38748  0.93941  1.0000
  H   H1709     1.0  0.20018  0.33344  0.89308  1.0000
  S   S295      1.0  0.40872  0.36731  0.82349  1.0000
  H   H1710     1.0  0.17296  0.41443  0.95853  1.0000
  H   H1711     1.0  0.04531  0.51059  0.94288  1.0000
  H   H1712     1.0  0.41298  0.41291  0.78808  1.0000
  H   H1713     1.0  0.01909  0.38755  0.78913  1.0000
  C   C981      1.0  0.06643  0.35838  0.79873  1.0000
  H   H1714     1.0  0.39277  0.41729  0.77923  1.0000
  C   C982      1.0  0.35755  0.44191  0.79252  1.0000
  H   H1715     1.0  0.05199  0.36051  0.83380  1.0000
  C   C983      1.0  0.39666  0.33557  0.83324  1.0000
  H   H1716     1.0  0.08008  0.35249  0.80158  1.0000
  H   H1717     1.0  0.44993  0.61472  0.83022  1.0000
  H   H1718     1.0  0.44830  0.53091  0.74177  1.0000
  C   C984      1.0  0.05074  0.34822  0.92783  1.0000
  C   C985      1.0  0.45995  0.37362  0.92701  1.0000
  H   H1719     1.0  0.14688  0.36996  0.93003  1.0000
  H   H1720     1.0  0.18331  0.31864  0.88353  1.0000
  H   H1721     1.0  0.40134  0.33318  0.84551  1.0000
  H   H1722     1.0  0.16599  0.33169  0.77776  1.0000
  H   H1723     1.0  0.40166  0.38995  0.76257  1.0000
  S   S296      1.0  0.08227  0.35111  0.86948  1.0000
  H   H1724     1.0  0.45775  0.38758  0.92745  1.0000
  C   C986      1.0  0.42813  0.35293  0.97414  1.0000
  S   S297      1.0  0.03093  0.35792  0.87166  1.0000
  H   H1725     1.0  0.46406  0.37148  0.74892  1.0000
  H   H1726     1.0  0.42240  0.32748  0.75181  1.0000
  H   H1727     1.0  0.08635  0.48282  0.96979  1.0000
  H   H1728     1.0  0.35628  0.44716  0.77837  1.0000
  S   S298      1.0  0.24913  0.35424  0.96077  1.0000
  H   H1729     1.0  0.44514  0.48035  0.84032  1.0000
  Fe  Fe146     1.0  0.42146  0.46028  0.74365  1.0000
  S   S299      1.0  0.27121  0.34219  0.91214  1.0000
  H   H1730     1.0  0.48823  0.56621  0.76490  1.0000
  C   C987      1.0  0.01383  0.34208  0.83512  1.0000
  C   C988      1.0  0.37363  0.37825  0.73147  1.0000
  H   H1731     1.0  0.39647  0.33533  0.93383  1.0000
  C   C989      1.0  0.00465  0.37113  0.85187  1.0000
  C   C990      1.0  0.01854  0.35680  0.85643  1.0000
  H   H1732     1.0  0.44362  0.63073  0.80009  1.0000
  C   C991      1.0  0.38953  0.32254  0.82974  1.0000
  N   N70       1.0  0.32669  0.33317  0.84109  1.0000
  H   H1733     1.0  0.46996  0.61223  0.85366  1.0000
  H   H1734     1.0  0.30328  0.35402  0.84726  1.0000
  C   C992      1.0  0.31032  0.34078  0.85376  1.0000
  Fe  Fe147     1.0  0.36442  0.33648  0.74662  1.0000
  S   S300      1.0  0.47289  0.36711  0.95746  1.0000
  C   C993      1.0  0.15958  0.32866  0.79172  1.0000
  H   H1735     1.0  0.20714  0.36129  0.89190  1.0000
  S   S301      1.0  0.38864  0.62616  0.73700  1.0000
  H   H1736     1.0  0.47622  0.33222  0.94956  1.0000
  H   H1737     1.0  0.36575  0.45031  0.82790  1.0000
  C   C994      1.0  0.43053  0.56559  0.73797  1.0000
  H   H1738     1.0  0.07414  0.36397  0.82695  1.0000
  H   H1739     1.0  0.18177  0.35059  0.88804  1.0000
  H   H1740     1.0  0.37340  0.34987  0.88424  1.0000
  S   S302      1.0  0.40961  0.35153  0.87788  1.0000
  C   C995      1.0  0.09596  0.36844  0.94263  1.0000
  C   C996      1.0  0.10657  0.35166  0.94775  1.0000
  Fe  Fe148     1.0  0.09033  0.32641  0.88965  1.0000
  H   H1741     1.0  0.48198  0.48194  0.74873  1.0000
  C   C997      1.0  0.09184  0.35872  0.91735  1.0000
  C   C998      1.0  0.08880  0.37200  0.92729  1.0000
  C   C999      1.0  0.38383  0.32531  0.81365  1.0000
  C   C1000     1.0  0.45517  0.36882  0.91323  1.0000
  H   H1742     1.0  0.08631  0.36156  0.90553  1.0000
  H   H1743     1.0  0.08085  0.38508  0.92316  1.0000
  H   H1744     1.0  0.39278  0.46852  0.80336  1.0000
  H   H1745     1.0  0.06395  0.33133  0.79976  1.0000
  C   C1001     1.0  0.37204  0.43599  0.82796  1.0000
  H   H1746     1.0  0.41351  0.45949  0.81043  1.0000
  C   C1002     1.0  0.35694  0.42531  0.83568  1.0000
  C   C1003     1.0  0.39939  0.41014  0.79059  1.0000
  H   H1747     1.0  0.36245  0.41079  0.83955  1.0000
  C   C1004     1.0  0.39971  0.45733  0.81245  1.0000
  C   C1005     1.0  0.37476  0.44594  0.79496  1.0000
  H   H1748     1.0  0.03849  0.39692  0.77866  1.0000
  C   C1006     1.0  0.19482  0.37881  0.94583  1.0000
  C   C1007     1.0  0.29615  0.32915  0.86279  1.0000
  H   H1749     1.0  0.00114  0.38249  0.85821  1.0000
  C   C1008     1.0  0.22830  0.36452  0.95519  1.0000
  C   C1009     1.0  0.22704  0.36956  0.93723  1.0000
  C   C1010     1.0  0.21037  0.37699  0.93256  1.0000
  N   N71       1.0  0.42976  0.35343  0.74532  1.0000
  H   H1750     1.0  0.40692  0.38953  0.96300  1.0000
  H   H1751     1.0  0.35661  0.32889  0.88127  1.0000
  C   C1011     1.0  0.47033  0.34245  0.93951  1.0000
  C   C1012     1.0  0.16982  0.42909  0.95777  1.0000
  H   H1752     1.0  0.03932  0.37341  0.78060  1.0000
  H   H1753     1.0  0.16937  0.44529  0.92973  1.0000
  H   H1754     1.0  0.06098  0.40256  0.79979  1.0000
  H   H1755     1.0  0.44745  0.36311  0.76628  1.0000
  H   H1756     1.0  0.39331  0.45793  0.82656  1.0000
  H   H1757     1.0  0.38435  0.44685  0.78180  1.0000
  H   H1758     1.0  0.13472  0.34675  0.78789  1.0000
  C   C1013     1.0  0.36444  0.39725  0.75323  1.0000
  C   C1014     1.0  0.36478  0.38122  0.74850  1.0000
  H   H1759     1.0  0.34875  0.42961  0.84813  1.0000
  H   H1760     1.0  0.35745  0.39960  0.76636  1.0000
  H   H1761     1.0  0.35797  0.37134  0.75792  1.0000
  H   H1762     1.0  0.40126  0.39563  0.79121  1.0000
  H   H1763     1.0  0.45613  0.47163  0.74512  1.0000
  C   C1015     1.0  0.46590  0.33768  0.92550  1.0000
  H   H1764     1.0  0.42391  0.46456  0.83585  1.0000
  H   H1765     1.0  0.48887  0.42473  0.93927  1.0000
  C   C1016     1.0  0.35361  0.35925  0.90598  1.0000
  C   C1017     1.0  0.33661  0.35820  0.91685  1.0000
  C   C1018     1.0  0.32665  0.34676  0.91469  1.0000
  C   C1019     1.0  0.33392  0.33607  0.90192  1.0000
  C   C1020     1.0  0.35080  0.33726  0.89099  1.0000
  C   C1021     1.0  0.36047  0.34902  0.89282  1.0000
  H   H1766     1.0  0.33118  0.36618  0.92698  1.0000
  H   H1767     1.0  0.31360  0.34590  0.92317  1.0000
  C   C1022     1.0  0.08784  0.38635  0.79644  1.0000
  C   C1023     1.0  0.45816  0.35082  0.91241  1.0000
  C   C1024     1.0  0.45497  0.45906  0.86075  1.0000
  C   C1025     1.0  0.43085  0.44091  0.85557  1.0000
  C   C1026     1.0  0.44152  0.43277  0.86828  1.0000
  C   C1027     1.0  0.45346  0.44190  0.87094  1.0000
  H   H1768     1.0  0.44059  0.41947  0.87601  1.0000
  H   H1769     1.0  0.46171  0.43558  0.88075  1.0000
  H   H1770     1.0  0.19485  0.32797  0.94283  1.0000
  H   H1771     1.0  0.08496  0.50810  0.97674  1.0000
  H   H1772     1.0  0.29640  0.34548  0.82419  1.0000
  C   C1028     1.0  0.43791  0.48531  0.78444  1.0000
  C   C1029     1.0  0.45254  0.49094  0.78658  1.0000
  H   H1773     1.0  0.42558  0.48645  0.79438  1.0000
  C   C1030     1.0  0.43913  0.47834  0.76950  1.0000
  C   C1031     1.0  0.41933  0.58397  0.79023  1.0000
  C   C1032     1.0  0.41853  0.56805  0.80294  1.0000
  C   C1033     1.0  0.43117  0.56137  0.81386  1.0000
  C   C1034     1.0  0.44425  0.57093  0.81248  1.0000
  C   C1035     1.0  0.44466  0.58723  0.80024  1.0000
  C   C1036     1.0  0.43234  0.59365  0.78890  1.0000
  H   H1774     1.0  0.40841  0.56062  0.80402  1.0000
  H   H1775     1.0  0.43077  0.54884  0.82340  1.0000
  H   H1776     1.0  0.45489  0.59454  0.79911  1.0000
  H   H1777     1.0  0.43306  0.60589  0.77900  1.0000
  C   C1037     1.0  0.38778  0.41439  0.80846  1.0000
  C   C1038     1.0  0.40101  0.43899  0.80822  1.0000
  H   H1778     1.0  0.09583  0.37441  0.79113  1.0000
  N   N72       1.0  0.18620  0.43509  0.95860  1.0000
  H   H1779     1.0  0.19375  0.42190  0.92526  1.0000
  C   C1039     1.0  0.21281  0.36690  0.96854  1.0000
  C   C1040     1.0  0.39825  0.35137  0.82057  1.0000
  S   S303      1.0  0.45240  0.34435  0.89526  1.0000
  C   C1041     1.0  0.05599  0.34306  0.80550  1.0000
  H   H1780     1.0  0.37104  0.45994  0.79691  1.0000
  C   C1042     1.0  0.30930  0.34028  0.81574  1.0000
  S   S304      1.0  0.07175  0.32476  0.84945  1.0000
  C   C1043     1.0  0.03860  0.38098  0.80598  1.0000
  H   H1781     1.0  0.08988  0.38503  0.81010  1.0000
  N   N73       1.0  0.38346  0.43375  0.80983  1.0000
  C   C1044     1.0  0.06784  0.38961  0.79574  1.0000
  H   H1782     1.0  0.06271  0.39655  0.82919  1.0000
  C   C1045     1.0  0.46485  0.63534  0.76162  1.0000
  H   H1783     1.0  0.34778  0.42744  0.82656  1.0000
  H   H1784     1.0  0.01702  0.34893  0.95266  1.0000
  N   N74       1.0  0.05823  0.37488  0.80652  1.0000
  C   C1046     1.0  0.14298  0.32129  0.82778  1.0000
  H   H1785     1.0  0.47726  0.58467  0.84367  1.0000
  S   S305      1.0  0.40818  0.64185  0.76026  1.0000
  H   H1786     1.0  0.06846  0.36171  0.78389  1.0000
  S   S306      1.0  0.48645  0.51622  0.84639  1.0000
  C   C1047     1.0  0.13350  0.33352  0.81546  1.0000
  H   H1787     1.0  0.05958  0.34622  0.91470  1.0000
  H   H1788     1.0  0.06745  0.32659  0.94307  1.0000
  H   H1789     1.0  0.40288  0.35986  0.76091  1.0000
  H   H1790     1.0  0.45705  0.52826  0.77845  1.0000
  H   H1791     1.0  0.19715  0.45881  0.95327  1.0000
  H   H1792     1.0  0.03281  0.39351  0.81109  1.0000
  C   C1048     1.0  0.39216  0.35430  0.80468  1.0000
  H   H1793     1.0  0.44489  0.43970  0.81450  1.0000
  H   H1794     1.0  0.44583  0.32666  0.74528  1.0000
  H   H1795     1.0  0.31431  0.34393  0.86492  1.0000
  H   H1796     1.0  0.46562  0.57700  0.76361  1.0000
  H   H1797     1.0  0.42989  0.52623  0.76740  1.0000
  H   H1798     1.0  0.46631  0.34760  0.75657  1.0000
  C   C1049     1.0  0.04093  0.38743  0.91389  1.0000
  C   C1050     1.0  0.45629  0.43623  0.80342  1.0000
  H   H1799     1.0  0.45731  0.62634  0.76016  1.0000
  H   H1800     1.0  0.32789  0.35992  0.82523  1.0000
  H   H1801     1.0  0.48118  0.58201  0.86547  1.0000
  N   N75       1.0  0.40433  0.35580  0.95594  1.0000
  H   H1802     1.0  0.38663  0.39312  0.95460  1.0000
  C   C1051     1.0  0.00030  0.35661  0.83016  1.0000
  H   H1803     1.0  0.38034  0.34371  0.78890  1.0000
  H   H1804     1.0  0.07854  0.49563  0.94959  1.0000
  Fe  Fe149     1.0  0.15017  0.38897  0.96193  1.0000
  H   H1805     1.0  0.20239  0.44230  0.92073  1.0000
  C   C1052     1.0  0.47451  0.56379  0.76689  1.0000
  H   H1806     1.0  0.41934  0.54835  0.77238  1.0000
  H   H1807     1.0  0.42521  0.38871  0.75436  1.0000
  S   S307      1.0  0.42051  0.47119  0.76760  1.0000
  H   H1808     1.0  0.04292  0.34667  0.80133  1.0000
  C   C1053     1.0  0.46743  0.36046  0.94024  1.0000
  H   H1809     1.0  0.42567  0.55296  0.74193  1.0000
  H   H1810     1.0  0.40915  0.43943  0.79443  1.0000
  C   C1054     1.0  0.19599  0.37380  0.96386  1.0000
  H   H1811     1.0  0.40924  0.42884  0.81715  1.0000
  H   H1812     1.0  0.44945  0.37906  0.90307  1.0000
  C   C1055     1.0  0.40850  0.35334  0.97406  1.0000
  H   H1813     1.0  0.35769  0.42751  0.79480  1.0000
  C   C1056     1.0  0.46847  0.48976  0.77375  1.0000
  C   C1057     1.0  0.45508  0.47704  0.75666  1.0000
  H   H1814     1.0  0.33989  0.32194  0.86352  1.0000
  Fe  Fe150     1.0  0.43025  0.64426  0.73604  1.0000
  H   H1815     1.0  0.48046  0.63034  0.85113  1.0000
  H   H1816     1.0  0.04006  0.39256  0.83629  1.0000
  S   S308      1.0  0.34686  0.33728  0.77384  1.0000
  H   H1817     1.0  0.41085  0.38964  0.73972  1.0000
  H   H1818     1.0  0.47634  0.38230  0.83871  1.0000
  H   H1819     1.0  0.40568  0.40140  0.94081  1.0000
  H   H1820     1.0  0.34551  0.44853  0.80108  1.0000
  H   H1821     1.0  0.20952  0.38106  0.91862  1.0000
  H   H1822     1.0  0.05646  0.38124  0.84933  1.0000
  S   S309      1.0  0.48676  0.49752  0.77572  1.0000
  H   H1823     1.0  0.35639  0.34426  0.84852  1.0000
  C   C1058     1.0  0.44946  0.42748  0.79185  1.0000
  C   C1059     1.0  0.40147  0.39000  0.95127  1.0000
  C   C1060     1.0  0.33555  0.31960  0.96873  1.0000
  H   H1824     1.0  0.42371  0.37157  0.93947  1.0000
  H   H1825     1.0  0.41531  0.32736  0.95723  1.0000
  H   H1826     1.0  0.46877  0.52184  0.74847  1.0000
  H   H1827     1.0  0.48157  0.62218  0.83184  1.0000
  H   H1828     1.0  0.05195  0.31913  0.93541  1.0000
  H   H1829     1.0  0.03085  0.37110  0.81507  1.0000
  H   H1830     1.0  0.15719  0.36843  0.90731  1.0000
  Fe  Fe151     1.0  0.05832  0.33968  0.87136  1.0000
  H   H1831     1.0  0.11691  0.32509  0.94249  1.0000
  Fe  Fe152     1.0  0.47220  0.53328  0.82486  1.0000
  H   H1832     1.0  0.02427  0.33108  0.93071  1.0000
  C   C1061     1.0  0.05445  0.38629  0.83540  1.0000
  C   C1062     1.0  0.14189  0.33720  0.79746  1.0000
  C   C1063     1.0  0.41619  0.36350  0.75847  1.0000
  S   S310      1.0  0.40469  0.59081  0.77541  1.0000
  H   H1833     1.0  0.23896  0.36781  0.92689  1.0000
  C   C1064     1.0  0.06011  0.37046  0.82573  1.0000
  H   H1834     1.0  0.42968  0.34127  0.94339  1.0000
  H   H1835     1.0  0.20356  0.35139  0.91504  1.0000
  C   C1065     1.0  0.16548  0.34458  0.92763  1.0000
  C   C1066     1.0  0.44813  0.54058  0.77266  1.0000
  H   H1836     1.0  0.04445  0.33034  0.95424  1.0000
  H   H1837     1.0  0.45136  0.49629  0.79813  1.0000
  C   C1067     1.0  0.00362  0.37589  0.94278  1.0000
  H   H1838     1.0  0.39299  0.36665  0.79501  1.0000
  H   H1839     1.0  0.38024  0.36040  0.94526  1.0000
  C   C1068     1.0  0.37328  0.41013  0.74108  1.0000
  H   H1840     1.0  0.41046  0.35075  0.92006  1.0000
  S   S311      1.0  0.11117  0.34450  0.82185  1.0000
  C   C1069     1.0  0.48033  0.45333  0.81523  1.0000
  H   H1841     1.0  0.41387  0.63021  0.79716  1.0000
  H   H1842     1.0  0.46884  0.46279  0.81023  1.0000
  C   C1070     1.0  0.20056  0.31863  0.93357  1.0000
  H   H1843     1.0  0.21707  0.42098  0.92155  1.0000
  H   H1844     1.0  0.45698  0.35209  0.73008  1.0000
  H   H1845     1.0  0.44388  0.33338  0.77651  1.0000
  C   C1071     1.0  0.03393  0.38484  0.78741  1.0000
  S   S312      1.0  0.09012  0.38461  0.95596  1.0000
  H   H1846     1.0  0.33920  0.33217  0.96014  1.0000
  C   C1072     1.0  0.38496  0.34133  0.80121  1.0000
  H   H1847     1.0  0.36518  0.33960  0.96583  1.0000
  C   C1073     1.0  0.48182  0.61800  0.84625  1.0000
  H   H1848     1.0  0.48114  0.40060  0.84447  1.0000
  S   S313      1.0  0.42079  0.43138  0.74724  1.0000
  C   C1074     1.0  0.03275  0.37303  0.91079  1.0000
  C   C1075     1.0  0.48044  0.41465  0.94573  1.0000
  C   C1076     1.0  0.00523  0.34955  0.91688  1.0000
  H   H1849     1.0  0.48226  0.45855  0.82618  1.0000
  H   H1850     1.0  0.15775  0.42753  0.93649  1.0000
  H   H1851     1.0  0.15578  0.46278  0.96410  1.0000
  C   C1077     1.0  0.20290  0.42547  0.94786  1.0000
  C   C1078     1.0  0.41349  0.38406  0.75327  1.0000
  C   C1079     1.0  0.40897  0.37279  0.94375  1.0000
  C   C1080     1.0  0.37739  0.34021  0.96992  1.0000
  H   H1852     1.0  0.42538  0.52986  0.78947  1.0000
  H   H1853     1.0  0.01956  0.37978  0.90745  1.0000
  C   C1081     1.0  0.44423  0.46713  0.84813  1.0000
  H   H1854     1.0  0.06742  0.39194  0.78137  1.0000
  C   C1082     1.0  0.38455  0.35685  0.95831  1.0000
  Fe  Fe153     1.0  0.11110  0.38693  0.96951  1.0000
  H   H1855     1.0  0.38219  0.63834  0.80116  1.0000
  H   H1856     1.0  0.44036  0.43785  0.78414  1.0000
  C   C1083     1.0  0.43216  0.45814  0.84564  1.0000
  C   C1084     1.0  0.43608  0.62138  0.82846  1.0000
  H   H1857     1.0  0.38055  0.43186  0.83822  1.0000
  H   H1858     1.0  0.33460  0.32187  0.81739  1.0000
  H   H1859     1.0  0.09347  0.39798  0.78794  1.0000
  C   C1085     1.0  0.48493  0.64172  0.77687  1.0000
  H   H1860     1.0  0.48223  0.55668  0.74140  1.0000
  S   S314      1.0  0.43523  0.37904  0.85256  1.0000
  H   H1861     1.0  0.43009  0.61091  0.82661  1.0000
  H   H1862     1.0  0.39479  0.40602  0.81928  1.0000
  H   H1863     1.0  0.37558  0.40898  0.81064  1.0000
  H   H1864     1.0  0.45874  0.44931  0.79520  1.0000
  C   C1086     1.0  0.04980  0.51925  0.96558  1.0000
  H   H1865     1.0  0.99814  0.37881  0.93061  1.0000
  H   H1866     1.0  0.48526  0.40293  0.93923  1.0000
  C   C1087     1.0  0.46066  0.53463  0.74244  1.0000
  H   H1867     1.0  0.41972  0.35991  0.77179  1.0000
  H   H1868     1.0  0.40402  0.37538  0.93121  1.0000
  C   C1088     1.0  0.43707  0.63687  0.81196  1.0000
  C   C1089     1.0  0.20375  0.42812  0.92773  1.0000
  C   C1090     1.0  0.16109  0.43802  0.94134  1.0000
  H   H1869     1.0  0.48749  0.40891  0.79151  1.0000
  H   H1870     1.0  0.05648  0.35711  0.93264  1.0000
  H   H1871     1.0  0.03541  0.39069  0.92729  1.0000
  H   H1872     1.0  0.46837  0.32373  0.92485  1.0000
  H   H1873     1.0  0.02521  0.52274  0.95529  1.0000
  C   C1091     1.0  0.47524  0.63008  0.77476  1.0000
  H   H1874     1.0  0.15579  0.33966  0.89866  1.0000
  S   S315      1.0  0.37314  0.42985  0.74741  1.0000
  S   S316      1.0  0.32295  0.32013  0.90013  1.0000
  H   H1875     1.0  0.39777  0.52807  0.73024  1.0000
  C   C1092     1.0  0.44697  0.36024  0.73912  1.0000
  H   H1876     1.0  0.47771  0.55445  0.85867  1.0000
  C   C1093     1.0  0.19682  0.35684  0.90360  1.0000
  S   S317      1.0  0.13573  0.36648  0.97501  1.0000
  S   S318      1.0  0.06511  0.31629  0.89345  1.0000
  H   H1877     1.0  0.41878  0.57613  0.74185  1.0000
  C   C1094     1.0  0.45662  0.36039  0.75369  1.0000
  C   C1095     1.0  0.18477  0.45502  0.95243  1.0000
  H   H1878     1.0  0.41966  0.32746  0.92511  1.0000
  C   C1096     1.0  0.47941  0.40895  0.96610  1.0000
  H   H1879     1.0  0.03316  0.33081  0.85200  1.0000
  C   C1097     1.0  0.33680  0.34796  0.83160  1.0000
  C   C1098     1.0  0.10162  0.34165  0.92305  1.0000
  H   H1880     1.0  0.13958  0.35652  0.91951  1.0000
  H   H1881     1.0  0.01749  0.33080  0.82864  1.0000
  N   N76       1.0  0.03172  0.35677  0.92573  1.0000
  H   H1882     1.0  0.04176  0.53415  0.94073  1.0000
  H   H1883     1.0  0.00577  0.38849  0.94484  1.0000
  C   C1099     1.0  0.02284  0.34213  0.84826  1.0000
  C   C1100     1.0  0.43444  0.32742  0.77290  1.0000
  H   H1884     1.0  0.34768  0.34371  0.82046  1.0000
  H   H1885     1.0  0.38682  0.32746  0.96825  1.0000
  H   H1886     1.0  0.43252  0.36541  0.96635  1.0000
  H   H1887     1.0  0.36620  0.32016  0.94439  1.0000
  C   C1101     1.0  0.34557  0.35471  0.84326  1.0000
  H   H1888     1.0  0.47065  0.55785  0.78128  1.0000
  H   H1889     1.0  0.08084  0.47195  0.95555  1.0000
  N   N77       1.0  0.45698  0.54822  0.75392  1.0000
  H   H1890     1.0  0.20470  0.41075  0.95278  1.0000
  C   C1102     1.0  0.16867  0.46659  0.96292  1.0000
  H   H1891     1.0  0.46039  0.42128  0.78200  1.0000
  H   H1892     1.0  0.16746  0.48079  0.95581  1.0000
  H   H1893     1.0  0.17409  0.34986  0.93325  1.0000
  C   C1103     1.0  0.05747  0.48580  0.97170  1.0000
  H   H1894     1.0  0.40837  0.35218  0.73347  1.0000
  H   H1895     1.0  0.03807  0.39992  0.90382  1.0000
  H   H1896     1.0  0.21249  0.32257  0.92383  1.0000
  Fe  Fe154     1.0  0.48545  0.50541  0.80161  1.0000
  H   H1897     1.0  0.04098  0.36902  0.89818  1.0000
  C   C1104     1.0  0.15158  0.36077  0.92050  1.0000
  C   C1105     1.0  0.07690  0.48429  0.96108  1.0000
  H   H1898     1.0  0.44165  0.41736  0.80030  1.0000
  C   C1106     1.0  0.46970  0.48284  0.75875  1.0000
  H   H1899     1.0  0.42103  0.33020  0.78172  1.0000
  H   H1900     1.0  0.44596  0.55001  0.78154  1.0000
  H   H1901     1.0  0.18660  0.36894  0.90622  1.0000
  C   C1107     1.0  0.02088  0.36117  0.94335  1.0000
  C   C1108     1.0  0.46703  0.40793  0.82210  1.0000
  H   H1902     1.0  0.46673  0.42071  0.94322  1.0000
  H   H1903     1.0  0.06369  0.52075  0.95889  1.0000
  Fe  Fe155     1.0  0.40877  0.61543  0.75456  1.0000
  H   H1904     1.0  0.35201  0.36588  0.83485  1.0000
  H   H1905     1.0  0.99518  0.35107  0.92937  1.0000
  C   C1109     1.0  0.48069  0.39526  0.83296  1.0000
  H   H1906     1.0  0.15797  0.33634  0.93939  1.0000
  H   H1907     1.0  0.44007  0.57392  0.75718  1.0000
  C   C1110     1.0  0.47676  0.43438  0.82303  1.0000
  H   H1908     1.0  0.03328  0.33954  0.90797  1.0000
  H   H1909     1.0  0.42875  0.62609  0.84091  1.0000
  H   H1910     1.0  0.02924  0.36568  0.95005  1.0000
  Fe  Fe156     1.0  0.26245  0.33555  0.94202  1.0000
  H   H1911     1.0  0.15902  0.43148  0.96962  1.0000
  H   H1912     1.0  0.11204  0.34876  0.95963  1.0000
  H   H1913     1.0  0.99288  0.37177  0.95418  1.0000
  Fe  Fe157     1.0  0.39736  0.44177  0.73383  1.0000
  C   C1111     1.0  0.44596  0.56598  0.74656  1.0000
  H   H1914     1.0  0.33568  0.35989  0.85445  1.0000
  C   C1112     1.0  0.43322  0.33355  0.75302  1.0000
  C   C1113     1.0  0.42967  0.53609  0.77519  1.0000
  N   N78       1.0  0.47238  0.42505  0.81080  1.0000
  H   H1915     1.0  0.48372  0.53802  0.75956  1.0000
  C   C1114     1.0  0.05346  0.33005  0.94097  1.0000
  H   H1916     1.0  0.48593  0.44921  0.78125  1.0000
  C   C1115     1.0  0.41532  0.34031  0.94750  1.0000
  H   H1917     1.0  0.00344  0.36180  0.90636  1.0000
  H   H1918     1.0  0.28269  0.33797  0.86535  1.0000
  H   H1919     1.0  0.14807  0.44707  0.94527  1.0000
  H   H1920     1.0  0.46448  0.39987  0.81373  1.0000
  Fe  Fe158     1.0  0.09624  0.33403  0.84927  1.0000
  H   H1921     1.0  0.04384  0.53106  0.97198  1.0000
  N   N79       1.0  0.17642  0.33328  0.91428  1.0000
  H   H1922     1.0  0.05373  0.33862  0.82016  1.0000
  C   C1116     1.0  0.32213  0.32659  0.82687  1.0000
  C   C1117     1.0  0.18873  0.34309  0.89916  1.0000
  H   H1923     1.0  0.47567  0.61701  0.78345  1.0000
  H   H1924     1.0  0.18397  0.37497  0.97415  1.0000
  C   C1118     1.0  0.48766  0.57903  0.85197  1.0000
  C   C1119     1.0  0.40995  0.33856  0.93072  1.0000
  H   H1925     1.0  0.04913  0.48470  0.96279  1.0000
  C   C1120     1.0  0.02443  0.34356  0.92031  1.0000
  H   H1926     1.0  0.31553  0.35148  0.80717  1.0000
  C   C1121     1.0  0.16905  0.31628  0.80390  1.0000
  C   C1122     1.0  0.40727  0.63805  0.80780  1.0000
  H   H1927     1.0  0.46574  0.43525  0.83495  1.0000
  H   H1928     1.0  0.45415  0.41092  0.83184  1.0000
  C   C1123     1.0  0.47494  0.55103  0.75486  1.0000
  H   H1929     1.0  0.00229  0.33893  0.91189  1.0000
  Fe  Fe159     1.0  0.29505  0.32025  0.91652  1.0000
  H   H1930     1.0  0.40460  0.62798  0.82034  1.0000
  H   H1931     1.0  0.37668  0.36808  0.96490  1.0000
  S   S319      1.0  0.10396  0.32397  0.91235  1.0000
  C   C1124     1.0  0.99552  0.37104  0.83877  1.0000
  H   H1932     1.0  0.21501  0.42923  0.94942  1.0000
  C   C1125     1.0  0.18688  0.31641  0.92393  1.0000
  H   H1933     1.0  0.48731  0.43302  0.76831  1.0000
  H   H1934     1.0  0.30612  0.33357  0.80655  1.0000
  H   H1935     1.0  0.22770  0.32240  0.86211  1.0000
  S   S320      1.0  0.00214  0.55207  0.97629  1.0000
  S   S321      1.0  0.39678  0.47067  0.73198  1.0000
  S   S322      1.0  0.43287  0.61652  0.73219  1.0000
  H   H1936     1.0  0.44503  0.37391  0.73056  1.0000
  H   H1937     1.0  0.45476  0.57411  0.73606  1.0000
  H   H1938     1.0  0.44669  0.64426  0.81341  1.0000
  C   C1126     1.0  0.16347  0.32781  0.90658  1.0000
  H   H1939     1.0  0.35380  0.32197  0.92809  1.0000
  H   H1940     1.0  0.43743  0.34131  0.96915  1.0000
  Fe  Fe160     1.0  0.25777  0.32022  0.91239  1.0000
  H   H1941     1.0  0.47187  0.39788  0.97113  1.0000
  H   H1942     1.0  0.99137  0.31791  0.77227  1.0000
  S   S323      1.0  0.24189  0.32529  0.89085  1.0000
  H   H1943     1.0  0.47057  0.42040  0.97184  1.0000
  C   C1127     1.0  0.38855  0.64788  0.80426  1.0000
  H   H1944     1.0  0.29481  0.32046  0.85455  1.0000
  S   S324      1.0  0.99095  0.35687  0.81210  1.0000
  Fe  Fe161     1.0  0.33416  0.31760  0.76797  1.0000
  S   S325      1.0  0.34964  0.31932  0.73974  1.0000
  H   H1945     1.0  0.13676  0.31878  0.84179  1.0000
  H   H1946     1.0  0.29885  0.32095  0.87586  1.0000
  S   S326      1.0  0.30413  0.32083  0.77506  1.0000
  C   C1128     1.0  0.33902  0.31839  0.85113  1.0000
  C   C1129     1.0  0.42153  0.35635  0.72928  1.0000
  S   S327      1.0  0.00735  0.60073  0.97551  1.0000
  H   H1947     1.0  0.26792  0.31636  0.78192  1.0000
  C   C1130     1.0  0.48855  0.42053  0.79639  1.0000
  H   H1948     1.0  0.17059  0.46607  0.97647  1.0000
  H   H1949     1.0  0.35294  0.31663  0.84308  1.0000
  H   H1950     1.0  0.15321  0.32183  0.91746  1.0000
  H   H1951     1.0  0.48890  0.42658  0.82824  1.0000
  H   H1952     1.0  0.38555  0.31856  0.91524  1.0000
  H   H1953     1.0  0.39827  0.81528  0.15638  1.0000
  Fe  Fe162     1.0  0.22047  0.76837  0.07724  1.0000
  S   S328      1.0  0.22141  0.75674  0.10601  1.0000
  S   S329      1.0  0.19669  0.79016  0.07101  1.0000
  Fe  Fe163     1.0  0.25557  0.74473  0.06479  1.0000
  S   S330      1.0  0.25930  0.73067  0.09252  1.0000
  S   S331      1.0  0.27615  0.73841  0.04060  1.0000
  Fe  Fe164     1.0  0.23003  0.73024  0.09784  1.0000
  S   S332      1.0  0.21590  0.70882  0.11627  1.0000
  Fe  Fe165     1.0  0.25055  0.75828  0.09841  1.0000
  S   S333      1.0  0.26292  0.76556  0.11786  1.0000
  S   S334      1.0  0.22709  0.74171  0.06952  1.0000
  S   S335      1.0  0.24885  0.77243  0.07025  1.0000
  Fe  Fe166     1.0  0.08382  0.77864  0.03009  1.0000
  S   S336      1.0  0.09699  0.78568  0.04854  1.0000
  S   S337      1.0  0.06597  0.75922  0.04560  1.0000
  Fe  Fe167     1.0  0.09982  0.80516  0.99820  1.0000
  S   S338      1.0  0.11368  0.81441  0.01452  1.0000
  H   H1954     1.0  0.32431  0.74440  0.01192  1.0000
  Fe  Fe168     1.0  0.12123  0.78523  0.02640  1.0000
  S   S339      1.0  0.14923  0.76990  0.02863  1.0000
  Fe  Fe169     1.0  0.08787  0.81407  0.03500  1.0000
  S   S340      1.0  0.07440  0.83412  0.05266  1.0000
  S   S341      1.0  0.10889  0.77582  0.00879  1.0000
  S   S342      1.0  0.07330  0.80707  0.01781  1.0000
  Fe  Fe170     1.0  0.41681  0.85357  0.01133  1.0000
  S   S343      1.0  0.42227  0.82557  0.02725  1.0000
  S   S344      1.0  0.39266  0.87242  0.02255  1.0000
  Fe  Fe171     1.0  0.36811  0.82702  0.12042  1.0000
  S   S345      1.0  0.34247  0.84593  0.11593  1.0000
  S   S346      1.0  0.39396  0.83588  0.10645  1.0000
  Fe  Fe172     1.0  0.34923  0.80331  0.15266  1.0000
  S   S347      1.0  0.32191  0.82073  0.15120  1.0000
  S   S348      1.0  0.35669  0.77951  0.17416  1.0000
  Fe  Fe173     1.0  0.33083  0.82130  0.12157  1.0000
  S   S349      1.0  0.31410  0.82070  0.10214  1.0000
  Fe  Fe174     1.0  0.33606  0.84366  0.14553  1.0000
  S   S350      1.0  0.32874  0.86834  0.15727  1.0000
  S   S351      1.0  0.35748  0.80245  0.12336  1.0000
  S   S352      1.0  0.36220  0.82603  0.14971  1.0000
  N   N80       1.0  0.36680  0.90940  0.08867  1.0000
  H   H1955     1.0  0.34513  0.81775  0.21728  1.0000
  H   H1956     1.0  0.07846  0.68849  0.05051  1.0000
  H   H1957     1.0  0.44466  0.88953  0.12639  1.0000
  Fe  Fe175     1.0  0.03247  0.68620  0.03040  1.0000
  S   S353      1.0  0.03772  0.71136  0.01052  1.0000
  H   H1958     1.0  0.31884  0.80797  0.00422  1.0000
  H   H1959     1.0  0.00549  0.74242  0.01746  1.0000
  Fe  Fe176     1.0  0.40784  0.94567  0.17800  1.0000
  S   S354      1.0  0.38199  0.94218  0.17371  1.0000
  C   C1131     1.0  0.37647  0.91398  0.10051  1.0000
  Fe  Fe177     1.0  0.41437  0.90956  0.20272  1.0000
  S   S355      1.0  0.38918  0.90291  0.20064  1.0000
  Fe  Fe178     1.0  0.39675  0.91428  0.17142  1.0000
  S   S356      1.0  0.39709  0.89989  0.15009  1.0000
  Fe  Fe179     1.0  0.37680  0.93120  0.20328  1.0000
  S   S357      1.0  0.42320  0.91862  0.17323  1.0000
  S   S358      1.0  0.40138  0.93693  0.20785  1.0000
  H   H1960     1.0  0.38556  0.76992  0.22469  1.0000
  H   H1961     1.0  0.38601  0.87338  0.08328  1.0000
  Fe  Fe180     1.0  0.40931  0.89338  0.01066  1.0000
  C   C1132     1.0  0.34767  0.87723  0.15534  1.0000
  C   C1133     1.0  0.36392  0.87148  0.14416  1.0000
  C   C1134     1.0  0.37901  0.87838  0.14281  1.0000
  C   C1135     1.0  0.37801  0.89112  0.15264  1.0000
  C   C1136     1.0  0.36176  0.89704  0.16375  1.0000
  C   C1137     1.0  0.34659  0.89017  0.16501  1.0000
  H   H1962     1.0  0.36485  0.86188  0.13627  1.0000
  H   H1963     1.0  0.39149  0.87378  0.13410  1.0000
  H   H1964     1.0  0.36084  0.90698  0.17130  1.0000
  H   H1965     1.0  0.33405  0.89474  0.17365  1.0000
  C   C1138     1.0  0.41656  0.82653  0.04991  1.0000
  C   C1139     1.0  0.42075  0.84007  0.05544  1.0000
  C   C1140     1.0  0.41475  0.84195  0.07322  1.0000
  C   C1141     1.0  0.40347  0.83116  0.08520  1.0000
  C   C1142     1.0  0.39945  0.81740  0.07980  1.0000
  C   C1143     1.0  0.40642  0.81479  0.06223  1.0000
  H   H1966     1.0  0.42871  0.84906  0.04599  1.0000
  H   H1967     1.0  0.41847  0.85208  0.07759  1.0000
  H   H1968     1.0  0.39105  0.80880  0.08916  1.0000
  H   H1969     1.0  0.40331  0.80420  0.05799  1.0000
  C   C1144     1.0  0.05175  0.84416  0.05224  1.0000
  C   C1145     1.0  0.04453  0.84521  0.03752  1.0000
  C   C1146     1.0  0.02621  0.85220  0.03790  1.0000
  C   C1147     1.0  0.01494  0.85810  0.05301  1.0000
  C   C1148     1.0  0.02216  0.85743  0.06760  1.0000
  C   C1149     1.0  0.04056  0.85056  0.06716  1.0000
  H   H1970     1.0  0.05309  0.84075  0.02580  1.0000
  H   H1971     1.0  0.02072  0.85277  0.02652  1.0000
  H   H1972     1.0  0.04606  0.84983  0.07857  1.0000
  C   C1150     1.0  0.05741  0.74714  0.03514  1.0000
  C   C1151     1.0  0.06145  0.74868  0.01661  1.0000
  C   C1152     1.0  0.05505  0.73794  0.00899  1.0000
  C   C1153     1.0  0.04467  0.72567  0.01990  1.0000
  C   C1154     1.0  0.04019  0.72466  0.03836  1.0000
  C   C1155     1.0  0.04663  0.73525  0.04595  1.0000
  H   H1973     1.0  0.06971  0.75791  0.00818  1.0000
  H   H1974     1.0  0.05843  0.73888  0.99468  1.0000
  H   H1975     1.0  0.03175  0.71570  0.04685  1.0000
  H   H1976     1.0  0.04356  0.73391  0.06029  1.0000
  C   C1156     1.0  0.27802  0.78017  0.11270  1.0000
  C   C1157     1.0  0.28594  0.78128  0.12626  1.0000
  C   C1158     1.0  0.29728  0.79338  0.12311  1.0000
  C   C1159     1.0  0.30061  0.80469  0.10639  1.0000
  C   C1160     1.0  0.29267  0.80363  0.09279  1.0000
  C   C1161     1.0  0.28148  0.79136  0.09589  1.0000
  H   H1977     1.0  0.28328  0.77273  0.13933  1.0000
  H   H1978     1.0  0.30328  0.79408  0.13369  1.0000
  H   H1979     1.0  0.29510  0.81242  0.07985  1.0000
  H   H1980     1.0  0.27533  0.79071  0.08543  1.0000
  C   C1162     1.0  0.18335  0.78465  0.05927  1.0000
  C   C1163     1.0  0.19056  0.77156  0.04898  1.0000
  C   C1164     1.0  0.17989  0.76721  0.03970  1.0000
  C   C1165     1.0  0.16194  0.77601  0.04050  1.0000
  C   C1166     1.0  0.15469  0.78929  0.05058  1.0000
  C   C1167     1.0  0.16542  0.79363  0.05992  1.0000
  H   H1981     1.0  0.20449  0.76507  0.04779  1.0000
  H   H1982     1.0  0.18563  0.75707  0.03177  1.0000
  H   H1983     1.0  0.14085  0.79617  0.05122  1.0000
  H   H1984     1.0  0.15978  0.80387  0.06776  1.0000
  C   C1168     1.0  0.27172  0.75409  0.02130  1.0000
  C   C1169     1.0  0.25653  0.76788  0.02217  1.0000
  C   C1170     1.0  0.25403  0.78135  0.00702  1.0000
  C   C1171     1.0  0.26684  0.78115  0.99107  1.0000
  C   C1172     1.0  0.28175  0.76709  0.99005  1.0000
  C   C1173     1.0  0.28414  0.75351  0.00514  1.0000
  H   H1985     1.0  0.24678  0.76829  0.03455  1.0000
  H   H1986     1.0  0.24243  0.79215  0.00782  1.0000
  H   H1987     1.0  0.37026  0.94574  0.07670  1.0000
  H   H1988     1.0  0.29575  0.74270  0.00437  1.0000
  H   H1989     1.0  0.31227  0.75718  0.03896  1.0000
  C   C1174     1.0  0.04953  0.79103  0.07995  1.0000
  C   C1175     1.0  0.22210  0.68858  0.09081  1.0000
  C   C1176     1.0  0.21239  0.69208  0.10745  1.0000
  C   C1177     1.0  0.19974  0.68183  0.11755  1.0000
  H   H1990     1.0  0.40216  0.80662  0.20410  1.0000
  H   H1991     1.0  0.07791  0.70890  0.03534  1.0000
  H   H1992     1.0  0.23199  0.69636  0.08299  1.0000
  H   H1993     1.0  0.19229  0.68439  0.13049  1.0000
  H   H1994     1.0  0.38051  0.82014  0.18550  1.0000
  C   C1178     1.0  0.99716  0.74744  0.02950  1.0000
  H   H1995     1.0  0.01130  0.88948  0.00596  1.0000
  C   C1179     1.0  0.42110  0.92565  0.02662  1.0000
  C   C1180     1.0  0.16835  0.80730  0.99330  1.0000
  H   H1996     1.0  0.28840  0.79217  0.04909  1.0000
  H   H1997     1.0  0.13516  0.66561  0.06520  1.0000
  C   C1181     1.0  0.08469  0.70064  0.07709  1.0000
  H   H1998     1.0  0.33847  0.90765  0.12039  1.0000
  C   C1182     1.0  0.43527  0.96736  0.14665  1.0000
  H   H1999     1.0  0.99879  0.91932  0.01125  1.0000
  C   C1183     1.0  0.37341  0.77444  0.20200  1.0000
  C   C1184     1.0  0.36089  0.78581  0.19218  1.0000
  C   C1185     1.0  0.35097  0.80160  0.19756  1.0000
  C   C1186     1.0  0.43641  0.92496  0.01299  1.0000
  C   C1187     1.0  0.40764  0.84888  0.18200  1.0000
  H   H2000     1.0  0.38114  0.76223  0.19784  1.0000
  H   H2001     1.0  0.34121  0.81039  0.19012  1.0000
  H   H2002     1.0  0.24888  0.67178  0.11294  1.0000
  C   C1188     1.0  0.44833  0.95163  0.14829  1.0000
  C   C1189     1.0  0.46192  0.94799  0.13355  1.0000
  H   H2003     1.0  0.44807  0.94231  0.16097  1.0000
  H   H2004     1.0  0.37429  0.90128  0.06303  1.0000
  C   C1190     1.0  0.30961  0.80090  0.01531  1.0000
  H   H2005     1.0  0.22747  0.65326  0.12486  1.0000
  H   H2006     1.0  0.40068  0.88452  0.08871  1.0000
  C   C1191     1.0  0.32398  0.77325  0.00453  1.0000
  H   H2007     1.0  0.12344  0.69896  0.02076  1.0000
  H   H2008     1.0  0.46947  0.91332  0.06568  1.0000
  H   H2009     1.0  0.18345  0.77945  0.99945  1.0000
  H   H2010     1.0  0.30688  0.80805  0.02643  1.0000
  H   H2011     1.0  0.37185  0.93801  0.05653  1.0000
  C   C1192     1.0  0.33854  0.86174  0.98015  1.0000
  C   C1193     1.0  0.39021  0.82904  0.17863  1.0000
  H   H2012     1.0  0.22329  0.67395  0.14246  1.0000
  H   H2013     1.0  0.12497  0.71204  0.03500  1.0000
  S   S359      1.0  0.47859  0.95425  0.09844  1.0000
  Fe  Fe181     1.0  0.38539  0.87775  0.99593  1.0000
  H   H2014     1.0  0.47934  0.92307  0.07823  1.0000
  H   H2015     1.0  0.24796  0.68551  0.12836  1.0000
  H   H2016     1.0  0.22642  0.67235  0.07135  1.0000
  H   H2017     1.0  0.34708  0.80110  0.00840  1.0000
  S   S360      1.0  0.41750  0.97129  0.16474  1.0000
  H   H2018     1.0  0.33017  0.78923  0.03872  1.0000
  C   C1194     1.0  0.00851  0.80014  0.08948  1.0000
  H   H2019     1.0  0.99267  0.74028  0.09733  1.0000
  H   H2020     1.0  0.41657  0.96991  0.20396  1.0000
  N   N81       1.0  0.10277  0.69830  0.04510  1.0000
  H   H2021     1.0  0.33884  0.76705  0.03607  1.0000
  H   H2022     1.0  0.38717  0.92135  0.09254  1.0000
  C   C1195     1.0  0.25560  0.67356  0.12284  1.0000
  C   C1196     1.0  0.19671  0.66820  0.11106  1.0000
  H   H2023     1.0  0.38962  0.91229  0.06663  1.0000
  C   C1197     1.0  0.38071  0.90264  0.07350  1.0000
  C   C1198     1.0  0.08528  0.65154  0.09167  1.0000
  C   C1199     1.0  0.21897  0.67497  0.08427  1.0000
  H   H2024     1.0  0.44401  0.92255  0.21391  1.0000
  H   H2025     1.0  0.28672  0.81912  0.00565  1.0000
  H   H2026     1.0  0.40339  0.88182  0.06638  1.0000
  H   H2027     1.0  0.36103  0.85569  0.18790  1.0000
  H   H2028     1.0  0.10691  0.71325  0.06268  1.0000
  H   H2029     1.0  0.08069  0.70998  0.08643  1.0000
  H   H2030     1.0  0.35672  0.86295  0.20832  1.0000
  C   C1200     1.0  0.11509  0.70791  0.02989  1.0000
  H   H2031     1.0  0.34279  0.75085  0.99444  1.0000
  C   C1201     1.0  0.03723  0.80010  0.06645  1.0000
  S   S361      1.0  0.00923  0.68646  0.09355  1.0000
  C   C1202     1.0  0.30552  0.77131  0.03463  1.0000
  H   H2032     1.0  0.00805  0.82359  0.05772  1.0000
  H   H2033     1.0  0.41231  0.80635  0.17214  1.0000
  H   H2034     1.0  0.34293  0.93070  0.09049  1.0000
  H   H2035     1.0  0.42003  0.84290  0.17332  1.0000
  H   H2036     1.0  0.09244  0.68808  0.08383  1.0000
  H   H2037     1.0  0.46752  0.90627  0.10462  1.0000
  S   S362      1.0  0.46106  0.96152  0.01893  1.0000
  H   H2038     1.0  0.10396  0.67191  0.06193  1.0000
  H   H2039     1.0  0.03707  0.81464  0.06335  1.0000
  H   H2040     1.0  0.00029  0.72358  0.07468  1.0000
  H   H2041     1.0  0.00518  0.77713  0.06826  1.0000
  H   H2042     1.0  0.35371  0.93478  0.11078  1.0000
  H   H2043     1.0  0.29442  0.77033  0.02897  1.0000
  H   H2044     1.0  0.09219  0.67082  0.02987  1.0000
  H   H2045     1.0  0.36029  0.91545  0.12746  1.0000
  H   H2046     1.0  0.45170  0.94427  0.08558  1.0000
  H   H2047     1.0  0.01357  0.86199  0.07930  1.0000
  S   S363      1.0  0.40542  0.91222  0.02941  1.0000
  C   C1203     1.0  0.36514  0.92454  0.11492  1.0000
  C   C1204     1.0  0.33396  0.75352  0.00729  1.0000
  H   H2048     1.0  0.09726  0.72196  0.01095  1.0000
  C   C1205     1.0  0.41812  0.93730  0.03833  1.0000
  N   N82       1.0  0.16507  0.72292  0.07916  1.0000
  C   C1206     1.0  0.16295  0.73922  0.08675  1.0000
  C   C1207     1.0  0.15396  0.72836  0.06501  1.0000
  C   C1208     1.0  0.18461  0.71763  0.07075  1.0000
  C   C1209     1.0  0.15903  0.70831  0.09435  1.0000
  C   C1210     1.0  0.17565  0.73771  0.09925  1.0000
  C   C1211     1.0  0.13370  0.73497  0.07145  1.0000
  C   C1212     1.0  0.18954  0.70468  0.05784  1.0000
  C   C1213     1.0  0.15659  0.69139  0.08968  1.0000
  H   H2049     1.0  0.16495  0.75109  0.07582  1.0000
  H   H2050     1.0  0.14912  0.74287  0.09455  1.0000
  H   H2051     1.0  0.15537  0.71753  0.05798  1.0000
  H   H2052     1.0  0.15897  0.73913  0.05423  1.0000
  H   H2053     1.0  0.19003  0.72971  0.06299  1.0000
  H   H2054     1.0  0.19260  0.71139  0.08123  1.0000
  H   H2055     1.0  0.16868  0.70347  0.10346  1.0000
  H   H2056     1.0  0.14627  0.71355  0.10313  1.0000
  H   H2057     1.0  0.17207  0.75011  0.10464  1.0000
  H   H2058     1.0  0.17457  0.72637  0.11084  1.0000
  H   H2059     1.0  0.18982  0.73666  0.09202  1.0000
  H   H2060     1.0  0.12768  0.72498  0.08241  1.0000
  H   H2061     1.0  0.13079  0.74798  0.07557  1.0000
  H   H2062     1.0  0.12690  0.73737  0.06012  1.0000
  H   H2063     1.0  0.18540  0.69179  0.06414  1.0000
  H   H2064     1.0  0.20437  0.70145  0.05359  1.0000
  H   H2065     1.0  0.18431  0.71084  0.04544  1.0000
  H   H2066     1.0  0.16842  0.68038  0.09127  1.0000
  H   H2067     1.0  0.15412  0.69315  0.07621  1.0000
  H   H2068     1.0  0.14473  0.68674  0.09901  1.0000
  N   N83       1.0  0.35435  0.83701  0.04807  1.0000
  C   C1214     1.0  0.35200  0.85421  0.05419  1.0000
  C   C1215     1.0  0.33950  0.83940  0.03833  1.0000
  C   C1216     1.0  0.37199  0.83471  0.03494  1.0000
  C   C1217     1.0  0.35420  0.82178  0.06414  1.0000
  C   C1218     1.0  0.36529  0.85452  0.06540  1.0000
  C   C1219     1.0  0.32027  0.84264  0.04958  1.0000
  C   C1220     1.0  0.37795  0.81738  0.02769  1.0000
  C   C1221     1.0  0.34919  0.80463  0.06261  1.0000
  H   H2069     1.0  0.35272  0.86568  0.04253  1.0000
  H   H2070     1.0  0.33856  0.85740  0.06286  1.0000
  H   H2071     1.0  0.34094  0.82790  0.03221  1.0000
  H   H2072     1.0  0.34024  0.85094  0.02672  1.0000
  H   H2073     1.0  0.37189  0.84613  0.02326  1.0000
  H   H2074     1.0  0.38309  0.83496  0.04090  1.0000
  H   H2075     1.0  0.36746  0.81783  0.06806  1.0000
  H   H2076     1.0  0.34451  0.82632  0.07585  1.0000
  H   H2077     1.0  0.36172  0.86765  0.06935  1.0000
  H   H2078     1.0  0.36455  0.84421  0.07793  1.0000
  H   H2079     1.0  0.37934  0.85317  0.05798  1.0000
  H   H2080     1.0  0.31582  0.85665  0.05144  1.0000
  H   H2081     1.0  0.31089  0.84052  0.04236  1.0000
  H   H2082     1.0  0.31882  0.83349  0.06282  1.0000
  H   H2083     1.0  0.36825  0.81567  0.02071  1.0000
  H   H2084     1.0  0.38098  0.80554  0.03837  1.0000
  H   H2085     1.0  0.39070  0.81798  0.01767  1.0000
  H   H2086     1.0  0.35786  0.79282  0.06947  1.0000
  H   H2087     1.0  0.35090  0.80282  0.04890  1.0000
  H   H2088     1.0  0.33529  0.80386  0.07002  1.0000
  H   H2089     1.0  0.33941  0.76706  0.21992  1.0000
  H   H2090     1.0  0.41550  0.87213  0.18502  1.0000
  C   C1222     1.0  0.45417  0.91392  0.11013  1.0000
  C   C1223     1.0  0.38053  0.84195  0.20519  1.0000
  H   H2091     1.0  0.12380  0.68558  0.07289  1.0000
  H   H2092     1.0  0.11896  0.67242  0.04121  1.0000
  H   H2093     1.0  0.08072  0.69020  0.01625  1.0000
  H   H2094     1.0  0.99414  0.89860  0.99341  1.0000
  H   H2095     1.0  0.14816  0.85817  0.99505  1.0000
  H   H2096     1.0  0.99409  0.90284  0.03097  1.0000
  H   H2097     1.0  0.40050  0.85923  0.17227  1.0000
  S   S364      1.0  0.39983  0.90055  0.98470  1.0000
  N   N84       1.0  0.21914  0.81358  0.11725  1.0000
  C   C1224     1.0  0.20830  0.80292  0.13312  1.0000
  C   C1225     1.0  0.20762  0.83195  0.11314  1.0000
  C   C1226     1.0  0.23570  0.81475  0.12274  1.0000
  C   C1227     1.0  0.22396  0.80389  0.10201  1.0000
  C   C1228     1.0  0.21837  0.78450  0.14167  1.0000
  C   C1229     1.0  0.19039  0.83271  0.10691  1.0000
  C   C1230     1.0  0.24678  0.82842  0.11056  1.0000
  C   C1231     1.0  0.23142  0.81402  0.08312  1.0000
  H   H2098     1.0  0.20253  0.81057  0.14402  1.0000
  H   H2099     1.0  0.19666  0.80026  0.12945  1.0000
  H   H2100     1.0  0.21497  0.84134  0.10276  1.0000
  H   H2101     1.0  0.20361  0.83818  0.12509  1.0000
  H   H2102     1.0  0.23211  0.81803  0.13627  1.0000
  H   H2103     1.0  0.24514  0.80160  0.12395  1.0000
  H   H2104     1.0  0.23414  0.79145  0.10473  1.0000
  H   H2105     1.0  0.21232  0.79892  0.10099  1.0000
  H   H2106     1.0  0.22886  0.78566  0.14808  1.0000
  H   H2107     1.0  0.20872  0.77763  0.15236  1.0000
  H   H2108     1.0  0.22440  0.77570  0.13195  1.0000
  H   H2109     1.0  0.18371  0.84691  0.10308  1.0000
  H   H2110     1.0  0.19323  0.82673  0.09499  1.0000
  H   H2111     1.0  0.18061  0.82619  0.11772  1.0000
  H   H2112     1.0  0.25155  0.82627  0.09675  1.0000
  H   H2113     1.0  0.25903  0.82672  0.11582  1.0000
  H   H2114     1.0  0.23951  0.84239  0.11071  1.0000
  H   H2115     1.0  0.24616  0.80937  0.07943  1.0000
  H   H2116     1.0  0.22849  0.82868  0.08121  1.0000
  H   H2117     1.0  0.22538  0.81111  0.07322  1.0000
  H   H2118     1.0  0.16025  0.81441  0.98304  1.0000
  N   N85       1.0  0.39679  0.83488  0.19211  1.0000
  H   H2119     1.0  0.42784  0.95738  0.04519  1.0000
  H   H2120     1.0  0.05860  0.80002  0.07918  1.0000
  C   C1232     1.0  0.40814  0.81860  0.20166  1.0000
  C   C1233     1.0  0.40479  0.81903  0.16535  1.0000
  C   C1234     1.0  0.10591  0.72496  0.01839  1.0000
  H   H2121     1.0  0.35214  0.95270  0.06515  1.0000
  H   H2122     1.0  0.19622  0.83026  0.01767  1.0000
  H   H2123     1.0  0.29396  0.79979  0.99620  1.0000
  H   H2124     1.0  0.04248  0.78858  0.09404  1.0000
  H   H2125     1.0  0.46680  0.96403  0.18260  1.0000
  C   C1235     1.0  0.41082  0.81921  0.22011  1.0000
  H   H2126     1.0  0.42082  0.80719  0.22454  1.0000
  C   C1236     1.0  0.12858  0.67975  0.06077  1.0000
  H   H2127     1.0  0.42174  0.81543  0.19321  1.0000
  H   H2128     1.0  0.36186  0.73828  0.22109  1.0000
  H   H2129     1.0  0.10407  0.68712  0.01448  1.0000
  H   H2130     1.0  0.33197  0.78129  0.99305  1.0000
  C   C1237     1.0  0.25805  0.65687  0.13791  1.0000
  C   C1238     1.0  0.39328  0.88456  0.07857  1.0000
  H   H2131     1.0  0.45467  0.89443  0.08805  1.0000
  C   C1239     1.0  0.99658  0.89417  0.00718  1.0000
  H   H2132     1.0  0.01421  0.79031  0.10038  1.0000
  H   H2133     1.0  0.00059  0.74562  0.06365  1.0000
  H   H2134     1.0  0.41891  0.91477  0.07650  1.0000
  C   C1240     1.0  0.09578  0.70932  0.05935  1.0000
  N   N86       1.0  0.44229  0.91955  0.09666  1.0000
  H   H2135     1.0  0.00128  0.81919  0.10694  1.0000
  C   C1241     1.0  0.42361  0.92844  0.10457  1.0000
  C   C1242     1.0  0.44117  0.90315  0.09096  1.0000
  Fe  Fe182     1.0  0.01508  0.65375  0.04339  1.0000
  H   H2136     1.0  0.45704  0.92576  0.11308  1.0000
  C   C1243     1.0  0.42225  0.94425  0.11327  1.0000
  C   C1244     1.0  0.43265  0.90659  0.07457  1.0000
  H   H2137     1.0  0.15838  0.80520  0.00612  1.0000
  H   H2138     1.0  0.44097  0.93854  0.07150  1.0000
  C   C1245     1.0  0.19054  0.80776  0.00951  1.0000
  H   H2139     1.0  0.41647  0.91861  0.11477  1.0000
  H   H2140     1.0  0.41538  0.93381  0.09415  1.0000
  H   H2141     1.0  0.32226  0.75663  0.21988  1.0000
  H   H2142     1.0  0.43319  0.89470  0.10201  1.0000
  H   H2143     1.0  0.99758  0.86894  0.16669  1.0000
  H   H2144     1.0  0.05802  0.77829  0.07662  1.0000
  H   H2145     1.0  0.14226  0.83689  0.99995  1.0000
  H   H2146     1.0  0.30734  0.77909  0.05896  1.0000
  Fe  Fe183     1.0  0.47465  0.97380  0.07291  1.0000
  H   H2147     1.0  0.42726  0.95559  0.10346  1.0000
  H   H2148     1.0  0.40793  0.94932  0.11887  1.0000
  H   H2149     1.0  0.42925  0.94032  0.12458  1.0000
  H   H2150     1.0  0.44093  0.91296  0.06214  1.0000
  S   S365      1.0  0.00537  0.68230  0.04664  1.0000
  H   H2151     1.0  0.28132  0.79859  0.01898  1.0000
  H   H2152     1.0  0.43450  0.90929  0.13558  1.0000
  C   C1246     1.0  0.45015  0.93271  0.08103  1.0000
  C   C1247     1.0  0.36762  0.85857  0.19733  1.0000
  H   H2153     1.0  0.32816  0.90760  0.10245  1.0000
  H   H2154     1.0  0.37835  0.84309  0.99278  1.0000
  C   C1248     1.0  0.33826  0.90004  0.11060  1.0000
  C   C1249     1.0  0.46240  0.95995  0.11705  1.0000
  S   S366      1.0  0.43114  0.88959  0.22077  1.0000
  H   H2155     1.0  0.19899  0.79489  0.00645  1.0000
  H   H2156     1.0  0.17910  0.84599  0.99508  1.0000
  H   H2157     1.0  0.43881  0.91609  0.00389  1.0000
  H   H2158     1.0  0.38403  0.90161  0.10785  1.0000
  H   H2159     1.0  0.40446  0.86104  0.20545  1.0000
  H   H2160     1.0  0.36862  0.96486  0.21787  1.0000
  H   H2161     1.0  0.19852  0.66831  0.16571  1.0000
  C   C1250     1.0  0.44855  0.93596  0.01096  1.0000
  C   C1251     1.0  0.35422  0.92535  0.08037  1.0000
  C   C1252     1.0  0.44562  0.94759  0.02262  1.0000
  H   H2162     1.0  0.16630  0.78262  0.98759  1.0000
  C   C1253     1.0  0.34880  0.73986  0.21746  1.0000
  C   C1254     1.0  0.35680  0.89467  0.09875  1.0000
  H   H2163     1.0  0.04463  0.79586  0.05373  1.0000
  H   H2164     1.0  0.16625  0.83436  0.01428  1.0000
  H   H2165     1.0  0.99068  0.88235  0.01444  1.0000
  H   H2166     1.0  0.21509  0.81869  0.00337  1.0000
  N   N87       1.0  0.31832  0.78153  0.02076  1.0000
  C   C1255     1.0  0.29194  0.80447  0.00876  1.0000
  C   C1256     1.0  0.09145  0.68533  0.02415  1.0000
  H   H2167     1.0  0.46026  0.93552  0.00022  1.0000
  C   C1257     1.0  0.33413  0.78073  0.02856  1.0000
  C   C1258     1.0  0.20615  0.66483  0.09431  1.0000
  H   H2168     1.0  0.18717  0.66022  0.11913  1.0000
  H   H2169     1.0  0.37389  0.81748  0.98344  1.0000
  H   H2170     1.0  0.42580  0.95783  0.22256  1.0000
  H   H2171     1.0  0.45708  0.89854  0.13666  1.0000
  C   C1259     1.0  0.17052  0.83582  0.99948  1.0000
  H   H2172     1.0  0.31207  0.77343  0.99942  1.0000
  H   H2173     1.0  0.35107  0.74391  0.20265  1.0000
  H   H2174     1.0  0.11633  0.73130  0.00826  1.0000
  H   H2175     1.0  0.13897  0.68651  0.05121  1.0000
  H   H2176     1.0  0.35637  0.77849  0.00499  1.0000
  C   C1260     1.0  0.01510  0.80746  0.03821  1.0000
  H   H2177     1.0  0.09799  0.73498  0.02645  1.0000
  H   H2178     1.0  0.07209  0.69820  0.07533  1.0000
  H   H2179     1.0  0.28854  0.76969  0.06107  1.0000
  C   C1261     1.0  0.00812  0.80951  0.05784  1.0000
  H   H2180     1.0  0.26227  0.66088  0.14846  1.0000
  C   C1262     1.0  0.29712  0.77876  0.05178  1.0000
  N   N88       1.0  0.01844  0.79671  0.07126  1.0000
  C   C1263     1.0  0.41404  0.85859  0.19300  1.0000
  C   C1264     1.0  0.41926  0.97151  0.21654  1.0000
  C   C1265     1.0  0.01851  0.77796  0.06998  1.0000
  Fe  Fe184     1.0  0.01911  0.67339  0.06985  1.0000
  C   C1266     1.0  0.22681  0.66241  0.15330  1.0000
  H   H2181     1.0  0.37364  0.93212  0.11801  1.0000
  C   C1267     1.0  0.02273  0.76278  0.08595  1.0000
  C   C1268     1.0  0.11307  0.68006  0.05209  1.0000
  C   C1269     1.0  0.20312  0.81714  0.01422  1.0000
  H   H2182     1.0  0.34766  0.92130  0.07156  1.0000
  N   N89       1.0  0.18097  0.81818  0.99460  1.0000
  C   C1270     1.0  0.36395  0.82981  0.98250  1.0000
  H   H2183     1.0  0.41587  0.83102  0.21999  1.0000
  H   H2184     1.0  0.02830  0.77425  0.05794  1.0000
  H   H2185     1.0  0.34291  0.75007  0.01689  1.0000
  C   C1271     1.0  0.35046  0.78691  0.01513  1.0000
  H   H2186     1.0  0.36504  0.88415  0.10738  1.0000
  H   H2187     1.0  0.38277  0.84068  0.17027  1.0000
  H   H2188     1.0  0.34469  0.72679  0.22114  1.0000
  H   H2189     1.0  0.47193  0.93573  0.13487  1.0000
  H   H2190     1.0  0.36112  0.78573  0.02244  1.0000
  C   C1272     1.0  0.08704  0.69593  0.03915  1.0000
  H   H2191     1.0  0.02387  0.74978  0.08242  1.0000
  H   H2192     1.0  0.01172  0.76355  0.09790  1.0000
  H   H2193     1.0  0.03560  0.76231  0.08930  1.0000
  H   H2194     1.0  0.02878  0.81025  0.03285  1.0000
  Fe  Fe185     1.0  0.05170  0.65099  0.04983  1.0000
  S   S367      1.0  0.04092  0.65849  0.02472  1.0000
  S   S368      1.0  0.43434  0.87393  0.00116  1.0000
  C   C1273     1.0  0.37587  0.77874  0.21724  1.0000
  C   C1274     1.0  0.36286  0.94121  0.06912  1.0000
  H   H2195     1.0  0.43174  0.89360  0.07230  1.0000
  S   S369      1.0  0.35732  0.87890  0.99288  1.0000
  H   H2196     1.0  0.08700  0.72215  0.05441  1.0000
  H   H2197     1.0  0.33349  0.88770  0.11842  1.0000
  H   H2198     1.0  0.41414  0.82752  0.15657  1.0000
  C   C1275     1.0  0.46883  0.92552  0.07038  1.0000
  H   H2199     1.0  0.42728  0.85132  0.19610  1.0000
  H   H2200     1.0  0.35434  0.88777  0.08927  1.0000
  C   C1276     1.0  0.43038  0.94819  0.03639  1.0000
  H   H2201     1.0  0.40621  0.93807  0.04877  1.0000
  S   S370      1.0  0.04558  0.67894  0.05378  1.0000
  H   H2202     1.0  0.44490  0.95923  0.18906  1.0000
  C   C1277     1.0  0.44700  0.90215  0.12810  1.0000
  H   H2203     1.0  0.23100  0.66803  0.16277  1.0000
  H   H2204     1.0  0.20812  0.80861  0.02620  1.0000
  C   C1278     1.0  0.15299  0.84438  0.99255  1.0000
  H   H2205     1.0  0.18061  0.80427  0.02197  1.0000
  C   C1279     1.0  0.45244  0.96986  0.18720  1.0000
  C   C1280     1.0  0.35319  0.80572  0.21297  1.0000
  H   H2206     1.0  0.45512  0.96389  0.21444  1.0000
  C   C1281     1.0  0.17704  0.78877  0.98873  1.0000
  C   C1282     1.0  0.35396  0.86043  0.98653  1.0000
  H   H2207     1.0  0.07713  0.65989  0.10090  1.0000
  H   H2208     1.0  0.37445  0.86991  0.19085  1.0000
  H   H2209     1.0  0.20380  0.82953  0.97877  1.0000
  H   H2210     1.0  0.47221  0.93585  0.05826  1.0000
  H   H2211     1.0  0.00627  0.81749  0.02987  1.0000
  H   H2212     1.0  0.26891  0.67652  0.11558  1.0000
  H   H2213     1.0  0.02142  0.82140  0.09071  1.0000
  S   S371      1.0  0.44793  0.98122  0.06500  1.0000
  C   C1283     1.0  0.00785  0.81868  0.09281  1.0000
  C   C1284     1.0  0.45012  0.97597  0.20481  1.0000
  C   C1285     1.0  0.36555  0.79428  0.22291  1.0000
  H   H2214     1.0  0.38414  0.84548  0.21627  1.0000
  H   H2215     1.0  0.01481  0.79413  0.03634  1.0000
  H   H2216     1.0  0.37265  0.83137  0.21191  1.0000
  S   S372      1.0  0.35028  0.93587  0.22211  1.0000
  H   H2217     1.0  0.99374  0.80842  0.06154  1.0000
  S   S373      1.0  0.11319  0.65192  0.10577  1.0000
  H   H2218     1.0  0.06347  0.65265  0.07953  1.0000
  C   C1286     1.0  0.33434  0.75451  0.22556  1.0000
  H   H2219     1.0  0.32868  0.87413  0.97924  1.0000
  C   C1287     1.0  0.20899  0.65637  0.16297  1.0000
  C   C1288     1.0  0.44960  0.97593  0.11549  1.0000
  H   H2220     1.0  0.99971  0.82956  0.08449  1.0000
  H   H2221     1.0  0.44846  0.98106  0.17632  1.0000
  C   C1289     1.0  0.43614  0.97969  0.13036  1.0000
  H   H2222     1.0  0.00621  0.75229  0.03490  1.0000
  S   S374      1.0  0.99181  0.86546  0.05340  1.0000
  H   H2223     1.0  0.99442  0.79841  0.09201  1.0000
  C   C1290     1.0  0.36657  0.84438  0.98774  1.0000
  S   S375      1.0  0.40836  0.85737  0.98555  1.0000
  Fe  Fe186     1.0  0.46406  0.97719  0.03791  1.0000
  C   C1291     1.0  0.35570  0.96747  0.22665  1.0000
  H   H2224     1.0  0.15447  0.84530  0.97809  1.0000
  H   H2225     1.0  0.20405  0.65000  0.15475  1.0000
  C   C1292     1.0  0.99121  0.73679  0.07138  1.0000
  H   H2226     1.0  0.00018  0.72030  0.04419  1.0000
  S   S376      1.0  0.46390  0.96359  0.37977  1.0000
  S   S377      1.0  0.34030  0.68175  0.26827  1.0000
  Fe  Fe187     1.0  0.46192  0.90130  0.29531  1.0000
  S   S378      1.0  0.43548  0.89852  0.31318  1.0000
  S   S379      1.0  0.45976  0.92248  0.27020  1.0000
  H   H2227     1.0  0.39257  0.88611  0.25812  1.0000
  S   S380      1.0  0.45601  0.86288  0.33717  1.0000
  H   H2228     1.0  0.35402  0.94691  0.26509  1.0000
  Fe  Fe188     1.0  0.44440  0.86942  0.31242  1.0000
  S   S381      1.0  0.42555  0.86105  0.30037  1.0000
  Fe  Fe189     1.0  0.44970  0.89262  0.33568  1.0000
  S   S382      1.0  0.43559  0.90494  0.35951  1.0000
  S   S383      1.0  0.47070  0.87240  0.29385  1.0000
  S   S384      1.0  0.47568  0.89813  0.31791  1.0000
  Fe  Fe190     1.0  0.39771  0.77759  0.29469  1.0000
  S   S385      1.0  0.40833  0.78763  0.26565  1.0000
  S   S386      1.0  0.40215  0.78669  0.31773  1.0000
  Fe  Fe191     1.0  0.38777  0.74524  0.28764  1.0000
  S   S387      1.0  0.39836  0.75214  0.25800  1.0000
  S   S388      1.0  0.37723  0.72090  0.30446  1.0000
  Fe  Fe192     1.0  0.42121  0.75896  0.26529  1.0000
  S   S389      1.0  0.45090  0.75110  0.25539  1.0000
  Fe  Fe193     1.0  0.38450  0.78023  0.26089  1.0000
  H   H2229     1.0  0.46135  0.79533  0.25862  1.0000
  S   S390      1.0  0.41187  0.74931  0.29446  1.0000
  S   S391      1.0  0.37243  0.77291  0.29026  1.0000
  H   H2230     1.0  0.35682  0.74026  0.24949  1.0000
  C   C1293     1.0  0.45964  0.76742  0.29611  1.0000
  H   H2231     1.0  0.36824  0.92373  0.25251  1.0000
  H   H2232     1.0  0.37161  0.92906  0.29790  1.0000
  H   H2233     1.0  0.07057  0.93468  0.31535  1.0000
  H   H2234     1.0  0.36192  0.90562  0.26930  1.0000
  C   C1294     1.0  0.43806  0.89115  0.25217  1.0000
  H   H2235     1.0  0.33849  0.68127  0.30533  1.0000
  H   H2236     1.0  0.40303  0.89333  0.27868  1.0000
  C   C1295     1.0  0.40528  0.93479  0.27434  1.0000
  H   H2237     1.0  0.35136  0.76378  0.24511  1.0000
  C   C1296     1.0  0.46149  0.75467  0.27077  1.0000
  C   C1297     1.0  0.39604  0.92738  0.26363  1.0000
  H   H2238     1.0  0.49021  0.88401  0.38720  1.0000
  H   H2239     1.0  0.47441  0.95798  0.29530  1.0000
  H   H2240     1.0  0.47923  0.79250  0.37795  1.0000
  H   H2241     1.0  0.35564  0.92122  0.29172  1.0000
  H   H2242     1.0  0.33820  0.73894  0.28088  1.0000
  H   H2243     1.0  0.41766  0.95396  0.33306  1.0000
  C   C1298     1.0  0.41873  0.84048  0.30611  1.0000
  C   C1299     1.0  0.40911  0.83716  0.29510  1.0000
  C   C1300     1.0  0.40430  0.82055  0.29838  1.0000
  C   C1301     1.0  0.40873  0.80731  0.31297  1.0000
  C   C1302     1.0  0.41813  0.81069  0.32417  1.0000
  C   C1303     1.0  0.42327  0.82722  0.32067  1.0000
  H   H2244     1.0  0.40547  0.84742  0.28388  1.0000
  H   H2245     1.0  0.39687  0.81810  0.28983  1.0000
  H   H2246     1.0  0.42147  0.80048  0.33554  1.0000
  H   H2247     1.0  0.43057  0.82977  0.32926  1.0000
  C   C1304     1.0  0.45087  0.91418  0.25643  1.0000
  C   C1305     1.0  0.44413  0.89853  0.26319  1.0000
  H   H2248     1.0  0.47136  0.80252  0.33158  1.0000
  H   H2249     1.0  0.41632  0.94443  0.30689  1.0000
  H   H2250     1.0  0.06930  0.97244  0.30990  1.0000
  C   C1306     1.0  0.48719  0.74812  0.28475  1.0000
  H   H2251     1.0  0.44341  0.89204  0.27700  1.0000
  H   H2252     1.0  0.40697  0.74807  0.33736  1.0000
  H   H2253     1.0  0.47371  0.80003  0.30065  1.0000
  N   N90       1.0  0.32964  0.75135  0.24567  1.0000
  C   C1307     1.0  0.35162  0.69135  0.27852  1.0000
  C   C1308     1.0  0.36372  0.70202  0.26788  1.0000
  C   C1309     1.0  0.37176  0.71108  0.27572  1.0000
  C   C1310     1.0  0.36759  0.70959  0.29422  1.0000
  C   C1311     1.0  0.35586  0.69855  0.30490  1.0000
  C   C1312     1.0  0.34792  0.68938  0.29707  1.0000
  H   H2254     1.0  0.36679  0.70337  0.25351  1.0000
  H   H2255     1.0  0.38110  0.71927  0.26745  1.0000
  H   H2256     1.0  0.35258  0.69743  0.31923  1.0000
  C   C1313     1.0  0.34408  0.95563  0.23037  1.0000
  C   C1314     1.0  0.45637  0.94705  0.37420  1.0000
  C   C1315     1.0  0.43988  0.94266  0.38327  1.0000
  C   C1316     1.0  0.43377  0.92966  0.37865  1.0000
  C   C1317     1.0  0.44404  0.92097  0.36489  1.0000
  C   C1318     1.0  0.46065  0.92523  0.35586  1.0000
  C   C1319     1.0  0.46685  0.93820  0.36058  1.0000
  H   H2257     1.0  0.43186  0.94912  0.39405  1.0000
  H   H2258     1.0  0.42096  0.92637  0.38576  1.0000
  H   H2259     1.0  0.46874  0.91848  0.34536  1.0000
  C   C1320     1.0  0.02575  0.97387  0.33247  1.0000
  H   H2260     1.0  0.07216  0.98047  0.35372  1.0000
  H   H2261     1.0  0.39088  0.93840  0.25310  1.0000
  S   S392      1.0  0.36746  0.79977  0.24243  1.0000
  H   H2262     1.0  0.39597  0.94004  0.28574  1.0000
  H   H2263     1.0  0.41573  0.71899  0.35130  1.0000
  H   H2264     1.0  0.47962  0.94159  0.35351  1.0000
  H   H2265     1.0  0.45152  0.69990  0.36210  1.0000
  C   C1321     1.0  0.05056  0.94797  0.33543  1.0000
  H   H2266     1.0  0.43483  0.96222  0.24471  1.0000
  C   C1322     1.0  0.45074  0.70214  0.34785  1.0000
  H   H2267     1.0  0.47608  0.94383  0.31711  1.0000
  H   H2268     1.0  0.42144  0.68172  0.28889  1.0000
  H   H2269     1.0  0.47119  0.92687  0.41041  1.0000
  H   H2270     1.0  0.45367  0.74604  0.33296  1.0000
  H   H2271     1.0  0.46025  0.70216  0.31134  1.0000
  C   C1323     1.0  0.34275  0.75115  0.27252  1.0000
  C   C1324     1.0  0.04893  0.97119  0.29716  1.0000
  H   H2272     1.0  0.07406  0.92652  0.33743  1.0000
  H   H2273     1.0  0.34839  0.95347  0.28607  1.0000
  H   H2274     1.0  0.48692  0.73804  0.26191  1.0000
  H   H2275     1.0  0.47024  0.72646  0.33537  1.0000
  C   C1325     1.0  0.47867  0.77289  0.36383  1.0000
  C   C1326     1.0  0.30948  0.72976  0.24680  1.0000
  H   H2276     1.0  0.34910  0.95868  0.44617  1.0000
  H   H2277     1.0  0.43315  0.87887  0.25755  1.0000
  C   C1327     1.0  0.35960  0.94702  0.27653  1.0000
  H   H2278     1.0  0.43242  0.66632  0.30621  1.0000
  H   H2279     1.0  0.37833  0.89536  0.24239  1.0000
  C   C1328     1.0  0.48252  0.81509  0.34752  1.0000
  H   H2280     1.0  0.30251  0.76616  0.24519  1.0000
  C   C1329     1.0  0.42047  0.67676  0.30348  1.0000
  Fe  Fe194     1.0  0.33358  0.65509  0.28317  1.0000
  N   N91       1.0  0.44332  0.72152  0.34079  1.0000
  C   C1330     1.0  0.47131  0.84437  0.26120  1.0000
  C   C1331     1.0  0.06997  0.93901  0.32781  1.0000
  H   H2281     1.0  0.30889  0.76279  0.26589  1.0000
  H   H2282     1.0  0.46196  0.85282  0.27044  1.0000
  H   H2283     1.0  0.39584  0.90479  0.29639  1.0000
  H   H2284     1.0  0.07613  0.95856  0.34970  1.0000
  Fe  Fe195     1.0  0.48158  0.86870  0.31835  1.0000
  H   H2285     1.0  0.48396  0.83965  0.26626  1.0000
  H   H2286     1.0  0.44376  0.97471  0.28560  1.0000
  H   H2287     1.0  0.42077  0.68832  0.30885  1.0000
  H   H2288     1.0  0.33636  0.72238  0.25144  1.0000
  H   H2289     1.0  0.44387  0.74270  0.36606  1.0000
  N   N92       1.0  0.38196  0.91695  0.27451  1.0000
  C   C1332     1.0  0.46039  0.81830  0.28015  1.0000
  H   H2290     1.0  0.29652  0.73892  0.25042  1.0000
  H   H2291     1.0  0.41626  0.92441  0.27945  1.0000
  H   H2292     1.0  0.40707  0.91884  0.25581  1.0000
  H   H2293     1.0  0.36683  0.89349  0.30599  1.0000
  C   C1333     1.0  0.45178  0.76535  0.28306  1.0000
  C   C1334     1.0  0.32713  0.95930  0.24129  1.0000
  C   C1335     1.0  0.40277  0.67040  0.31270  1.0000
  H   H2294     1.0  0.04176  0.94237  0.33026  1.0000
  C   C1336     1.0  0.37882  0.88730  0.29709  1.0000
  H   H2295     1.0  0.41062  0.97661  0.32385  1.0000
  H   H2296     1.0  0.46728  0.74197  0.35863  1.0000
  N   N93       1.0  0.04581  0.96814  0.33102  1.0000
  H   H2297     1.0  0.32008  0.73152  0.26838  1.0000
  H   H2298     1.0  0.38656  0.87638  0.30580  1.0000
  C   C1337     1.0  0.43812  0.89968  0.23437  1.0000
  C   C1338     1.0  0.07072  0.97279  0.34439  1.0000
  C   C1339     1.0  0.44125  0.72465  0.32178  1.0000
  H   H2299     1.0  0.39679  0.96130  0.31132  1.0000
  C   C1340     1.0  0.39046  0.97814  0.46877  1.0000
  C   C1341     1.0  0.34613  0.97306  0.44470  1.0000
  C   C1342     1.0  0.37369  0.91171  0.26195  1.0000
  H   H2300     1.0  0.45987  0.72158  0.36919  1.0000
  C   C1343     1.0  0.45626  0.73239  0.34135  1.0000
  H   H2301     1.0  0.44590  0.94495  0.29902  1.0000
  H   H2302     1.0  0.41088  0.94632  0.26557  1.0000
  H   H2303     1.0  0.36966  0.95564  0.27198  1.0000
  H   H2304     1.0  0.45959  0.96862  0.32640  1.0000
  H   H2305     1.0  0.43830  0.68965  0.33325  1.0000
  H   H2306     1.0  0.48216  0.82001  0.29201  1.0000
  H   H2307     1.0  0.43790  0.73924  0.31618  1.0000
  C   C1344     1.0  0.43477  0.82338  0.25483  1.0000
  H   H2308     1.0  0.99986  0.97195  0.35017  1.0000
  C   C1345     1.0  0.44019  0.68857  0.34690  1.0000
  H   H2309     1.0  0.47271  0.76492  0.37673  1.0000
  C   C1346     1.0  0.31395  0.76574  0.25116  1.0000
  H   H2310     1.0  0.40184  0.66857  0.32725  1.0000
  H   H2311     1.0  0.02113  0.96758  0.32387  1.0000
  C   C1347     1.0  0.47620  0.81797  0.24822  1.0000
  N   N94       1.0  0.40041  0.65396  0.30798  1.0000
  C   C1348     1.0  0.47023  0.94628  0.30515  1.0000
  C   C1349     1.0  0.41163  0.95889  0.30701  1.0000
  S   S393      1.0  0.42824  0.98050  0.42153  1.0000
  H   H2312     1.0  0.45215  0.97336  0.24401  1.0000
  C   C1350     1.0  0.39081  0.90075  0.28642  1.0000
  H   H2313     1.0  0.45540  0.81111  0.34971  1.0000
  H   H2314     1.0  0.08021  0.94705  0.32545  1.0000
  C   C1351     1.0  0.48866  0.78541  0.36766  1.0000
  H   H2315     1.0  0.48522  0.78891  0.25696  1.0000
  H   H2316     1.0  0.48628  0.84976  0.23318  1.0000
  H   H2317     1.0  0.40717  0.75142  0.35903  1.0000
  C   C1352     1.0  0.38628  0.89883  0.25025  1.0000
  H   H2318     1.0  0.45525  0.72170  0.29491  1.0000
  S   S394      1.0  0.48592  0.76054  0.31464  1.0000
  H   H2319     1.0  0.42701  0.68969  0.35629  1.0000
  C   C1353     1.0  0.38214  0.64984  0.31734  1.0000
  C   C1354     1.0  0.41950  0.96416  0.32038  1.0000
  H   H2320     1.0  0.43195  0.81375  0.26759  1.0000
  H   H2321     1.0  0.37475  0.88093  0.28825  1.0000
  C   C1355     1.0  0.45779  0.71690  0.30869  1.0000
  H   H2322     1.0  0.39285  0.96628  0.22993  1.0000
  N   N95       1.0  0.43887  0.96586  0.31430  1.0000
  H   H2323     1.0  0.30751  0.71596  0.25332  1.0000
  N   N96       1.0  0.46348  0.82882  0.26118  1.0000
  H   H2324     1.0  0.48644  0.88587  0.41729  1.0000
  H   H2325     1.0  0.44735  0.84528  0.24207  1.0000
  C   C1356     1.0  0.47017  0.91260  0.41452  1.0000
  C   C1357     1.0  0.34576  0.75174  0.25234  1.0000
  C   C1358     1.0  0.05072  0.97599  0.34413  1.0000
  H   H2326     1.0  0.42151  0.83103  0.25204  1.0000
  H   H2327     1.0  0.42546  0.72370  0.36659  1.0000
  H   H2328     1.0  0.42975  0.71933  0.32104  1.0000
  H   H2329     1.0  0.46431  0.86413  0.23710  1.0000
  C   C1359     1.0  0.36725  0.92795  0.28601  1.0000
  C   C1360     1.0  0.47433  0.79839  0.25081  1.0000
  H   H2330     1.0  0.46480  0.69813  0.34079  1.0000
  H   H2331     1.0  0.43813  0.77209  0.28259  1.0000
  H   H2332     1.0  0.03546  0.97905  0.29532  1.0000
  H   H2333     1.0  0.39588  0.97227  0.45666  1.0000
  H   H2334     1.0  0.45336  0.80737  0.28184  1.0000
  H   H2335     1.0  0.43691  0.84549  0.26474  1.0000
  H   H2336     1.0  0.41482  0.96683  0.29329  1.0000
  H   H2337     1.0  0.45130  0.82701  0.28914  1.0000
  H   H2338     1.0  0.47000  0.72121  0.30890  1.0000
  H   H2339     1.0  0.35573  0.75086  0.27571  1.0000
  H   H2340     1.0  0.04904  0.95675  0.29949  1.0000
  H   H2341     1.0  0.44130  0.81627  0.24372  1.0000
  H   H2342     1.0  0.04783  0.94296  0.35017  1.0000
  H   H2343     1.0  0.30843  0.97760  0.25656  1.0000
  H   H2344     1.0  0.39169  0.68179  0.30948  1.0000
  C   C1361     1.0  0.42513  0.72696  0.35212  1.0000
  C   C1362     1.0  0.32457  0.73340  0.25362  1.0000
  H   H2345     1.0  0.44230  0.95842  0.34154  1.0000
  C   C1363     1.0  0.40080  0.97637  0.22872  1.0000
  H   H2346     1.0  0.31913  0.97405  0.45999  1.0000
  H   H2347     1.0  0.44790  0.67483  0.35100  1.0000
  H   H2348     1.0  0.48826  0.80258  0.27921  1.0000
  C   C1364     1.0  0.41563  0.74666  0.34692  1.0000
  H   H2349     1.0  0.47981  0.90660  0.38132  1.0000
  S   S395      1.0  0.38060  0.97139  0.42637  1.0000
  C   C1365     1.0  0.44494  0.96910  0.32955  1.0000
  H   H2350     1.0  0.33335  0.76316  0.27656  1.0000
  H   H2351     1.0  0.42492  0.75597  0.34080  1.0000
  C   C1366     1.0  0.47935  0.74629  0.27141  1.0000
  C   C1367     1.0  0.46755  0.81322  0.33923  1.0000
  H   H2352     1.0  0.04419  0.97080  0.35810  1.0000
  C   C1368     1.0  0.45662  0.73459  0.36003  1.0000
  H   H2353     1.0  0.39675  0.90524  0.24045  1.0000
  C   C1369     1.0  0.47721  0.75857  0.29719  1.0000
  H   H2354     1.0  0.45186  0.77557  0.30567  1.0000
  C   C1370     1.0  0.44218  0.98017  0.29769  1.0000
  C   C1371     1.0  0.47615  0.85691  0.24293  1.0000
  H   H2355     1.0  0.46761  0.78008  0.35689  1.0000
  H   H2356     1.0  0.47502  0.82477  0.23425  1.0000
  H   H2357     1.0  0.44672  0.93696  0.32198  1.0000
  H   H2358     1.0  0.46171  0.90986  0.40673  1.0000
  H   H2359     1.0  0.46390  0.82567  0.32940  1.0000
  C   C1372     1.0  0.44567  0.83663  0.25564  1.0000
  H   H2360     1.0  0.15588  0.94232  0.47717  1.0000
  C   C1373     1.0  0.44967  0.94803  0.31034  1.0000
  H   H2361     1.0  0.05837  0.97481  0.28435  1.0000
  C   C1374     1.0  0.45051  0.92304  0.23870  1.0000
  C   C1375     1.0  0.47727  0.80987  0.28817  1.0000
  H   H2362     1.0  0.47558  0.82057  0.35968  1.0000
  H   H2363     1.0  0.01777  0.95534  0.35797  1.0000
  C   C1376     1.0  0.05451  0.97607  0.31230  1.0000
  H   H2364     1.0  0.36971  0.66939  0.33460  1.0000
  C   C1377     1.0  0.01406  0.96951  0.35132  1.0000
  H   H2365     1.0  0.39161  0.67059  0.28413  1.0000
  H   H2366     1.0  0.46281  0.91053  0.42865  1.0000
  H   H2367     1.0  0.45583  0.93505  0.23337  1.0000
  C   C1378     1.0  0.48872  0.89982  0.41324  1.0000
  H   H2368     1.0  0.43001  0.97872  0.25760  1.0000
  H   H2369     1.0  0.48095  0.67614  0.31640  1.0000
  H   H2370     1.0  0.48873  0.82618  0.33861  1.0000
  C   C1379     1.0  0.32920  0.98174  0.45251  1.0000
  C   C1380     1.0  0.48744  0.66864  0.32728  1.0000
  H   H2371     1.0  0.07890  0.97776  0.33124  1.0000
  H   H2372     1.0  0.32113  0.78946  0.23108  1.0000
  C   C1381     1.0  0.40126  0.65797  0.28809  1.0000
  H   H2373     1.0  0.01450  0.97848  0.35985  1.0000
  H   H2374     1.0  0.37845  0.97266  0.47604  1.0000
  C   C1382     1.0  0.43757  0.97526  0.24460  1.0000
  H   H2375     1.0  0.48806  0.76316  0.35614  1.0000
  H   H2376     1.0  0.48211  0.86737  0.24490  1.0000
  H   H2377     1.0  0.47629  0.93458  0.29875  1.0000
  C   C1383     1.0  0.32168  0.97478  0.24834  1.0000
  H   H2378     1.0  0.47604  0.79516  0.23754  1.0000
  H   H2379     1.0  0.40192  0.97612  0.24245  1.0000
  H   H2380     1.0  0.31811  0.95021  0.24415  1.0000
  C   C1384     1.0  0.37389  0.65469  0.33584  1.0000
  H   H2381     1.0  0.16009  0.88340  0.47756  1.0000
  H   H2382     1.0  0.31287  0.73034  0.23221  1.0000
  H   H2383     1.0  0.32796  0.78652  0.25190  1.0000
  H   H2384     1.0  0.14961  0.91491  0.47543  1.0000
  H   H2385     1.0  0.40087  0.97322  0.47696  1.0000
  H   H2386     1.0  0.37193  0.65722  0.30916  1.0000
  H   H2387     1.0  0.41473  0.66017  0.28043  1.0000
  H   H2388     1.0  0.30497  0.79429  0.25050  1.0000
  H   H2389     1.0  0.39825  0.81858  0.23036  1.0000
  C   C1385     1.0  0.31745  0.78496  0.24577  1.0000
  C   C1386     1.0  0.48466  0.65137  0.33546  1.0000
  H   H2390     1.0  0.49029  0.81726  0.24896  1.0000
  H   H2391     1.0  0.38289  0.64935  0.34544  1.0000
  C   C1387     1.0  0.44391  0.91592  0.22771  1.0000
  C   C1388     1.0  0.14632  0.67142  0.52692  1.0000
  C   C1389     1.0  0.19182  0.94395  0.69191  1.0000
  H   H2392     1.0  0.11622  0.90739  0.48381  1.0000
  H   H2393     1.0  0.34585  0.77505  0.70182  1.0000
  C   C1390     1.0  0.00830  0.65417  0.59305  1.0000
  Fe  Fe196     1.0  0.07069  0.86697  0.56446  1.0000
  S   S396      1.0  0.08648  0.88053  0.53892  1.0000
  Fe  Fe197     1.0  0.09466  0.87186  0.58699  1.0000
  S   S397      1.0  0.11241  0.88543  0.56343  1.0000
  S   S398      1.0  0.10170  0.86519  0.61415  1.0000
  Fe  Fe198     1.0  0.08686  0.90040  0.55468  1.0000
  S   S399      1.0  0.08347  0.92977  0.54139  1.0000
  Fe  Fe199     1.0  0.11086  0.86476  0.54959  1.0000
  S   S400      1.0  0.13596  0.85328  0.53166  1.0000
  S   S401      1.0  0.06885  0.88824  0.57954  1.0000
  S   S402      1.0  0.09534  0.84971  0.57387  1.0000
  Fe  Fe200     1.0  0.17689  0.72845  0.61546  1.0000
  S   S403      1.0  0.15557  0.73735  0.63844  1.0000
  S   S404      1.0  0.19576  0.70157  0.61506  1.0000
  Fe  Fe201     1.0  0.17030  0.76460  0.59051  1.0000
  S   S405      1.0  0.14837  0.77642  0.61092  1.0000
  S   S406      1.0  0.18113  0.77826  0.56258  1.0000
  Fe  Fe202     1.0  0.16650  0.76269  0.63036  1.0000
  S   S407      1.0  0.17201  0.78106  0.64537  1.0000
  Fe  Fe203     1.0  0.13932  0.75039  0.61710  1.0000
  S   S408      1.0  0.11022  0.75099  0.61846  1.0000
  S   S409      1.0  0.18913  0.75259  0.60925  1.0000
  S   S410      1.0  0.15984  0.73981  0.59497  1.0000
  H   H2394     1.0  0.05291  0.80895  0.61736  1.0000
  C   C1391     1.0  0.11163  0.93428  0.55339  1.0000
  Fe  Fe204     1.0  0.17201  0.90200  0.65558  1.0000
  S   S411      1.0  0.14404  0.90651  0.67177  1.0000
  S   S412      1.0  0.18701  0.87385  0.65445  1.0000
  Fe  Fe205     1.0  0.17182  0.94192  0.64316  1.0000
  S   S413      1.0  0.14374  0.94975  0.65829  1.0000
  Fe  Fe206     1.0  0.15247  0.92751  0.68048  1.0000
  Fe  Fe207     1.0  0.13817  0.92804  0.64805  1.0000
  S   S414      1.0  0.11545  0.93262  0.63399  1.0000
  S   S415      1.0  0.18106  0.92129  0.66588  1.0000
  S   S416      1.0  0.16561  0.92200  0.63119  1.0000
  H   H2395     1.0  0.12131  0.83987  0.70968  1.0000
  S   S417      1.0  0.03365  0.69236  0.55571  1.0000
  Fe  Fe208     1.0  0.07201  0.69277  0.57794  1.0000
  S   S418      1.0  0.06439  0.71431  0.55487  1.0000
  S   S419      1.0  0.09715  0.68960  0.58798  1.0000
  Fe  Fe209     1.0  0.03614  0.71278  0.56939  1.0000
  S   S420      1.0  0.01355  0.73651  0.57176  1.0000
  Fe  Fe210     1.0  0.06258  0.69181  0.54351  1.0000
  S   S421      1.0  0.07299  0.69061  0.51468  1.0000
  S   S422      1.0  0.04382  0.69305  0.59366  1.0000
  H   H2396     1.0  0.13611  0.95573  0.48878  1.0000
  C   C1392     1.0  0.20278  0.84693  0.70805  1.0000
  C   C1393     1.0  0.20700  0.83728  0.69445  1.0000
  C   C1394     1.0  0.20280  0.84576  0.67767  1.0000
  C   C1395     1.0  0.19406  0.86375  0.67465  1.0000
  C   C1396     1.0  0.18984  0.87328  0.68830  1.0000
  C   C1397     1.0  0.19438  0.86496  0.70487  1.0000
  H   H2397     1.0  0.20602  0.83832  0.66716  1.0000
  H   H2398     1.0  0.18264  0.88695  0.68635  1.0000
  H   H2399     1.0  0.22257  0.72778  0.57918  1.0000
  C   C1398     1.0  0.17880  0.77343  0.66613  1.0000
  C   C1399     1.0  0.17381  0.75836  0.67825  1.0000
  C   C1400     1.0  0.17798  0.75364  0.69532  1.0000
  H   H2400     1.0  0.16631  0.75061  0.67464  1.0000
  H   H2401     1.0  0.17378  0.74214  0.70474  1.0000
  C   C1401     1.0  0.10664  0.73409  0.60969  1.0000
  C   C1402     1.0  0.09007  0.73563  0.60534  1.0000
  C   C1403     1.0  0.08703  0.72219  0.59843  1.0000
  C   C1404     1.0  0.10050  0.70705  0.59606  1.0000
  C   C1405     1.0  0.11705  0.70553  0.60042  1.0000
  C   C1406     1.0  0.12012  0.71900  0.60716  1.0000
  H   H2402     1.0  0.07955  0.74720  0.60734  1.0000
  H   H2403     1.0  0.07420  0.72342  0.59520  1.0000
  H   H2404     1.0  0.12748  0.69380  0.59878  1.0000
  H   H2405     1.0  0.13278  0.71747  0.61084  1.0000
  C   C1407     1.0  0.09919  0.94172  0.54235  1.0000
  C   C1408     1.0  0.10009  0.95845  0.53089  1.0000
  H   H2406     1.0  0.11073  0.92176  0.56272  1.0000
  H   H2407     1.0  0.04543  0.78140  0.49539  1.0000
  C   C1409     1.0  0.14790  0.83219  0.54054  1.0000
  C   C1410     1.0  0.16497  0.82574  0.53111  1.0000
  C   C1411     1.0  0.17502  0.80917  0.53799  1.0000
  C   C1412     1.0  0.16804  0.79889  0.55433  1.0000
  C   C1413     1.0  0.15090  0.80522  0.56373  1.0000
  C   C1414     1.0  0.14086  0.82189  0.55687  1.0000
  H   H2408     1.0  0.17050  0.83362  0.51848  1.0000
  H   H2409     1.0  0.18825  0.80433  0.53065  1.0000
  H   H2410     1.0  0.14528  0.79723  0.57616  1.0000
  H   H2411     1.0  0.12768  0.82664  0.56416  1.0000
  C   C1415     1.0  0.10563  0.88392  0.61960  1.0000
  C   C1416     1.0  0.10093  0.90107  0.60945  1.0000
  C   C1417     1.0  0.10401  0.91591  0.61397  1.0000
  C   C1418     1.0  0.11226  0.91367  0.62834  1.0000
  C   C1419     1.0  0.11735  0.89646  0.63824  1.0000
  C   C1420     1.0  0.11375  0.88165  0.63408  1.0000
  H   H2412     1.0  0.09462  0.90299  0.59830  1.0000
  H   H2413     1.0  0.10003  0.92918  0.60627  1.0000
  H   H2414     1.0  0.12362  0.89464  0.64939  1.0000
  H   H2415     1.0  0.11735  0.86845  0.64202  1.0000
  C   C1421     1.0  0.03647  0.86947  0.53731  1.0000
  H   H2416     1.0  0.04571  0.87815  0.53529  1.0000
  H   H2417     1.0  0.28888  0.71088  0.69592  1.0000
  C   C1422     1.0  0.00994  0.74883  0.55076  1.0000
  H   H2418     1.0  0.16707  0.97465  0.65729  1.0000
  C   C1423     1.0  0.06867  0.67184  0.50988  1.0000
  H   H2419     1.0  0.12665  0.69810  0.54636  1.0000
  C   C1424     1.0  0.12552  0.94289  0.55217  1.0000
  C   C1425     1.0  0.17623  0.68228  0.58276  1.0000
  C   C1426     1.0  0.17738  0.69164  0.59514  1.0000
  C   C1427     1.0  0.19375  0.68973  0.59989  1.0000
  C   C1428     1.0  0.02315  0.84446  0.55478  1.0000
  C   C1429     1.0  0.02106  0.74419  0.53504  1.0000
  H   H2420     1.0  0.16556  0.70030  0.60104  1.0000
  N   N97       1.0  0.24744  0.72873  0.70609  1.0000
  H   H2421     1.0  0.13213  0.96322  0.69381  1.0000
  H   H2422     1.0  0.22762  0.71270  0.72073  1.0000
  C   C1430     1.0  0.11389  0.96722  0.52981  1.0000
  N   N98       1.0  0.19257  0.96720  0.70938  1.0000
  H   H2423     1.0  0.12528  0.91036  0.53075  1.0000
  H   H2424     1.0  0.45904  0.69238  0.68584  1.0000
  H   H2425     1.0  0.00267  0.68609  0.53159  1.0000
  H   H2426     1.0  0.09345  0.77759  0.64360  1.0000
  C   C1431     1.0  0.99302  0.77408  0.53316  1.0000
  H   H2427     1.0  0.35954  0.73509  0.69840  1.0000
  C   C1432     1.0  0.02546  0.87233  0.52496  1.0000
  H   H2428     1.0  0.21943  0.65966  0.57458  1.0000
  H   H2429     1.0  0.36488  0.76462  0.72513  1.0000
  C   C1433     1.0  0.06289  0.80661  0.51684  1.0000
  C   C1434     1.0  0.14730  0.93074  0.50584  1.0000
  C   C1435     1.0  0.03422  0.81699  0.49611  1.0000
  H   H2430     1.0  0.22162  0.67696  0.59581  1.0000
  C   C1436     1.0  0.11577  0.66832  0.52831  1.0000
  H   H2431     1.0  0.21355  0.82337  0.69682  1.0000
  H   H2432     1.0  0.13915  0.93633  0.51759  1.0000
  C   C1437     1.0  0.36265  0.73837  0.71001  1.0000
  C   C1438     1.0  0.11027  0.91296  0.49602  1.0000
  H   H2433     1.0  0.11663  0.67597  0.51428  1.0000
  H   H2434     1.0  0.16620  0.90749  0.48847  1.0000
  H   H2435     1.0  0.33421  0.77843  0.72418  1.0000
  C   C1439     1.0  0.11714  0.70643  0.52178  1.0000
  C   C1440     1.0  0.00477  0.77019  0.51748  1.0000
  H   H2436     1.0  0.12945  0.70496  0.51125  1.0000
  C   C1441     1.0  0.16148  0.94926  0.58423  1.0000
  N   N99       1.0  0.04683  0.79791  0.52416  1.0000
  H   H2437     1.0  0.11235  0.78780  0.63184  1.0000
  H   H2438     1.0  0.19981  0.66657  0.64763  1.0000
  H   H2439     1.0  0.05875  0.85578  0.62408  1.0000
  C   C1442     1.0  0.15174  0.88760  0.48998  1.0000
  H   H2440     1.0  0.20012  0.65423  0.62407  1.0000
  H   H2441     1.0  0.12835  0.84501  0.68650  1.0000
  C   C1443     1.0  0.13240  0.96290  0.70747  1.0000
  H   H2442     1.0  0.02581  0.68518  0.52171  1.0000
  H   H2443     1.0  0.27697  0.70613  0.71887  1.0000
  H   H2444     1.0  0.17823  0.94990  0.68912  1.0000
  C   C1444     1.0  0.13966  0.94700  0.71814  1.0000
  H   H2445     1.0  0.22167  0.66674  0.63339  1.0000
  C   C1445     1.0  0.01342  0.86116  0.52731  1.0000
  H   H2446     1.0  0.19097  0.87243  0.71539  1.0000
  C   C1446     1.0  0.44830  0.65584  0.66483  1.0000
  S   S423      1.0  0.99967  0.86557  0.51153  1.0000
  H   H2447     1.0  0.09420  0.79965  0.57977  1.0000
  H   H2448     1.0  0.00323  0.83839  0.54421  1.0000
  C   C1447     1.0  0.99586  0.76370  0.54978  1.0000
  H   H2449     1.0  0.21218  0.72752  0.69982  1.0000
  H   H2450     1.0  0.04755  0.83450  0.51615  1.0000
  S   S424      1.0  0.07234  0.67029  0.56530  1.0000
  H   H2451     1.0  0.07315  0.79638  0.59378  1.0000
  H   H2452     1.0  0.14832  0.79578  0.71712  1.0000
  H   H2453     1.0  0.14623  0.87444  0.71032  1.0000
  C   C1448     1.0  0.16284  0.83270  0.66720  1.0000
  H   H2454     1.0  0.05233  0.77928  0.62878  1.0000
  C   C1449     1.0  0.08327  0.80485  0.59033  1.0000
  H   H2455     1.0  0.23070  0.71783  0.68379  1.0000
  C   C1450     1.0  0.48092  0.65069  0.66203  1.0000
  H   H2456     1.0  0.39098  0.72606  0.70376  1.0000
  C   C1451     1.0  0.03530  0.85556  0.55232  1.0000
  H   H2457     1.0  0.09042  0.96437  0.52241  1.0000
  C   C1452     1.0  0.18956  0.97879  0.63561  1.0000
  H   H2458     1.0  0.15441  0.90589  0.53684  1.0000
  H   H2459     1.0  0.37749  0.71051  0.71682  1.0000
  C   C1453     1.0  0.04204  0.79705  0.54409  1.0000
  H   H2460     1.0  0.07443  0.79842  0.52293  1.0000
  C   C1454     1.0  0.16317  0.96782  0.58574  1.0000
  C   C1455     1.0  0.03075  0.80815  0.51623  1.0000
  C   C1456     1.0  0.02661  0.78745  0.55478  1.0000
  N   N100      1.0  0.46318  0.65103  0.67510  1.0000
  H   H2461     1.0  0.10265  0.81085  0.60172  1.0000
  H   H2462     1.0  0.11195  0.97885  0.62889  1.0000
  H   H2463     1.0  0.05393  0.79042  0.55025  1.0000
  H   H2464     1.0  0.03791  0.81069  0.54698  1.0000
  C   C1457     1.0  0.13764  0.66497  0.56792  1.0000
  H   H2465     1.0  0.15536  0.68663  0.54231  1.0000
  H   H2466     1.0  0.06128  0.76191  0.50200  1.0000
  H   H2467     1.0  0.04077  0.77188  0.52771  1.0000
  H   H2468     1.0  0.02110  0.79933  0.51842  1.0000
  H   H2469     1.0  0.02340  0.81920  0.52329  1.0000
  H   H2470     1.0  0.02267  0.79005  0.56854  1.0000
  H   H2471     1.0  0.01448  0.79232  0.54890  1.0000
  H   H2472     1.0  0.03084  0.77273  0.55625  1.0000
  H   H2473     1.0  0.17761  0.82319  0.68852  1.0000
  H   H2474     1.0  0.16092  0.92520  0.50883  1.0000
  H   H2475     1.0  0.02750  0.75173  0.50624  1.0000
  H   H2476     1.0  0.16590  0.84623  0.66343  1.0000
  H   H2477     1.0  0.21840  0.66597  0.65686  1.0000
  H   H2478     1.0  0.01268  0.67707  0.51148  1.0000
  H   H2479     1.0  0.09761  0.78953  0.61041  1.0000
  H   H2480     1.0  0.07576  0.77593  0.62403  1.0000
  C   C1458     1.0  0.45839  0.68427  0.67655  1.0000
  S   S425      1.0  0.00318  0.78522  0.49707  1.0000
  C   C1459     1.0  0.27752  0.70519  0.70506  1.0000
  H   H2481     1.0  0.19732  0.98140  0.72742  1.0000
  H   H2482     1.0  0.16317  0.82559  0.72342  1.0000
  H   H2483     1.0  0.10138  0.67162  0.53480  1.0000
  C   C1460     1.0  0.15255  0.89604  0.53004  1.0000
  H   H2484     1.0  0.17205  0.96514  0.59541  1.0000
  H   H2485     1.0  0.14969  0.83321  0.66430  1.0000
  H   H2486     1.0  0.06008  0.82577  0.53381  1.0000
  H   H2487     1.0  0.15178  0.85935  0.68565  1.0000
  H   H2488     1.0  0.22732  0.75192  0.69800  1.0000
  H   H2489     1.0  0.07137  0.83200  0.51129  1.0000
  H   H2490     1.0  0.44543  0.68997  0.67220  1.0000
  C   C1461     1.0  0.01240  0.84710  0.54224  1.0000
  C   C1462     1.0  0.12153  0.92524  0.49813  1.0000
  N   N101      1.0  0.15000  0.83238  0.70085  1.0000
  H   H2491     1.0  0.43499  0.65607  0.67418  1.0000
  H   H2492     1.0  0.27715  0.74231  0.68437  1.0000
  H   H2493     1.0  0.02632  0.88327  0.51348  1.0000
  H   H2494     1.0  0.13117  0.89210  0.52023  1.0000
  H   H2495     1.0  0.19356  0.92926  0.69367  1.0000
  N   N102      1.0  0.13934  0.91634  0.50333  1.0000
  C   C1463     1.0  0.05770  0.65904  0.49102  1.0000
  H   H2496     1.0  0.15213  0.66037  0.56280  1.0000
  H   H2497     1.0  0.00782  0.68240  0.58703  1.0000
  H   H2498     1.0  0.13480  0.67892  0.56967  1.0000
  H   H2499     1.0  0.16505  0.89218  0.52037  1.0000
  H   H2500     1.0  0.38285  0.72595  0.72701  1.0000
  H   H2501     1.0  0.17494  0.94032  0.58311  1.0000
  H   H2502     1.0  0.15261  0.94282  0.59609  1.0000
  N   N103      1.0  0.16117  0.84166  0.60135  1.0000
  C   C1464     1.0  0.15381  0.85219  0.61603  1.0000
  C   C1465     1.0  0.14584  0.83491  0.59906  1.0000
  C   C1466     1.0  0.16746  0.85449  0.58448  1.0000
  C   C1467     1.0  0.17644  0.82678  0.60652  1.0000
  C   C1468     1.0  0.16680  0.86178  0.61979  1.0000
  C   C1469     1.0  0.13670  0.82301  0.61586  1.0000
  C   C1470     1.0  0.17447  0.84713  0.56721  1.0000
  C   C1471     1.0  0.18135  0.81053  0.59739  1.0000
  H   H2503     1.0  0.14184  0.86259  0.61303  1.0000
  H   H2504     1.0  0.14916  0.84345  0.62900  1.0000
  H   H2505     1.0  0.14991  0.82715  0.58840  1.0000
  H   H2506     1.0  0.13525  0.84634  0.59452  1.0000
  H   H2507     1.0  0.15641  0.86628  0.58189  1.0000
  H   H2508     1.0  0.17864  0.85984  0.58587  1.0000
  H   H2509     1.0  0.18882  0.83208  0.60412  1.0000
  H   H2510     1.0  0.17333  0.82117  0.62117  1.0000
  H   H2511     1.0  0.16036  0.86733  0.63200  1.0000
  H   H2512     1.0  0.17952  0.85261  0.62236  1.0000
  H   H2513     1.0  0.16959  0.87338  0.60892  1.0000
  H   H2514     1.0  0.14650  0.81240  0.62252  1.0000
  H   H2515     1.0  0.12790  0.83109  0.62557  1.0000
  H   H2516     1.0  0.12796  0.81638  0.61191  1.0000
  H   H2517     1.0  0.18726  0.83725  0.56762  1.0000
  H   H2518     1.0  0.17743  0.85830  0.55583  1.0000
  H   H2519     1.0  0.16449  0.84152  0.56400  1.0000
  H   H2520     1.0  0.19614  0.80584  0.59469  1.0000
  H   H2521     1.0  0.17722  0.81290  0.58454  1.0000
  H   H2522     1.0  0.17600  0.79907  0.60664  1.0000
  H   H2523     1.0  0.10371  0.78765  0.65492  1.0000
  H   H2524     1.0  0.15764  0.87856  0.50120  1.0000
  C   C1472     1.0  0.18845  0.78340  0.67105  1.0000
  H   H2525     1.0  0.20036  0.97800  0.68101  1.0000
  H   H2526     1.0  0.09682  0.92107  0.49432  1.0000
  H   H2527     1.0  0.24740  0.75120  0.71685  1.0000
  C   C1473     1.0  0.06116  0.67390  0.49510  1.0000
  C   C1474     1.0  0.25999  0.71359  0.69802  1.0000
  H   H2528     1.0  0.46961  0.68591  0.66492  1.0000
  H   H2529     1.0  0.44635  0.66407  0.69627  1.0000
  Fe  Fe211     1.0  0.04346  0.67260  0.57877  1.0000
  C   C1475     1.0  0.20765  0.66844  0.58038  1.0000
  H   H2530     1.0  0.05175  0.66075  0.47965  1.0000
  H   H2531     1.0  0.24420  0.74510  0.67999  1.0000
  S   S426      1.0  0.18916  0.96115  0.62609  1.0000
  H   H2532     1.0  0.13131  0.96990  0.57789  1.0000
  C   C1476     1.0  0.21439  0.66108  0.64681  1.0000
  H   H2533     1.0  0.07736  0.81867  0.58432  1.0000
  H   H2534     1.0  0.16332  0.80963  0.68823  1.0000
  H   H2535     1.0  0.26432  0.71829  0.68334  1.0000
  H   H2536     1.0  0.32804  0.75049  0.70663  1.0000
  H   H2537     1.0  0.17085  0.97693  0.69512  1.0000
  H   H2538     1.0  0.26612  0.73396  0.71928  1.0000
  H   H2539     1.0  0.16376  0.96960  0.71787  1.0000
  H   H2540     1.0  0.21712  0.73931  0.67738  1.0000
  H   H2541     1.0  0.04704  0.81134  0.48799  1.0000
  H   H2542     1.0  0.14717  0.96518  0.61799  1.0000
  H   H2543     1.0  0.14291  0.85476  0.72673  1.0000
  C   C1477     1.0  0.19133  0.67059  0.57541  1.0000
  H   H2544     1.0  0.15767  0.95478  0.49240  1.0000
  C   C1478     1.0  0.11916  0.69291  0.53944  1.0000
  C   C1479     1.0  0.23586  0.73988  0.69302  1.0000
  N   N104      1.0  0.20370  0.72546  0.54431  1.0000
  C   C1480     1.0  0.21631  0.72053  0.55710  1.0000
  C   C1481     1.0  0.20720  0.71003  0.53512  1.0000
  C   C1482     1.0  0.18467  0.72833  0.55503  1.0000
  C   C1483     1.0  0.20738  0.74242  0.53135  1.0000
  C   C1484     1.0  0.21347  0.73357  0.56960  1.0000
  C   C1485     1.0  0.22643  0.70472  0.52452  1.0000
  C   C1486     1.0  0.17017  0.72368  0.54811  1.0000
  C   C1487     1.0  0.19670  0.74922  0.51635  1.0000
  H   H2545     1.0  0.21537  0.70714  0.56578  1.0000
  H   H2546     1.0  0.23050  0.71950  0.54982  1.0000
  H   H2547     1.0  0.19826  0.71263  0.52558  1.0000
  H   H2548     1.0  0.20405  0.69786  0.54514  1.0000
  H   H2549     1.0  0.18400  0.71998  0.56874  1.0000
  H   H2550     1.0  0.17994  0.74240  0.55689  1.0000
  H   H2551     1.0  0.20436  0.75363  0.53845  1.0000
  H   H2552     1.0  0.22186  0.74094  0.52499  1.0000
  H   H2553     1.0  0.19970  0.73570  0.57773  1.0000
  H   H2554     1.0  0.21674  0.74666  0.56219  1.0000
  H   H2555     1.0  0.22681  0.69402  0.51762  1.0000
  C   C1488     1.0  0.01472  0.67791  0.52455  1.0000
  H   H2556     1.0  0.23620  0.69900  0.53341  1.0000
  H   H2557     1.0  0.15681  0.72823  0.55634  1.0000
  H   H2558     1.0  0.17200  0.70900  0.54972  1.0000
  H   H2559     1.0  0.16976  0.73014  0.53403  1.0000
  H   H2560     1.0  0.19911  0.73938  0.50783  1.0000
  H   H2561     1.0  0.20109  0.76141  0.50755  1.0000
  H   H2562     1.0  0.18220  0.75328  0.52179  1.0000
  H   H2563     1.0  0.16752  0.84966  0.69972  1.0000
  H   H2564     1.0  0.03190  0.73261  0.53570  1.0000
  H   H2565     1.0  0.25289  0.70262  0.69961  1.0000
  C   C1489     1.0  0.37927  0.72439  0.71493  1.0000
  H   H2566     1.0  0.99989  0.65264  0.51304  1.0000
  H   H2567     1.0  0.10566  0.70516  0.51682  1.0000
  C   C1490     1.0  0.19283  0.77855  0.68805  1.0000
  H   H2568     1.0  0.03399  0.65400  0.53006  1.0000
  H   H2569     1.0  0.15025  0.88392  0.54043  1.0000
  H   H2570     1.0  0.07868  0.65311  0.53195  1.0000
  S   S427      1.0  0.19217  0.75732  0.72202  1.0000
  H   H2571     1.0  0.36698  0.75125  0.70443  1.0000
  S   S428      1.0  0.41193  0.65719  0.71681  1.0000
  H   H2572     1.0  0.15851  0.69518  0.51838  1.0000
  H   H2573     1.0  0.06332  0.77127  0.52804  1.0000
  C   C1491     1.0  0.15842  0.68299  0.52913  1.0000
  H   H2574     1.0  0.02355  0.81542  0.49015  1.0000
  C   C1492     1.0  0.25714  0.74102  0.70988  1.0000
  H   H2575     1.0  0.21144  0.96031  0.72680  1.0000
  C   C1493     1.0  0.22339  0.73031  0.68842  1.0000
  C   C1494     1.0  0.05713  0.77645  0.50194  1.0000
  C   C1495     1.0  0.17367  0.97688  0.70817  1.0000
  H   H2576     1.0  0.11221  0.66375  0.56360  1.0000
  C   C1496     1.0  0.12688  0.95921  0.54017  1.0000
  H   H2577     1.0  0.02214  0.83372  0.56641  1.0000
  H   H2578     1.0  0.18348  0.94206  0.72001  1.0000
  C   C1497     1.0  0.09124  0.80376  0.60656  1.0000
  C   C1498     1.0  0.33392  0.77321  0.71256  1.0000
  C   C1499     1.0  0.13616  0.90364  0.52112  1.0000
  H   H2579     1.0  0.23078  0.71599  0.51406  1.0000
  C   C1500     1.0  0.13685  0.97243  0.60989  1.0000
  H   H2580     1.0  0.11299  0.93322  0.50810  1.0000
  C   C1501     1.0  0.12634  0.66212  0.55609  1.0000
  H   H2581     1.0  0.06788  0.80716  0.50235  1.0000
  N   N105      1.0  0.12733  0.67382  0.53766  1.0000
  N   N106      1.0  0.34625  0.73966  0.72487  1.0000
  C   C1502     1.0  0.15699  0.80141  0.72220  1.0000
  C   C1503     1.0  0.05200  0.77895  0.52139  1.0000
  H   H2582     1.0  0.13545  0.93668  0.56032  1.0000
  H   H2583     1.0  0.14621  0.67464  0.51238  1.0000
  C   C1504     1.0  0.15203  0.90734  0.48885  1.0000
  S   S429      1.0  0.04874  0.85153  0.56829  1.0000
  H   H2584     1.0  0.20024  0.78636  0.69169  1.0000
  H   H2585     1.0  0.13820  0.88524  0.49137  1.0000
  H   H2586     1.0  0.03285  0.83165  0.49427  1.0000
  H   H2587     1.0  0.13436  0.65666  0.58151  1.0000
  H   H2588     1.0  0.07710  0.80904  0.65019  1.0000
  H   H2589     1.0  0.19256  0.79495  0.66167  1.0000
  H   H2590     1.0  0.06364  0.77748  0.64645  1.0000
  C   C1505     1.0  0.33121  0.75379  0.71818  1.0000
  H   H2591     1.0  0.26000  0.76246  0.68591  1.0000
  C   C1506     1.0  0.15345  0.85076  0.69890  1.0000
  C   C1507     1.0  0.18737  0.76378  0.70035  1.0000
  S   S430      1.0  0.22768  0.78773  0.71735  1.0000
  H   H2592     1.0  0.16355  0.68397  0.57902  1.0000
  C   C1508     1.0  0.06364  0.78291  0.63204  1.0000
  H   H2593     1.0  0.11411  0.72021  0.52422  1.0000
  H   H2594     1.0  0.09575  0.81733  0.63560  1.0000
  H   H2595     1.0  0.12329  0.93489  0.48514  1.0000
  C   C1509     1.0  0.06110  0.84129  0.63031  1.0000
  H   H2596     1.0  0.06762  0.83978  0.64161  1.0000
  H   H2597     1.0  0.04776  0.83768  0.63528  1.0000
  N   N107      1.0  0.14581  0.98049  0.59131  1.0000
  C   C1510     1.0  0.08728  0.80733  0.63773  1.0000
  C   C1511     1.0  0.09976  0.78898  0.64208  1.0000
  H   H2598     1.0  0.21832  0.96429  0.69092  1.0000
  H   H2599     1.0  0.05272  0.80800  0.63972  1.0000
  H   H2600     1.0  0.17080  0.97388  0.57257  1.0000
  H   H2601     1.0  0.10551  0.69377  0.54817  1.0000
  H   H2602     1.0  0.33887  0.71834  0.71739  1.0000
  C   C1512     1.0  0.01852  0.75495  0.51837  1.0000
  C   C1513     1.0  0.06007  0.82579  0.51978  1.0000
  C   C1514     1.0  0.07309  0.83085  0.61603  1.0000
  H   H2603     1.0  0.08531  0.83670  0.61084  1.0000
  S   S431      1.0  0.14628  0.96776  0.53676  1.0000
  H   H2604     1.0  0.47938  0.66158  0.65002  1.0000
  S   S432      1.0  0.14879  0.92722  0.70988  1.0000
  H   H2605     1.0  0.27749  0.75711  0.69799  1.0000
  H   H2606     1.0  0.06583  0.83447  0.60486  1.0000
  N   N108      1.0  0.07827  0.81082  0.62209  1.0000
  C   C1515     1.0  0.06141  0.80342  0.62758  1.0000
  C   C1516     1.0  0.20887  0.67812  0.59247  1.0000
  H   H2607     1.0  0.20208  0.94827  0.68012  1.0000
  C   C1517     1.0  0.07291  0.65481  0.52049  1.0000
  H   H2608     1.0  0.17121  0.79682  0.71598  1.0000
  C   C1518     1.0  0.14927  0.94668  0.48994  1.0000
  C   C1519     1.0  0.26857  0.75116  0.69342  1.0000
  C   C1520     1.0  0.20583  0.97459  0.69338  1.0000
  H   H2609     1.0  0.15674  0.95005  0.57198  1.0000
  C   C1521     1.0  0.00008  0.67223  0.58959  1.0000
  H   H2610     1.0  0.13606  0.80831  0.69053  1.0000
  H   H2611     1.0  0.10790  0.90221  0.50792  1.0000
  S   S433      1.0  0.18976  0.65975  0.55923  1.0000
  H   H2612     1.0  0.15333  0.65717  0.52993  1.0000
  H   H2613     1.0  0.12978  0.96216  0.60932  1.0000
  C   C1522     1.0  0.16388  0.82377  0.68680  1.0000
  H   H2614     1.0  0.06859  0.78258  0.49393  1.0000
  H   H2615     1.0  0.17314  0.82468  0.65828  1.0000
  H   H2616     1.0  0.12738  0.86530  0.71176  1.0000
  H   H2617     1.0  0.32212  0.78180  0.70723  1.0000
  H   H2618     1.0  0.20710  0.93965  0.71209  1.0000
  H   H2619     1.0  0.17249  0.67537  0.52728  1.0000
  H   H2620     1.0  0.44768  0.66950  0.65638  1.0000
  C   C1523     1.0  0.19395  0.94782  0.70929  1.0000
  H   H2621     1.0  0.99262  0.87168  0.57743  1.0000
  H   H2622     1.0  0.11459  0.82153  0.68997  1.0000
  H   H2623     1.0  0.02048  0.66132  0.54957  1.0000
  C   C1524     1.0  0.13117  0.83454  0.69847  1.0000
  H   H2624     1.0  0.28107  0.69071  0.70481  1.0000
  C   C1525     1.0  0.01994  0.65930  0.53629  1.0000
  H   H2625     1.0  0.46922  0.66182  0.69513  1.0000
  H   H2626     1.0  0.11489  0.97977  0.52048  1.0000
  H   H2627     1.0  0.05787  0.68703  0.48686  1.0000
  C   C1526     1.0  0.14164  0.86166  0.71288  1.0000
  C   C1527     1.0  0.45932  0.66466  0.68659  1.0000
  C   C1528     1.0  0.19739  0.96766  0.72647  1.0000
  C   C1529     1.0  0.12540  0.81759  0.69771  1.0000
  C   C1530     1.0  0.12527  0.97842  0.71459  1.0000
  H   H2628     1.0  0.12023  0.81036  0.71135  1.0000
  C   C1531     1.0  0.23508  0.72175  0.72306  1.0000
  C   C1532     1.0  0.15222  0.82197  0.71936  1.0000
  C   C1533     1.0  0.43760  0.67306  0.78992  1.0000
  H   H2629     1.0  0.25562  0.76980  0.82166  1.0000
  H   H2630     1.0  0.22411  0.82839  0.92215  1.0000
  H   H2631     1.0  0.17858  0.78564  0.87872  1.0000
  S   S434      1.0  0.36618  0.67447  0.74802  1.0000
  Fe  Fe212     1.0  0.33839  0.76591  0.82186  1.0000
  S   S435      1.0  0.33900  0.79280  0.80393  1.0000
  S   S436      1.0  0.31744  0.76585  0.84716  1.0000
  Fe  Fe213     1.0  0.36670  0.74673  0.79547  1.0000
  S   S437      1.0  0.38700  0.72207  0.78940  1.0000
  Fe  Fe214     1.0  0.36881  0.78348  0.79860  1.0000
  S   S438      1.0  0.38874  0.80074  0.79504  1.0000
  Fe  Fe215     1.0  0.33907  0.77899  0.78252  1.0000
  S   S439      1.0  0.32161  0.79438  0.76275  1.0000
  S   S440      1.0  0.36833  0.75762  0.81841  1.0000
  S   S441      1.0  0.33655  0.75249  0.80078  1.0000
  Fe  Fe216     1.0  0.47353  0.83206  0.84817  1.0000
  H   H2632     1.0  0.25141  0.71879  0.74308  1.0000
  C   C1534     1.0  0.39900  0.67708  0.82126  1.0000
  Fe  Fe217     1.0  0.44423  0.81017  0.85951  1.0000
  S   S442      1.0  0.45914  0.78972  0.87890  1.0000
  S   S443      1.0  0.41700  0.80422  0.86177  1.0000
  Fe  Fe218     1.0  0.46400  0.81319  0.88658  1.0000
  S   S444      1.0  0.45976  0.81252  0.91604  1.0000
  H   H2633     1.0  0.47376  0.88622  0.96017  1.0000
  S   S445      1.0  0.34671  0.81262  0.96884  1.0000
  S   S446      1.0  0.44758  0.83366  0.86860  1.0000
  S   S447      1.0  0.46854  0.81063  0.83708  1.0000
  Fe  Fe219     1.0  0.21919  0.84267  0.86625  1.0000
  S   S448      1.0  0.20243  0.82202  0.87243  1.0000
  S   S449      1.0  0.24889  0.83140  0.86009  1.0000
  Fe  Fe220     1.0  0.18662  0.87271  0.87093  1.0000
  S   S450      1.0  0.16731  0.85424  0.87815  1.0000
  S   S451      1.0  0.17333  0.90167  0.87043  1.0000
  Fe  Fe221     1.0  0.18624  0.83567  0.89479  1.0000
  S   S452      1.0  0.18039  0.81707  0.92160  1.0000
  Fe  Fe222     1.0  0.18509  0.84235  0.85532  1.0000
  S   S453      1.0  0.17197  0.83846  0.83495  1.0000
  S   S454      1.0  0.20422  0.85506  0.88980  1.0000
  S   S455      1.0  0.20324  0.86195  0.84691  1.0000
  H   H2634     1.0  0.27949  0.81163  0.77950  1.0000
  S   S456      1.0  0.23086  0.79403  0.75603  1.0000
  C   C1535     1.0  0.12961  0.79590  0.89582  1.0000
  C   C1536     1.0  0.42332  0.66223  0.79159  1.0000
  S   S457      1.0  0.19140  0.79252  0.75013  1.0000
  H   H2635     1.0  0.23995  0.77039  0.80846  1.0000
  C   C1537     1.0  0.13313  0.96231  0.74287  1.0000
  Fe  Fe223     1.0  0.20977  0.77798  0.76904  1.0000
  S   S458      1.0  0.20434  0.77143  0.79908  1.0000
  S   S459      1.0  0.22256  0.75630  0.75364  1.0000
  H   H2636     1.0  0.42203  0.71322  0.82610  1.0000
  H   H2637     1.0  0.16397  0.78006  0.90025  1.0000
  H   H2638     1.0  0.11574  0.79888  0.89342  1.0000
  H   H2639     1.0  0.15468  0.81496  0.89793  1.0000
  C   C1538     1.0  0.15772  0.80842  0.88641  1.0000
  H   H2640     1.0  0.13052  0.80996  0.91685  1.0000
  H   H2641     1.0  0.18740  0.94501  0.74605  1.0000
  S   S460      1.0  0.43849  0.88311  0.94719  1.0000
  Fe  Fe224     1.0  0.42354  0.87945  0.97603  1.0000
  C   C1539     1.0  0.26046  0.78617  0.79401  1.0000
  H   H2642     1.0  0.45313  0.75663  0.77875  1.0000
  H   H2643     1.0  0.44042  0.73499  0.82503  1.0000
  S   S461      1.0  0.17356  0.95426  0.79482  1.0000
  C   C1540     1.0  0.36280  0.83780  0.82039  1.0000
  H   H2644     1.0  0.39595  0.76371  0.88532  1.0000
  H   H2645     1.0  0.40259  0.74081  0.89508  1.0000
  C   C1541     1.0  0.12704  0.83214  0.94112  1.0000
  Fe  Fe225     1.0  0.38995  0.65292  0.74084  1.0000
  C   C1542     1.0  0.28398  0.78739  0.74041  1.0000
  C   C1543     1.0  0.26780  0.80006  0.81545  1.0000
  C   C1544     1.0  0.23272  0.82734  0.81342  1.0000
  H   H2646     1.0  0.29626  0.80885  0.74019  1.0000
  N   N109      1.0  0.24330  0.79242  0.92378  1.0000
  S   S462      1.0  0.10205  0.81850  0.96900  1.0000
  H   H2647     1.0  0.26838  0.79703  0.90601  1.0000
  H   H2648     1.0  0.26064  0.79312  0.82838  1.0000
  C   C1545     1.0  0.18536  0.95974  0.74392  1.0000
  H   H2649     1.0  0.29562  0.79582  0.79964  1.0000
  Fe  Fe226     1.0  0.30494  0.83006  0.92340  1.0000
  S   S463      1.0  0.29622  0.80464  0.92606  1.0000
  S   S464      1.0  0.29516  0.85319  0.90254  1.0000
  Fe  Fe227     1.0  0.32595  0.81428  0.95323  1.0000
  S   S465      1.0  0.31831  0.78775  0.95830  1.0000
  H   H2650     1.0  0.07540  0.97581  0.79030  1.0000
  Fe  Fe228     1.0  0.32444  0.79151  0.92856  1.0000
  S   S466      1.0  0.34333  0.77061  0.91446  1.0000
  Fe  Fe229     1.0  0.29088  0.80367  0.95541  1.0000
  S   S467      1.0  0.33374  0.81712  0.92349  1.0000
  S   S468      1.0  0.29791  0.83008  0.95283  1.0000
  H   H2651     1.0  0.41788  0.75526  0.89090  1.0000
  C   C1546     1.0  0.48458  0.65851  0.76548  1.0000
  H   H2652     1.0  0.33702  0.74676  0.75079  1.0000
  H   H2653     1.0  0.24719  0.83038  0.91295  1.0000
  H   H2654     1.0  0.29356  0.78946  0.82327  1.0000
  H   H2655     1.0  0.42138  0.75286  0.82404  1.0000
  H   H2656     1.0  0.23012  0.80971  0.79773  1.0000
  H   H2657     1.0  0.14550  0.93444  0.74408  1.0000
  H   H2658     1.0  0.13495  0.78148  0.89549  1.0000
  H   H2659     1.0  0.40840  0.77291  0.76904  1.0000
  H   H2660     1.0  0.44275  0.84555  0.96408  1.0000
  H   H2661     1.0  0.11431  0.79648  0.92300  1.0000
  S   S469      1.0  0.48125  0.71738  0.81526  1.0000
  C   C1547     1.0  0.46461  0.65206  0.75013  1.0000
  H   H2662     1.0  0.42790  0.65504  0.78030  1.0000
  H   H2663     1.0  0.25699  0.81258  0.76238  1.0000
  N   N110      1.0  0.14104  0.80717  0.88125  1.0000
  H   H2664     1.0  0.45925  0.74747  0.79941  1.0000
  H   H2665     1.0  0.43579  0.67872  0.80183  1.0000
  C   C1548     1.0  0.48823  0.73182  0.82455  1.0000
  C   C1549     1.0  0.17082  0.79051  0.89099  1.0000
  C   C1550     1.0  0.41650  0.75352  0.79201  1.0000
  H   H2666     1.0  0.18071  0.79258  0.89763  1.0000
  H   H2667     1.0  0.27602  0.79538  0.73077  1.0000
  C   C1551     1.0  0.15857  0.81814  0.93476  1.0000
  C   C1552     1.0  0.14436  0.83206  0.93049  1.0000
  H   H2668     1.0  0.11668  0.85079  0.88377  1.0000
  H   H2669     1.0  0.14671  0.84275  0.91904  1.0000
  H   H2670     1.0  0.21798  0.83030  0.81845  1.0000
  C   C1553     1.0  0.17395  0.91676  0.84962  1.0000
  C   C1554     1.0  0.18808  0.91396  0.83511  1.0000
  C   C1555     1.0  0.18814  0.92598  0.81856  1.0000
  C   C1556     1.0  0.17396  0.94075  0.81633  1.0000
  C   C1557     1.0  0.15996  0.94374  0.83090  1.0000
  C   C1558     1.0  0.16005  0.93183  0.84754  1.0000
  H   H2671     1.0  0.19907  0.90265  0.83672  1.0000
  H   H2672     1.0  0.19912  0.92372  0.80740  1.0000
  H   H2673     1.0  0.14900  0.95512  0.82933  1.0000
  H   H2674     1.0  0.14917  0.93418  0.85877  1.0000
  C   C1559     1.0  0.18243  0.82025  0.82461  1.0000
  C   C1560     1.0  0.18034  0.82113  0.80736  1.0000
  C   C1561     1.0  0.18765  0.80637  0.79919  1.0000
  C   C1562     1.0  0.19644  0.79044  0.80856  1.0000
  C   C1563     1.0  0.19857  0.78956  0.82583  1.0000
  C   C1564     1.0  0.19188  0.80457  0.83373  1.0000
  H   H2675     1.0  0.17294  0.83318  0.80031  1.0000
  H   H2676     1.0  0.18597  0.80711  0.78586  1.0000
  H   H2677     1.0  0.20540  0.77723  0.83307  1.0000
  H   H2678     1.0  0.19348  0.80379  0.84707  1.0000
  C   C1565     1.0  0.26157  0.83785  0.87174  1.0000
  C   C1566     1.0  0.27739  0.82626  0.87572  1.0000
  C   C1567     1.0  0.28741  0.83075  0.88556  1.0000
  C   C1568     1.0  0.28214  0.84721  0.89085  1.0000
  C   C1569     1.0  0.26654  0.85900  0.88652  1.0000
  C   C1570     1.0  0.25607  0.85419  0.87727  1.0000
  H   H2679     1.0  0.28171  0.81361  0.87147  1.0000
  H   H2680     1.0  0.29951  0.82168  0.88865  1.0000
  H   H2681     1.0  0.26240  0.87177  0.89053  1.0000
  H   H2682     1.0  0.24394  0.86327  0.87416  1.0000
  C   C1571     1.0  0.47458  0.66358  0.75199  1.0000
  C   C1572     1.0  0.42817  0.74028  0.81923  1.0000
  H   H2683     1.0  0.16538  0.81718  0.87535  1.0000
  H   H2684     1.0  0.46587  0.72815  0.77473  1.0000
  H   H2685     1.0  0.23662  0.80334  0.94771  1.0000
  C   C1573     1.0  0.45417  0.83240  0.92416  1.0000
  C   C1574     1.0  0.45015  0.83125  0.94268  1.0000
  C   C1575     1.0  0.44540  0.84672  0.94979  1.0000
  C   C1576     1.0  0.44457  0.86353  0.93843  1.0000
  C   C1577     1.0  0.44881  0.86474  0.91987  1.0000
  C   C1578     1.0  0.45355  0.84921  0.91271  1.0000
  H   H2686     1.0  0.45080  0.81828  0.95161  1.0000
  H   H2687     1.0  0.43700  0.68425  0.77811  1.0000
  H   H2688     1.0  0.44820  0.87772  0.91102  1.0000
  H   H2689     1.0  0.45675  0.85023  0.89839  1.0000
  C   C1579     1.0  0.32309  0.72024  0.74369  1.0000
  H   H2690     1.0  0.31100  0.72808  0.73850  1.0000
  H   H2691     1.0  0.27457  0.78179  0.78727  1.0000
  H   H2692     1.0  0.27150  0.77786  0.94528  1.0000
  H   H2693     1.0  0.13353  0.96203  0.75649  1.0000
  C   C1580     1.0  0.36094  0.75733  0.73893  1.0000
  C   C1581     1.0  0.23815  0.80917  0.80763  1.0000
  H   H2694     1.0  0.47123  0.76884  0.84292  1.0000
  C   C1582     1.0  0.28735  0.78959  0.81213  1.0000
  H   H2695     1.0  0.25204  0.69808  0.73648  1.0000
  C   C1583     1.0  0.30637  0.78462  0.75768  1.0000
  C   C1584     1.0  0.40351  0.75453  0.89526  1.0000
  C   C1585     1.0  0.13991  0.94674  0.73585  1.0000
  C   C1586     1.0  0.25546  0.82337  0.76955  1.0000
  C   C1587     1.0  0.29387  0.75907  0.75936  1.0000
  C   C1588     1.0  0.30521  0.76675  0.76486  1.0000
  H   H2696     1.0  0.32424  0.84833  0.96945  1.0000
  H   H2697     1.0  0.31328  0.75876  0.77437  1.0000
  C   C1589     1.0  0.39732  0.80058  0.81354  1.0000
  C   C1590     1.0  0.41101  0.80986  0.81106  1.0000
  C   C1591     1.0  0.41769  0.81049  0.82568  1.0000
  C   C1592     1.0  0.41033  0.80223  0.84292  1.0000
  C   C1593     1.0  0.39664  0.79292  0.84539  1.0000
  C   C1594     1.0  0.39034  0.79186  0.83072  1.0000
  C   C1595     1.0  0.29550  0.79498  0.74570  1.0000
  H   H2698     1.0  0.42814  0.81781  0.82367  1.0000
  H   H2699     1.0  0.39081  0.78660  0.85870  1.0000
  H   H2700     1.0  0.37979  0.78467  0.83276  1.0000
  C   C1596     1.0  0.32491  0.76682  0.86583  1.0000
  C   C1597     1.0  0.34320  0.76311  0.86596  1.0000
  C   C1598     1.0  0.34883  0.76396  0.88109  1.0000
  C   C1599     1.0  0.33618  0.76885  0.89593  1.0000
  C   C1600     1.0  0.31793  0.77278  0.89569  1.0000
  C   C1601     1.0  0.31229  0.77165  0.88071  1.0000
  H   H2701     1.0  0.35299  0.75928  0.85459  1.0000
  H   H2702     1.0  0.36297  0.76097  0.88121  1.0000
  H   H2703     1.0  0.30817  0.77634  0.90718  1.0000
  H   H2704     1.0  0.29817  0.77456  0.88061  1.0000
  C   C1602     1.0  0.12810  0.79740  0.91531  1.0000
  H   H2705     1.0  0.26260  0.75753  0.80445  1.0000
  H   H2706     1.0  0.16642  0.79378  0.95323  1.0000
  C   C1603     1.0  0.26950  0.76988  0.93662  1.0000
  H   H2707     1.0  0.42200  0.78274  0.93588  1.0000
  C   C1604     1.0  0.23759  0.82578  0.92524  1.0000
  C   C1605     1.0  0.15550  0.80463  0.94995  1.0000
  Fe  Fe230     1.0  0.20632  0.77235  0.73312  1.0000
  H   H2708     1.0  0.42246  0.66071  0.83019  1.0000
  H   H2709     1.0  0.37004  0.83686  0.80650  1.0000
  C   C1606     1.0  0.37182  0.68769  0.75963  1.0000
  C   C1607     1.0  0.35844  0.69721  0.77118  1.0000
  C   C1608     1.0  0.36292  0.70803  0.78025  1.0000
  C   C1609     1.0  0.38079  0.70929  0.77778  1.0000
  C   C1610     1.0  0.39411  0.69981  0.76621  1.0000
  C   C1611     1.0  0.38966  0.68905  0.75715  1.0000
  H   H2710     1.0  0.34465  0.69607  0.77324  1.0000
  H   H2711     1.0  0.35259  0.71517  0.78932  1.0000
  H   H2712     1.0  0.40794  0.70086  0.76416  1.0000
  H   H2713     1.0  0.40003  0.68198  0.74805  1.0000
  H   H2714     1.0  0.13708  0.78595  0.92218  1.0000
  H   H2715     1.0  0.46427  0.90683  0.94635  1.0000
  H   H2716     1.0  0.38880  0.65923  0.79265  1.0000
  C   C1612     1.0  0.24428  0.80601  0.93366  1.0000
  H   H2717     1.0  0.35098  0.71100  0.73482  1.0000
  H   H2718     1.0  0.46745  0.89900  0.92004  1.0000
  H   H2719     1.0  0.23899  0.82713  0.82453  1.0000
  H   H2720     1.0  0.35692  0.73048  0.74890  1.0000
  H   H2721     1.0  0.24403  0.78269  0.89050  1.0000
  C   C1613     1.0  0.45262  0.72549  0.77506  1.0000
  S   S470      1.0  0.36912  0.77219  0.77531  1.0000
  H   H2722     1.0  0.47704  0.87191  0.93806  1.0000
  H   H2723     1.0  0.40631  0.68760  0.81292  1.0000
  H   H2724     1.0  0.26349  0.76900  0.89934  1.0000
  S   S471      1.0  0.27151  0.75904  0.73794  1.0000
  C   C1614     1.0  0.25697  0.78268  0.89350  1.0000
  C   C1615     1.0  0.34982  0.74302  0.74141  1.0000
  H   H2725     1.0  0.14408  0.91658  0.77713  1.0000
  C   C1616     1.0  0.41867  0.76052  0.77165  1.0000
  H   H2726     1.0  0.40659  0.74480  0.79562  1.0000
  H   H2727     1.0  0.40926  0.76484  0.79871  1.0000
  H   H2728     1.0  0.41669  0.75048  0.76516  1.0000
  H   H2729     1.0  0.43154  0.76457  0.76500  1.0000
  H   H2730     1.0  0.41641  0.81670  0.79779  1.0000
  H   H2731     1.0  0.26826  0.81304  0.81817  1.0000
  H   H2732     1.0  0.40267  0.73118  0.82382  1.0000
  H   H2733     1.0  0.37316  0.83308  0.82862  1.0000
  H   H2734     1.0  0.24132  0.77200  0.94795  1.0000
  H   H2735     1.0  0.43089  0.78193  0.79099  1.0000
  H   H2736     1.0  0.23587  0.83847  0.80215  1.0000
  C   C1617     1.0  0.44027  0.72584  0.79362  1.0000
  C   C1618     1.0  0.44754  0.75469  0.79329  1.0000
  H   H2737     1.0  0.43801  0.77312  0.81221  1.0000
  C   C1619     1.0  0.41561  0.72693  0.82824  1.0000
  S   S472      1.0  0.48546  0.85498  0.82982  1.0000
  H   H2738     1.0  0.06990  0.97066  0.81419  1.0000
  H   H2739     1.0  0.24899  0.76339  0.92810  1.0000
  H   H2740     1.0  0.25288  0.78855  0.78330  1.0000
  H   H2741     1.0  0.48810  0.86353  0.90761  1.0000
  N   N111      1.0  0.33772  0.82467  0.84487  1.0000
  C   C1620     1.0  0.32434  0.81326  0.84678  1.0000
  C   C1621     1.0  0.35003  0.81448  0.85753  1.0000
  C   C1622     1.0  0.34835  0.82638  0.82590  1.0000
  C   C1623     1.0  0.32767  0.84264  0.84887  1.0000
  C   C1624     1.0  0.30942  0.82127  0.83588  1.0000
  C   C1625     1.0  0.34176  0.81334  0.87761  1.0000
  C   C1626     1.0  0.33844  0.85449  0.85287  1.0000
  H   H2742     1.0  0.33134  0.80014  0.84314  1.0000
  H   H2743     1.0  0.31715  0.80997  0.86084  1.0000
  H   H2744     1.0  0.36224  0.81993  0.85492  1.0000
  H   H2745     1.0  0.35527  0.80050  0.85547  1.0000
  H   H2746     1.0  0.35512  0.81290  0.82307  1.0000
  H   H2747     1.0  0.33945  0.83245  0.81618  1.0000
  H   H2748     1.0  0.32118  0.85071  0.83759  1.0000
  H   H2749     1.0  0.31637  0.84096  0.86055  1.0000
  H   H2750     1.0  0.30083  0.83379  0.83961  1.0000
  H   H2751     1.0  0.31464  0.82346  0.82128  1.0000
  H   H2752     1.0  0.30049  0.81158  0.83899  1.0000
  H   H2753     1.0  0.33082  0.80583  0.88229  1.0000
  H   H2754     1.0  0.35226  0.80594  0.88535  1.0000
  H   H2755     1.0  0.33678  0.82663  0.88120  1.0000
  H   H2756     1.0  0.33773  0.86737  0.84300  1.0000
  H   H2757     1.0  0.35273  0.84851  0.85272  1.0000
  H   H2758     1.0  0.33228  0.85789  0.86620  1.0000
  N   N112      1.0  0.16655  0.89391  0.80100  1.0000
  C   C1627     1.0  0.15445  0.90003  0.81745  1.0000
  C   C1628     1.0  0.16932  0.91042  0.78682  1.0000
  C   C1629     1.0  0.18425  0.88359  0.80574  1.0000
  C   C1630     1.0  0.15747  0.88219  0.79551  1.0000
  C   C1631     1.0  0.15252  0.88560  0.83481  1.0000
  C   C1632     1.0  0.15223  0.92327  0.78178  1.0000
  C   C1633     1.0  0.20091  0.88262  0.79039  1.0000
  C   C1634     1.0  0.16668  0.87531  0.77816  1.0000
  H   H2759     1.0  0.15913  0.91080  0.82048  1.0000
  H   H2760     1.0  0.14059  0.90601  0.81527  1.0000
  H   H2761     1.0  0.17811  0.90719  0.77422  1.0000
  H   H2762     1.0  0.17660  0.91828  0.79119  1.0000
  H   H2763     1.0  0.18776  0.88952  0.81537  1.0000
  H   H2764     1.0  0.18334  0.86962  0.81269  1.0000
  H   H2765     1.0  0.15616  0.86994  0.80608  1.0000
  H   H2766     1.0  0.14332  0.88866  0.79466  1.0000
  H   H2767     1.0  0.16542  0.87973  0.83918  1.0000
  H   H2768     1.0  0.14346  0.89195  0.84576  1.0000
  H   H2769     1.0  0.14650  0.87486  0.83366  1.0000
  H   H2770     1.0  0.23323  0.79926  0.81953  1.0000
  H   H2771     1.0  0.14402  0.92980  0.79292  1.0000
  H   H2772     1.0  0.15624  0.93427  0.77067  1.0000
  H   H2773     1.0  0.19915  0.87772  0.77924  1.0000
  H   H2774     1.0  0.21236  0.87319  0.79568  1.0000
  H   H2775     1.0  0.20488  0.89580  0.78527  1.0000
  H   H2776     1.0  0.17703  0.86298  0.78073  1.0000
  H   H2777     1.0  0.17260  0.88528  0.76722  1.0000
  H   H2778     1.0  0.15645  0.87212  0.77278  1.0000
  N   N113      1.0  0.39684  0.77561  0.91747  1.0000
  C   C1635     1.0  0.39529  0.75808  0.91430  1.0000
  C   C1636     1.0  0.38976  0.77550  0.93713  1.0000
  C   C1637     1.0  0.41646  0.77665  0.91235  1.0000
  C   C1638     1.0  0.38612  0.79046  0.90589  1.0000
  C   C1639     1.0  0.36984  0.77449  0.94428  1.0000
  C   C1640     1.0  0.42265  0.78843  0.92142  1.0000
  C   C1641     1.0  0.38504  0.80965  0.90758  1.0000
  H   H2779     1.0  0.40168  0.74664  0.92375  1.0000
  H   H2780     1.0  0.38103  0.75701  0.91688  1.0000
  H   H2781     1.0  0.39129  0.78753  0.94082  1.0000
  H   H2782     1.0  0.39775  0.76405  0.94521  1.0000
  H   H2783     1.0  0.42508  0.76313  0.91548  1.0000
  H   H2784     1.0  0.42056  0.78139  0.89765  1.0000
  H   H2785     1.0  0.39181  0.79028  0.89156  1.0000
  H   H2786     1.0  0.37230  0.78847  0.90759  1.0000
  H   H2787     1.0  0.36613  0.77540  0.95859  1.0000
  H   H2788     1.0  0.36094  0.78582  0.93728  1.0000
  H   H2789     1.0  0.36703  0.76167  0.94365  1.0000
  C   C1642     1.0  0.47597  0.89960  0.95245  1.0000
  H   H2790     1.0  0.41525  0.80244  0.91943  1.0000
  H   H2791     1.0  0.43696  0.78872  0.91547  1.0000
  H   H2792     1.0  0.39691  0.81487  0.89897  1.0000
  H   H2793     1.0  0.38351  0.81091  0.92148  1.0000
  H   H2794     1.0  0.37282  0.81836  0.90321  1.0000
  C   C1643     1.0  0.12397  0.81861  0.95633  1.0000
  C   C1644     1.0  0.44187  0.77351  0.79764  1.0000
  N   N114      1.0  0.41950  0.64931  0.80914  1.0000
  H   H2795     1.0  0.13603  0.79444  0.97249  1.0000
  H   H2796     1.0  0.19937  0.83078  0.94893  1.0000
  H   H2797     1.0  0.44834  0.71646  0.80319  1.0000
  H   H2798     1.0  0.20365  0.78183  0.92012  1.0000
  H   H2799     1.0  0.21618  0.76900  0.93658  1.0000
  H   H2800     1.0  0.17901  0.82300  0.95787  1.0000
  H   H2801     1.0  0.11599  0.84279  0.93766  1.0000
  H   H2802     1.0  0.24107  0.82928  0.77362  1.0000
  H   H2803     1.0  0.05625  0.98076  0.77379  1.0000
  H   H2804     1.0  0.37332  0.75116  0.74432  1.0000
  C   C1645     1.0  0.25475  0.79608  0.90532  1.0000
  Fe  Fe231     1.0  0.48358  0.79186  0.85729  1.0000
  H   H2805     1.0  0.39268  0.68124  0.83421  1.0000
  H   H2806     1.0  0.37968  0.65224  0.81637  1.0000
  S   S473      1.0  0.20721  0.83680  0.72935  1.0000
  C   C1646     1.0  0.13831  0.80497  0.96085  1.0000
  C   C1647     1.0  0.25419  0.77020  0.80803  1.0000
  S   S474      1.0  0.45224  0.65876  0.73316  1.0000
  H   H2807     1.0  0.26577  0.78694  0.88043  1.0000
  H   H2808     1.0  0.46198  0.74872  0.82935  1.0000
  C   C1648     1.0  0.41166  0.65857  0.82475  1.0000
  Fe  Fe232     1.0  0.24267  0.77335  0.73941  1.0000
  H   H2809     1.0  0.25825  0.80513  0.93467  1.0000
  H   H2810     1.0  0.26168  0.83400  0.75967  1.0000
  C   C1649     1.0  0.21730  0.77781  0.92310  1.0000
  H   H2811     1.0  0.40413  0.64991  0.83604  1.0000
  N   N115      1.0  0.38807  0.86770  0.92986  1.0000
  C   C1650     1.0  0.40197  0.85078  0.92816  1.0000
  C   C1651     1.0  0.38998  0.88057  0.91209  1.0000
  C   C1652     1.0  0.36936  0.86409  0.93511  1.0000
  C   C1653     1.0  0.39092  0.87536  0.94425  1.0000
  C   C1654     1.0  0.40046  0.83503  0.94433  1.0000
  C   C1655     1.0  0.40809  0.88663  0.90521  1.0000
  C   C1656     1.0  0.36431  0.85475  0.92281  1.0000
  C   C1657     1.0  0.38016  0.89439  0.94567  1.0000
  H   H2812     1.0  0.40212  0.84599  0.91607  1.0000
  H   H2813     1.0  0.41562  0.85336  0.92610  1.0000
  H   H2814     1.0  0.37906  0.89270  0.91236  1.0000
  H   H2815     1.0  0.38848  0.87452  0.90148  1.0000
  H   H2816     1.0  0.36699  0.85593  0.94884  1.0000
  H   H2817     1.0  0.35918  0.87670  0.93563  1.0000
  H   H2818     1.0  0.38725  0.86680  0.95761  1.0000
  H   H2819     1.0  0.40532  0.87546  0.94269  1.0000
  H   H2820     1.0  0.41194  0.82381  0.94173  1.0000
  H   H2821     1.0  0.40133  0.83854  0.95672  1.0000
  H   H2822     1.0  0.38805  0.82996  0.94653  1.0000
  H   H2823     1.0  0.41160  0.89234  0.91492  1.0000
  H   H2824     1.0  0.41909  0.87549  0.90139  1.0000
  H   H2825     1.0  0.40734  0.89721  0.89293  1.0000
  H   H2826     1.0  0.36343  0.86350  0.90951  1.0000
  H   H2827     1.0  0.35082  0.85162  0.92894  1.0000
  H   H2828     1.0  0.37364  0.84196  0.92125  1.0000
  H   H2829     1.0  0.38447  0.90455  0.93382  1.0000
  H   H2830     1.0  0.38265  0.89798  0.95733  1.0000
  H   H2831     1.0  0.36551  0.89539  0.94804  1.0000
  N   N116      1.0  0.43316  0.74375  0.79905  1.0000
  H   H2832     1.0  0.35309  0.76757  0.74683  1.0000
  H   H2833     1.0  0.13370  0.83903  0.89581  1.0000
  H   H2834     1.0  0.26550  0.82887  0.79004  1.0000
  C   C1658     1.0  0.22388  0.79471  0.92279  1.0000
  C   C1659     1.0  0.26524  0.81687  0.78533  1.0000
  H   H2835     1.0  0.41246  0.72615  0.84290  1.0000
  H   H2836     1.0  0.35683  0.85213  0.82002  1.0000
  H   H2837     1.0  0.28814  0.77543  0.81196  1.0000
  H   H2838     1.0  0.29327  0.74514  0.76462  1.0000
  H   H2839     1.0  0.47354  0.88976  0.89350  1.0000
  H   H2840     1.0  0.45524  0.71185  0.77235  1.0000
  H   H2841     1.0  0.45345  0.78027  0.79250  1.0000
  H   H2842     1.0  0.42901  0.71945  0.79422  1.0000
  N   N117      1.0  0.25788  0.80306  0.80062  1.0000
  C   C1660     1.0  0.24994  0.77409  0.93430  1.0000
  C   C1661     1.0  0.14713  0.79874  0.86501  1.0000
  C   C1662     1.0  0.13050  0.82578  0.87568  1.0000
  C   C1663     1.0  0.13228  0.79768  0.85612  1.0000
  C   C1664     1.0  0.12311  0.83720  0.89005  1.0000
  H   H2843     1.0  0.15659  0.80605  0.85445  1.0000
  H   H2844     1.0  0.15470  0.78478  0.86833  1.0000
  H   H2845     1.0  0.13879  0.83352  0.86414  1.0000
  H   H2846     1.0  0.11852  0.82536  0.87101  1.0000
  H   H2847     1.0  0.13826  0.78904  0.84613  1.0000
  H   H2848     1.0  0.12142  0.79171  0.86583  1.0000
  H   H2849     1.0  0.12665  0.81097  0.84859  1.0000
  H   H2850     1.0  0.11253  0.83175  0.90074  1.0000
  C   C1665     1.0  0.48099  0.75780  0.83820  1.0000
  H   H2851     1.0  0.45123  0.66468  0.78764  1.0000
  H   H2852     1.0  0.38800  0.67723  0.81494  1.0000
  H   H2853     1.0  0.13989  0.82548  0.72949  1.0000
  H   H2854     1.0  0.18905  0.96253  0.75542  1.0000
  H   H2855     1.0  0.24905  0.80928  0.89764  1.0000
  H   H2856     1.0  0.41107  0.67202  0.78875  1.0000
  H   H2857     1.0  0.21465  0.80023  0.93426  1.0000
  H   H2858     1.0  0.48838  0.85119  0.86637  1.0000
  H   H2859     1.0  0.23680  0.83423  0.93477  1.0000
  H   H2860     1.0  0.32327  0.72392  0.75623  1.0000
  H   H2861     1.0  0.22068  0.80476  0.91068  1.0000
  H   H2862     1.0  0.47447  0.67650  0.74307  1.0000
  H   H2863     1.0  0.22586  0.77007  0.91310  1.0000
  C   C1666     1.0  0.28348  0.76931  0.74687  1.0000
  H   H2864     1.0  0.20399  0.80822  0.97540  1.0000
  H   H2865     1.0  0.44665  0.73484  0.76413  1.0000
  S   S475      1.0  0.26434  0.79886  0.97273  1.0000
  S   S476      1.0  0.12368  0.97941  0.79108  1.0000
  H   H2866     1.0  0.17097  0.96582  0.74449  1.0000
  H   H2867     1.0  0.27295  0.75568  0.94346  1.0000
  C   C1667     1.0  0.18790  0.83035  0.96050  1.0000
  C   C1668     1.0  0.12572  0.97818  0.73226  1.0000
  C   C1669     1.0  0.47577  0.74639  0.83042  1.0000
  C   C1670     1.0  0.48288  0.89806  0.89360  1.0000
  H   H2868     1.0  0.27912  0.77149  0.92366  1.0000
  C   C1671     1.0  0.07259  0.98147  0.80232  1.0000
  H   H2869     1.0  0.48033  0.91548  0.91136  1.0000
  H   H2870     1.0  0.18666  0.78963  0.97573  1.0000
  H   H2871     1.0  0.23287  0.70806  0.75076  1.0000
  C   C1672     1.0  0.48109  0.90096  0.91264  1.0000
  H   H2872     1.0  0.47934  0.91119  0.88462  1.0000
  C   C1673     1.0  0.34051  0.72191  0.72953  1.0000
  S   S477      1.0  0.48784  0.66564  0.82674  1.0000
  Fe  Fe233     1.0  0.21378  0.80689  0.73571  1.0000
  Fe  Fe234     1.0  0.15214  0.97940  0.79096  1.0000
  H   H2873     1.0  0.47645  0.90716  0.96229  1.0000
  C   C1674     1.0  0.24373  0.71113  0.73902  1.0000
  C   C1675     1.0  0.33601  0.84718  0.97462  1.0000
  H   H2874     1.0  0.18096  0.84437  0.96078  1.0000
  H   H2875     1.0  0.15560  0.79557  0.73673  1.0000
  C   C1676     1.0  0.34882  0.83121  0.97573  1.0000
  H   H2876     1.0  0.31873  0.75427  0.72860  1.0000
  H   H2877     1.0  0.32175  0.70603  0.74730  1.0000
  C   C1677     1.0  0.19495  0.82113  0.97767  1.0000
  H   H2878     1.0  0.29139  0.76659  0.97763  1.0000
  H   H2879     1.0  0.22472  0.73300  0.72778  1.0000
  S   S478      1.0  0.49020  0.81320  0.86690  1.0000
  Fe  Fe235     1.0  0.69904  0.13505  0.06627  1.0000
  S   S479      1.0  0.70000  0.10662  0.08052  1.0000
  S   S480      1.0  0.70809  0.14050  0.03636  1.0000
  Fe  Fe236     1.0  0.68404  0.14914  0.10069  1.0000
  S   S481      1.0  0.68453  0.12138  0.11740  1.0000
  S   S482      1.0  0.66865  0.16986  0.11701  1.0000
  Fe  Fe237     1.0  0.71155  0.11418  0.09994  1.0000
  S   S483      1.0  0.73613  0.09420  0.10701  1.0000
  Fe  Fe238     1.0  0.67305  0.11684  0.09626  1.0000
  S   S484      1.0  0.64736  0.10687  0.10285  1.0000
  S   S485      1.0  0.71218  0.14231  0.08478  1.0000
  S   S486      1.0  0.67117  0.14485  0.08048  1.0000
  Fe  Fe239     1.0  0.60002  0.07059  0.00795  1.0000
  S   S487      1.0  0.60736  0.04796  0.03018  1.0000
  H   H2880     1.0  0.72165  0.10801  0.98805  1.0000
  Fe  Fe240     1.0  0.57762  0.09456  0.03359  1.0000
  S   S488      1.0  0.58371  0.07407  0.05783  1.0000
  S   S489      1.0  0.55895  0.12085  0.03647  1.0000
  Fe  Fe241     1.0  0.61179  0.06911  0.04178  1.0000
  S   S490      1.0  0.63863  0.06462  0.04890  1.0000
  Fe  Fe242     1.0  0.57856  0.05513  0.04378  1.0000
  S   S491      1.0  0.56150  0.03541  0.06028  1.0000
  S   S492      1.0  0.60615  0.09140  0.01869  1.0000
  S   S493      1.0  0.57070  0.07603  0.02040  1.0000
  Fe  Fe243     1.0  0.64415  0.26570  0.12037  1.0000
  S   S494      1.0  0.64783  0.25568  0.14860  1.0000
  S   S495      1.0  0.66469  0.25306  0.09907  1.0000
  Fe  Fe244     1.0  0.60710  0.28907  0.13152  1.0000
  S   S496      1.0  0.60815  0.28020  0.16060  1.0000
  H   H2881     1.0  0.83601  0.25533  0.22422  1.0000
  Fe  Fe245     1.0  0.63667  0.28411  0.15165  1.0000
  H   H2882     1.0  0.76159  0.07551  0.07349  1.0000
  Fe  Fe246     1.0  0.61913  0.25283  0.15431  1.0000
  S   S497      1.0  0.61016  0.22742  0.17036  1.0000
  S   S498      1.0  0.63495  0.29461  0.12259  1.0000
  S   S499      1.0  0.61618  0.26158  0.12600  1.0000
  C   C1678     1.0  0.93330  0.05966  0.99171  1.0000
  H   H2883     1.0  0.51993  0.99975  0.05865  1.0000
  C   C1679     1.0  0.80994  0.10565  0.19614  1.0000
  H   H2884     1.0  0.53582  0.10049  0.09979  1.0000
  H   H2885     1.0  0.49123  0.25636  0.03526  1.0000
  H   H2886     1.0  0.60824  0.17431  0.13475  1.0000
  C   C1680     1.0  0.52501  0.13852  0.09124  1.0000
  S   S500      1.0  0.89654  0.13886  0.19644  1.0000
  H   H2887     1.0  0.83564  0.04828  0.20281  1.0000
  Fe  Fe247     1.0  0.81627  0.09531  0.14119  1.0000
  S   S501      1.0  0.84087  0.10704  0.13428  1.0000
  S   S502      1.0  0.78902  0.11378  0.14366  1.0000
  Fe  Fe248     1.0  0.83814  0.05727  0.14282  1.0000
  S   S503      1.0  0.86456  0.06576  0.13551  1.0000
  S   S504      1.0  0.83439  0.02894  0.14993  1.0000
  Fe  Fe249     1.0  0.85144  0.08402  0.15496  1.0000
  S   S505      1.0  0.86242  0.08224  0.17938  1.0000
  Fe  Fe250     1.0  0.85171  0.08787  0.11551  1.0000
  S   S506      1.0  0.86134  0.09770  0.08603  1.0000
  S   S507      1.0  0.82572  0.07399  0.16342  1.0000
  S   S508      1.0  0.82646  0.07763  0.12125  1.0000
  Fe  Fe251     1.0  0.89551  0.03363  0.02150  1.0000
  S   S509      1.0  0.87628  0.01510  0.03251  1.0000
  S   S510      1.0  0.90826  0.04076  0.04038  1.0000
  H   H2888     1.0  0.59120  0.27828  0.09423  1.0000
  C   C1681     1.0  0.62554  0.15360  0.02465  1.0000
  Fe  Fe252     1.0  0.86153  0.03183  0.01097  1.0000
  S   S511      1.0  0.83156  0.04295  0.01580  1.0000
  H   H2889     1.0  0.54666  0.12290  0.10552  1.0000
  S   S512      1.0  0.87930  0.05185  0.00199  1.0000
  S   S513      1.0  0.91373  0.01788  0.00145  1.0000
  Fe  Fe253     1.0  0.56947  0.18947  0.08076  1.0000
  S   S514      1.0  0.54868  0.18098  0.10450  1.0000
  S   S515      1.0  0.59033  0.16775  0.06955  1.0000
  Fe  Fe254     1.0  0.55512  0.22903  0.08067  1.0000
  S   S516      1.0  0.53305  0.22362  0.10446  1.0000
  S   S517      1.0  0.55711  0.25794  0.06926  1.0000
  Fe  Fe255     1.0  0.55434  0.20195  0.11560  1.0000
  S   S518      1.0  0.55735  0.19559  0.14424  1.0000
  Fe  Fe256     1.0  0.52960  0.20330  0.09099  1.0000
  S   S519      1.0  0.57669  0.20871  0.09284  1.0000
  S   S520      1.0  0.55013  0.21039  0.06627  1.0000
  S   S521      1.0  0.70531  0.07691  0.00320  1.0000
  H   H2890     1.0  0.51510  0.05982  0.02357  1.0000
  H   H2891     1.0  0.85847  0.04533  0.08489  1.0000
  S   S522      1.0  0.87705  0.01514  0.99085  1.0000
  C   C1682     1.0  0.82010  0.04376  0.99904  1.0000
  H   H2892     1.0  0.93657  0.05368  0.97974  1.0000
  C   C1683     1.0  0.65424  0.03915  0.99326  1.0000
  C   C1684     1.0  0.87377  0.08112  0.07401  1.0000
  C   C1685     1.0  0.88908  0.06960  0.07916  1.0000
  C   C1686     1.0  0.89976  0.05746  0.06858  1.0000
  C   C1687     1.0  0.89471  0.05618  0.05329  1.0000
  C   C1688     1.0  0.87922  0.06743  0.04832  1.0000
  C   C1689     1.0  0.86901  0.08016  0.05844  1.0000
  H   H2893     1.0  0.89303  0.07052  0.09096  1.0000
  H   H2894     1.0  0.91194  0.04904  0.07228  1.0000
  H   H2895     1.0  0.87533  0.06664  0.03645  1.0000
  H   H2896     1.0  0.85746  0.08926  0.05413  1.0000
  C   C1690     1.0  0.85375  0.01346  0.15439  1.0000
  C   C1691     1.0  0.85243  0.99805  0.16780  1.0000
  C   C1692     1.0  0.63121  0.14436  0.12737  1.0000
  C   C1693     1.0  0.87056  0.01635  0.14454  1.0000
  H   H2897     1.0  0.79563  0.05948  0.01127  1.0000
  H   H2898     1.0  0.78410  0.06558  0.06583  1.0000
  H   H2899     1.0  0.87161  0.02810  0.13404  1.0000
  C   C1694     1.0  0.88787  0.12262  0.19154  1.0000
  C   C1695     1.0  0.88234  0.10856  0.20495  1.0000
  C   C1696     1.0  0.87494  0.09610  0.20086  1.0000
  C   C1697     1.0  0.87275  0.09773  0.18341  1.0000
  C   C1698     1.0  0.87840  0.11168  0.16994  1.0000
  C   C1699     1.0  0.88605  0.12402  0.17400  1.0000
  H   H2900     1.0  0.93430  0.06799  0.19504  1.0000
  H   H2901     1.0  0.87057  0.08537  0.21137  1.0000
  H   H2902     1.0  0.87690  0.11297  0.15644  1.0000
  H   H2903     1.0  0.89038  0.13484  0.16356  1.0000
  H   H2904     1.0  0.89900  0.00587  0.14004  1.0000
  H   H2905     1.0  0.57669  0.99572  0.02431  1.0000
  H   H2906     1.0  0.64424  0.09661  0.01425  1.0000
  H   H2907     1.0  0.91347  0.07831  0.20794  1.0000
  C   C1700     1.0  0.66060  0.27605  0.19121  1.0000
  S   S523      1.0  0.50350  0.20171  0.08526  1.0000
  C   C1701     1.0  0.92046  0.08924  0.00008  1.0000
  C   C1702     1.0  0.88601  0.00372  0.14786  1.0000
  C   C1703     1.0  0.53375  0.28113  0.01892  1.0000
  C   C1704     1.0  0.53331  0.29219  0.03034  1.0000
  C   C1705     1.0  0.54115  0.28512  0.04541  1.0000
  C   C1706     1.0  0.54888  0.26690  0.04945  1.0000
  C   C1707     1.0  0.54960  0.25596  0.03785  1.0000
  C   C1708     1.0  0.54229  0.26312  0.02250  1.0000
  H   H2908     1.0  0.58453  0.14728  0.10729  1.0000
  H   H2909     1.0  0.54095  0.29371  0.05407  1.0000
  H   H2910     1.0  0.55604  0.24204  0.04051  1.0000
  H   H2911     1.0  0.67370  0.16330  0.00575  1.0000
  C   C1709     1.0  0.58340  0.00006  0.01024  1.0000
  H   H2912     1.0  0.58232  0.16338  0.16079  1.0000
  C   C1710     1.0  0.86089  0.03244  0.19042  1.0000
  H   H2913     1.0  0.49770  0.28458  0.09394  1.0000
  H   H2914     1.0  0.64775  0.12617  0.14521  1.0000
  C   C1711     1.0  0.82965  0.13219  0.17082  1.0000
  C   C1712     1.0  0.59606  0.21861  0.16219  1.0000
  C   C1713     1.0  0.58592  0.20676  0.17423  1.0000
  C   C1714     1.0  0.57417  0.19986  0.16850  1.0000
  C   C1715     1.0  0.57253  0.20455  0.15060  1.0000
  C   C1716     1.0  0.58304  0.21596  0.13834  1.0000
  C   C1717     1.0  0.59483  0.22291  0.14413  1.0000
  H   H2915     1.0  0.58683  0.20320  0.18815  1.0000
  H   H2916     1.0  0.56615  0.19101  0.17805  1.0000
  H   H2917     1.0  0.58196  0.21958  0.12449  1.0000
  H   H2918     1.0  0.60299  0.23144  0.13457  1.0000
  C   C1718     1.0  0.54959  0.02727  0.04927  1.0000
  C   C1719     1.0  0.55057  0.03289  0.03085  1.0000
  C   C1720     1.0  0.54033  0.02675  0.02251  1.0000
  C   C1721     1.0  0.67581  0.30014  0.20017  1.0000
  H   H2919     1.0  0.55921  0.04198  0.02305  1.0000
  H   H2920     1.0  0.54100  0.03125  0.00828  1.0000
  H   H2921     1.0  0.85368  0.03091  0.10608  1.0000
  C   C1722     1.0  0.56739  0.13350  0.04635  1.0000
  C   C1723     1.0  0.58291  0.12621  0.05332  1.0000
  C   C1724     1.0  0.58958  0.13658  0.06103  1.0000
  C   C1725     1.0  0.58086  0.15431  0.06160  1.0000
  C   C1726     1.0  0.56509  0.16141  0.05508  1.0000
  C   C1727     1.0  0.55842  0.15105  0.04737  1.0000
  H   H2922     1.0  0.58982  0.11260  0.05272  1.0000
  H   H2923     1.0  0.60157  0.13089  0.06640  1.0000
  H   H2924     1.0  0.55828  0.17507  0.05549  1.0000
  H   H2925     1.0  0.54642  0.15674  0.04200  1.0000
  C   C1728     1.0  0.74941  0.09935  0.11903  1.0000
  C   C1729     1.0  0.74548  0.11584  0.12412  1.0000
  C   C1730     1.0  0.75739  0.12000  0.13226  1.0000
  C   C1731     1.0  0.77322  0.10771  0.13530  1.0000
  C   C1732     1.0  0.77673  0.09103  0.13076  1.0000
  C   C1733     1.0  0.76490  0.08689  0.12263  1.0000
  H   H2926     1.0  0.73351  0.12551  0.12143  1.0000
  H   H2927     1.0  0.75453  0.13291  0.13582  1.0000
  H   H2928     1.0  0.78855  0.08125  0.13355  1.0000
  H   H2929     1.0  0.76788  0.07403  0.11896  1.0000
  C   C1734     1.0  0.66642  0.19305  0.10907  1.0000
  C   C1735     1.0  0.65227  0.20415  0.11828  1.0000
  C   C1736     1.0  0.65173  0.22248  0.11517  1.0000
  C   C1737     1.0  0.66499  0.23008  0.10230  1.0000
  C   C1738     1.0  0.67862  0.21917  0.09223  1.0000
  C   C1739     1.0  0.67944  0.20060  0.09570  1.0000
  H   H2930     1.0  0.64194  0.19843  0.12833  1.0000
  H   H2931     1.0  0.64123  0.23056  0.12311  1.0000
  H   H2932     1.0  0.68891  0.22496  0.08220  1.0000
  H   H2933     1.0  0.69050  0.19209  0.08861  1.0000
  C   C1740     1.0  0.64496  0.09556  0.08747  1.0000
  C   C1741     1.0  0.65999  0.08620  0.07744  1.0000
  C   C1742     1.0  0.65781  0.07652  0.06587  1.0000
  C   C1743     1.0  0.64066  0.07669  0.06378  1.0000
  C   C1744     1.0  0.62562  0.08646  0.07343  1.0000
  C   C1745     1.0  0.62777  0.09568  0.08547  1.0000
  H   H2934     1.0  0.67325  0.08589  0.07906  1.0000
  H   H2935     1.0  0.66943  0.06876  0.05861  1.0000
  H   H2936     1.0  0.61235  0.08662  0.07189  1.0000
  H   H2937     1.0  0.61610  0.10295  0.09320  1.0000
  C   C1746     1.0  0.70566  0.12397  0.02645  1.0000
  C   C1747     1.0  0.71496  0.12282  0.00901  1.0000
  C   C1748     1.0  0.71428  0.10884  0.00145  1.0000
  C   C1749     1.0  0.70435  0.09590  0.01134  1.0000
  C   C1750     1.0  0.69440  0.09753  0.02846  1.0000
  C   C1751     1.0  0.69499  0.11155  0.03598  1.0000
  H   H2938     1.0  0.72303  0.13254  0.00144  1.0000
  H   H2939     1.0  0.89006  0.04714  0.18748  1.0000
  H   H2940     1.0  0.68652  0.08770  0.03605  1.0000
  H   H2941     1.0  0.68725  0.11266  0.04918  1.0000
  C   C1752     1.0  0.49616  0.14732  0.07010  1.0000
  C   C1753     1.0  0.50502  0.26453  0.07695  1.0000
  H   H2942     1.0  0.64776  0.06758  0.00788  1.0000
  H   H2943     1.0  0.81830  0.13172  0.16511  1.0000
  H   H2944     1.0  0.79871  0.14452  0.20757  1.0000
  C   C1754     1.0  0.65919  0.29359  0.18130  1.0000
  H   H2945     1.0  0.49740  0.23425  0.09563  1.0000
  C   C1755     1.0  0.83921  0.14670  0.15781  1.0000
  H   H2946     1.0  0.57511  0.01245  0.00398  1.0000
  N   N118      1.0  0.61656  0.25574  0.07017  1.0000
  C   C1756     1.0  0.60377  0.27347  0.06710  1.0000
  C   C1757     1.0  0.62044  0.24752  0.05402  1.0000
  C   C1758     1.0  0.63401  0.25799  0.07293  1.0000
  C   C1759     1.0  0.60807  0.24392  0.08669  1.0000
  H   H2947     1.0  0.64934  0.01634  0.98608  1.0000
  C   C1760     1.0  0.60423  0.24315  0.04972  1.0000
  C   C1761     1.0  0.64301  0.27234  0.05888  1.0000
  C   C1762     1.0  0.61811  0.22423  0.09030  1.0000
  H   H2948     1.0  0.60867  0.28198  0.05403  1.0000
  H   H2949     1.0  0.59056  0.27163  0.06612  1.0000
  H   H2950     1.0  0.63088  0.23502  0.05526  1.0000
  H   H2951     1.0  0.62613  0.25659  0.04180  1.0000
  H   H2952     1.0  0.63231  0.26104  0.08629  1.0000
  H   H2953     1.0  0.64423  0.24536  0.07302  1.0000
  H   H2954     1.0  0.60670  0.24923  0.09877  1.0000
  H   H2955     1.0  0.59414  0.24394  0.08596  1.0000
  C   C1763     1.0  0.54484  0.29987  0.10464  1.0000
  H   H2956     1.0  0.66274  0.10758  0.00793  1.0000
  H   H2957     1.0  0.92565  0.07139  0.02538  1.0000
  H   H2958     1.0  0.60899  0.23634  0.03822  1.0000
  C   C1764     1.0  0.86797  0.98570  0.17157  1.0000
  H   H2959     1.0  0.91641  0.98446  0.03983  1.0000
  H   H2960     1.0  0.65584  0.27228  0.06229  1.0000
  H   H2961     1.0  0.63482  0.28601  0.05884  1.0000
  H   H2962     1.0  0.64639  0.26954  0.04526  1.0000
  C   C1765     1.0  0.80499  0.14581  0.19310  1.0000
  H   H2963     1.0  0.63282  0.22213  0.08572  1.0000
  H   H2964     1.0  0.76483  0.04475  0.02397  1.0000
  N   N119      1.0  0.79908  0.11665  0.07731  1.0000
  C   C1766     1.0  0.77952  0.12510  0.08250  1.0000
  C   C1767     1.0  0.80817  0.11786  0.09143  1.0000
  C   C1768     1.0  0.80021  0.09722  0.07771  1.0000
  C   C1769     1.0  0.80652  0.12634  0.05883  1.0000
  C   C1770     1.0  0.76689  0.12328  0.07137  1.0000
  C   C1771     1.0  0.80658  0.13685  0.09415  1.0000
  C   C1772     1.0  0.81905  0.08582  0.07284  1.0000
  C   C1773     1.0  0.82701  0.12536  0.05374  1.0000
  H   H2965     1.0  0.77411  0.11947  0.09664  1.0000
  H   H2966     1.0  0.77772  0.13969  0.08170  1.0000
  H   H2967     1.0  0.82260  0.11170  0.08902  1.0000
  H   H2968     1.0  0.80259  0.11000  0.10462  1.0000
  H   H2969     1.0  0.79373  0.09056  0.09120  1.0000
  H   H2970     1.0  0.79277  0.09580  0.06817  1.0000
  H   H2971     1.0  0.80280  0.12151  0.04852  1.0000
  H   H2972     1.0  0.80031  0.14086  0.05708  1.0000
  H   H2973     1.0  0.75369  0.13225  0.07474  1.0000
  H   H2974     1.0  0.77196  0.12718  0.05680  1.0000
  H   H2975     1.0  0.76420  0.10956  0.07484  1.0000
  H   H2976     1.0  0.80979  0.14637  0.08138  1.0000
  H   H2977     1.0  0.79301  0.14193  0.10164  1.0000
  H   H2978     1.0  0.81617  0.13635  0.10247  1.0000
  H   H2979     1.0  0.82508  0.08989  0.05850  1.0000
  H   H2980     1.0  0.81793  0.07168  0.07495  1.0000
  H   H2981     1.0  0.82818  0.08592  0.08132  1.0000
  H   H2982     1.0  0.83189  0.12441  0.03947  1.0000
  H   H2983     1.0  0.83507  0.11389  0.06138  1.0000
  H   H2984     1.0  0.83020  0.13789  0.05476  1.0000
  H   H2985     1.0  0.83939  0.99579  0.17540  1.0000
  H   H2986     1.0  0.64813  0.15212  0.05205  1.0000
  H   H2987     1.0  0.62464  0.13023  0.15566  1.0000
  C   C1774     1.0  0.59559  0.15559  0.15536  1.0000
  H   H2988     1.0  0.50892  0.04299  0.05172  1.0000
  H   H2989     1.0  0.65477  0.26672  0.18781  1.0000
  C   C1775     1.0  0.86083  0.00190  0.22621  1.0000
  C   C1776     1.0  0.86851  0.01729  0.08372  1.0000
  C   C1777     1.0  0.86650  0.04023  0.21664  1.0000
  C   C1778     1.0  0.68152  0.04125  0.02657  1.0000
  H   H2990     1.0  0.62693  0.16371  0.03136  1.0000
  C   C1779     1.0  0.95470  0.03515  0.21253  1.0000
  H   H2991     1.0  0.83678  0.02432  0.20934  1.0000
  H   H2992     1.0  0.86532  0.05448  0.20967  1.0000
  H   H2993     1.0  0.61177  0.28644  0.08493  1.0000
  H   H2994     1.0  0.83986  0.15300  0.18786  1.0000
  H   H2995     1.0  0.85270  0.03934  0.22407  1.0000
  C   C1780     1.0  0.82845  0.03527  0.98469  1.0000
  H   H2996     1.0  0.59204  0.29793  0.07700  1.0000
  H   H2997     1.0  0.65326  0.09977  0.03121  1.0000
  C   C1781     1.0  0.66674  0.30558  0.18593  1.0000
  C   C1782     1.0  0.67720  0.28264  0.21012  1.0000
  H   H2998     1.0  0.53333  0.09952  0.06192  1.0000
  H   H2999     1.0  0.95946  0.04216  0.99475  1.0000
  H   H3000     1.0  0.59613  0.99047  0.98619  1.0000
  H   H3001     1.0  0.54610  0.11244  0.07899  1.0000
  H   H3002     1.0  0.90333  0.02032  0.07808  1.0000
  H   H3003     1.0  0.56910  0.31013  0.18374  1.0000
  H   H3004     1.0  0.83133  0.16039  0.15799  1.0000
  H   H3005     1.0  0.55799  0.30194  0.07703  1.0000
  H   H3006     1.0  0.85007  0.13057  0.19413  1.0000
  H   H3007     1.0  0.67344  0.02142  0.01849  1.0000
  H   H3008     1.0  0.55329  0.98645  0.02032  1.0000
  H   H3009     1.0  0.53469  0.14370  0.07923  1.0000
  H   H3010     1.0  0.53887  0.14546  0.10805  1.0000
  N   N120      1.0  0.87339  0.02826  0.20322  1.0000
  C   C1783     1.0  0.89122  0.03243  0.19250  1.0000
  C   C1784     1.0  0.65013  0.10611  0.01789  1.0000
  H   H3011     1.0  0.65192  0.04631  0.97988  1.0000
  Fe  Fe257     1.0  0.89566  0.03435  0.98279  1.0000
  C   C1785     1.0  0.89953  0.02369  0.17609  1.0000
  H   H3012     1.0  0.51924  0.08900  0.04046  1.0000
  H   H3013     1.0  0.50725  0.12056  0.06647  1.0000
  H   H3014     1.0  0.91392  0.99772  0.07577  1.0000
  C   C1786     1.0  0.49668  0.17601  0.11568  1.0000
  H   H3015     1.0  0.51298  0.04387  0.08017  1.0000
  H   H3016     1.0  0.62318  0.12084  0.02519  1.0000
  C   C1787     1.0  0.83698  0.14004  0.19611  1.0000
  H   H3017     1.0  0.61269  0.21595  0.08446  1.0000
  C   C1788     1.0  0.92605  0.08532  0.01817  1.0000
  H   H3018     1.0  0.84296  0.14789  0.21790  1.0000
  H   H3019     1.0  0.79558  0.14138  0.18765  1.0000
  H   H3020     1.0  0.90164  0.00891  0.17968  1.0000
  H   H3021     1.0  0.89138  0.02895  0.16564  1.0000
  H   H3022     1.0  0.91290  0.02706  0.16995  1.0000
  H   H3023     1.0  0.61145  0.17574  0.00747  1.0000
  H   H3024     1.0  0.93925  0.08845  0.01699  1.0000
  S   S524      1.0  0.73359  0.28987  0.22535  1.0000
  H   H3025     1.0  0.55618  0.00578  0.99171  1.0000
  H   H3026     1.0  0.79197  0.17367  0.19263  1.0000
  H   H3027     1.0  0.89613  0.09416  0.97850  1.0000
  C   C1789     1.0  0.53339  0.10793  0.08634  1.0000
  H   H3028     1.0  0.85580  0.01692  0.08032  1.0000
  H   H3029     1.0  0.51918  0.08917  0.08169  1.0000
  H   H3030     1.0  0.69960  0.16101  0.17342  1.0000
  C   C1790     1.0  0.51169  0.13084  0.07052  1.0000
  C   C1791     1.0  0.52835  0.00908  0.05088  1.0000
  Fe  Fe258     1.0  0.89354  0.00023  0.01148  1.0000
  H   H3031     1.0  0.81441  0.10403  0.18209  1.0000
  N   N121      1.0  0.61259  0.15098  0.12345  1.0000
  C   C1792     1.0  0.61431  0.16121  0.10433  1.0000
  C   C1793     1.0  0.62550  0.17586  0.09889  1.0000
  H   H3032     1.0  0.62038  0.15195  0.09486  1.0000
  H   H3033     1.0  0.60091  0.16802  0.10134  1.0000
  H   H3034     1.0  0.61256  0.12697  0.11521  1.0000
  H   H3035     1.0  0.64097  0.14018  0.11549  1.0000
  H   H3036     1.0  0.63597  0.15532  0.13002  1.0000
  H   H3037     1.0  0.62027  0.18599  0.10733  1.0000
  H   H3038     1.0  0.63983  0.17021  0.09916  1.0000
  H   H3039     1.0  0.62490  0.18285  0.08489  1.0000
  C   C1794     1.0  0.52910  0.01496  0.03253  1.0000
  N   N122      1.0  0.66645  0.19847  0.16934  1.0000
  C   C1795     1.0  0.65558  0.21134  0.18123  1.0000
  C   C1796     1.0  0.65321  0.19218  0.16286  1.0000
  C   C1797     1.0  0.67758  0.20875  0.15349  1.0000
  C   C1798     1.0  0.67810  0.18350  0.17995  1.0000
  C   C1799     1.0  0.66619  0.22087  0.18845  1.0000
  C   C1800     1.0  0.64040  0.18163  0.17740  1.0000
  C   C1801     1.0  0.69096  0.19794  0.14028  1.0000
  C   C1802     1.0  0.68511  0.16573  0.17316  1.0000
  H   H3040     1.0  0.64605  0.22198  0.17416  1.0000
  H   H3041     1.0  0.64710  0.20445  0.19321  1.0000
  H   H3042     1.0  0.65984  0.18386  0.15278  1.0000
  H   H3043     1.0  0.64460  0.20385  0.15570  1.0000
  H   H3044     1.0  0.66872  0.21953  0.14568  1.0000
  H   H3045     1.0  0.68595  0.21553  0.15778  1.0000
  H   H3046     1.0  0.68998  0.18806  0.18093  1.0000
  H   H3047     1.0  0.67068  0.17995  0.19398  1.0000
  H   H3048     1.0  0.65685  0.22773  0.19891  1.0000
  H   H3049     1.0  0.91982  0.05707  0.99906  1.0000
  H   H3050     1.0  0.49828  0.09228  0.10721  1.0000
  H   H3051     1.0  0.63310  0.17579  0.17080  1.0000
  H   H3052     1.0  0.64751  0.17050  0.18638  1.0000
  H   H3053     1.0  0.63001  0.19050  0.18539  1.0000
  H   H3054     1.0  0.68462  0.19005  0.13502  1.0000
  H   H3055     1.0  0.70220  0.18913  0.14630  1.0000
  H   H3056     1.0  0.69687  0.20737  0.12854  1.0000
  H   H3057     1.0  0.53384  0.06794  0.03713  1.0000
  H   H3058     1.0  0.68387  0.16634  0.15944  1.0000
  H   H3059     1.0  0.67840  0.15507  0.18235  1.0000
  N   N123      1.0  0.64095  0.13768  0.02515  1.0000
  H   H3060     1.0  0.69348  0.02838  0.99155  1.0000
  C   C1803     1.0  0.66460  0.15748  0.01788  1.0000
  C   C1804     1.0  0.65834  0.14230  0.01386  1.0000
  H   H3061     1.0  0.63311  0.12029  0.05072  1.0000
  H   H3062     1.0  0.86402  0.02168  0.18276  1.0000
  C   C1805     1.0  0.86268  0.99312  0.10959  1.0000
  H   H3063     1.0  0.95760  0.07933  0.99355  1.0000
  H   H3064     1.0  0.63517  0.12919  0.00355  1.0000
  C   C1806     1.0  0.58802  0.98526  0.99939  1.0000
  H   H3065     1.0  0.77874  0.05996  0.98861  1.0000
  C   C1807     1.0  0.95110  0.08403  0.98188  1.0000
  C   C1808     1.0  0.50854  0.07245  0.02833  1.0000
  C   C1809     1.0  0.83244  0.14212  0.21571  1.0000
  C   C1810     1.0  0.64282  0.12927  0.04422  1.0000
  C   C1811     1.0  0.82180  0.11547  0.20135  1.0000
  C   C1812     1.0  0.62234  0.16378  0.00595  1.0000
  C   C1813     1.0  0.89268  0.99975  0.10001  1.0000
  H   H3066     1.0  0.81087  0.09197  0.20458  1.0000
  H   H3067     1.0  0.65834  0.14522  0.99933  1.0000
  C   C1814     1.0  0.66123  0.06539  0.99889  1.0000
  H   H3068     1.0  0.67011  0.07047  0.00434  1.0000
  H   H3069     1.0  0.59740  0.23397  0.06091  1.0000
  H   H3070     1.0  0.90691  0.08597  0.00344  1.0000
  H   H3071     1.0  0.68219  0.03199  0.03969  1.0000
  H   H3072     1.0  0.67171  0.23152  0.17795  1.0000
  C   C1815     1.0  0.80215  0.05281  0.00028  1.0000
  H   H3073     1.0  0.88882  0.00802  0.11032  1.0000
  H   H3074     1.0  0.49384  0.08894  0.05870  1.0000
  N   N124      1.0  0.82329  0.13386  0.19017  1.0000
  H   H3075     1.0  0.74135  0.04356  0.03192  1.0000
  H   H3076     1.0  0.88367  0.10737  0.21850  1.0000
  H   H3077     1.0  0.87739  0.02132  0.07059  1.0000
  C   C1816     1.0  0.50757  0.05695  0.07208  1.0000
  H   H3078     1.0  0.49492  0.04755  0.01844  1.0000
  H   H3079     1.0  0.95142  0.07176  0.21597  1.0000
  C   C1817     1.0  0.63979  0.14191  0.05707  1.0000
  H   H3080     1.0  0.59601  0.00361  0.01063  1.0000
  H   H3081     1.0  0.61285  0.14940  0.03234  1.0000
  C   C1818     1.0  0.49209  0.10640  0.10224  1.0000
  H   H3082     1.0  0.84150  0.14461  0.14398  1.0000
  H   H3083     1.0  0.51400  0.15018  0.09367  1.0000
  H   H3084     1.0  0.69466  0.05106  0.98867  1.0000
  C   C1819     1.0  0.90791  0.00667  0.08541  1.0000
  H   H3085     1.0  0.53414  0.29370  0.10357  1.0000
  H   H3086     1.0  0.85881  0.00251  0.11889  1.0000
  C   C1820     1.0  0.79257  0.05313  0.98743  1.0000
  N   N125      1.0  0.74753  0.07095  0.04675  1.0000
  C   C1821     1.0  0.74686  0.07060  0.02797  1.0000
  C   C1822     1.0  0.74058  0.08989  0.04945  1.0000
  C   C1823     1.0  0.73602  0.05917  0.06043  1.0000
  C   C1824     1.0  0.76661  0.06419  0.04912  1.0000
  C   C1825     1.0  0.75088  0.05196  0.02340  1.0000
  C   C1826     1.0  0.75267  0.10330  0.03907  1.0000
  C   C1827     1.0  0.71625  0.06296  0.05878  1.0000
  C   C1828     1.0  0.77008  0.06421  0.06748  1.0000
  H   H3087     1.0  0.73358  0.07766  0.02487  1.0000
  H   H3088     1.0  0.75657  0.07807  0.01802  1.0000
  H   H3089     1.0  0.73760  0.09056  0.06381  1.0000
  H   H3090     1.0  0.72748  0.09544  0.04538  1.0000
  H   H3091     1.0  0.74179  0.04480  0.06023  1.0000
  H   H3092     1.0  0.73578  0.06047  0.07419  1.0000
  H   H3093     1.0  0.77136  0.05009  0.04748  1.0000
  H   H3094     1.0  0.77607  0.07131  0.03835  1.0000
  H   H3095     1.0  0.55563  0.28866  0.10900  1.0000
  H   H3096     1.0  0.96120  0.04669  0.20613  1.0000
  H   H3097     1.0  0.83266  0.12905  0.22520  1.0000
  H   H3098     1.0  0.75511  0.10438  0.02443  1.0000
  H   H3099     1.0  0.74570  0.11677  0.04169  1.0000
  H   H3100     1.0  0.76555  0.09999  0.04353  1.0000
  H   H3101     1.0  0.71479  0.06118  0.04583  1.0000
  H   H3102     1.0  0.70911  0.07653  0.06080  1.0000
  H   H3103     1.0  0.70921  0.05340  0.06941  1.0000
  H   H3104     1.0  0.76797  0.05158  0.07712  1.0000
  H   H3105     1.0  0.67208  0.15235  0.02888  1.0000
  H   H3106     1.0  0.65364  0.16879  0.02106  1.0000
  C   C1829     1.0  0.93681  0.07210  0.22079  1.0000
  C   C1830     1.0  0.66949  0.27064  0.20564  1.0000
  H   H3107     1.0  0.69537  0.04014  0.01852  1.0000
  H   H3108     1.0  0.83531  0.10655  0.20094  1.0000
  S   S525      1.0  0.64791  0.30136  0.16327  1.0000
  N   N126      1.0  0.66791  0.04577  0.99873  1.0000
  H   H3109     1.0  0.65588  0.01097  0.00706  1.0000
  N   N127      1.0  0.93281  0.07951  0.98601  1.0000
  H   H3110     1.0  0.94139  0.98589  0.10752  1.0000
  H   H3111     1.0  0.65628  0.12052  0.04467  1.0000
  H   H3112     1.0  0.93042  0.09081  0.19671  1.0000
  C   C1831     1.0  0.53858  0.01524  0.05923  1.0000
  C   C1832     1.0  0.63644  0.12401  0.01771  1.0000
  H   H3113     1.0  0.67048  0.25709  0.21331  1.0000
  H   H3114     1.0  0.89009  0.99254  0.06783  1.0000
  H   H3115     1.0  0.91869  0.00729  0.09173  1.0000
  H   H3116     1.0  0.63306  0.11577  0.13962  1.0000
  H   H3117     1.0  0.59439  0.25541  0.04563  1.0000
  C   C1833     1.0  0.60121  0.16361  0.13532  1.0000
  N   N128      1.0  0.87654  0.99913  0.09356  1.0000
  H   H3118     1.0  0.50859  0.11304  0.11590  1.0000
  C   C1834     1.0  0.84061  0.03535  0.19836  1.0000
  C   C1835     1.0  0.60415  0.13545  0.12480  1.0000
  H   H3119     1.0  0.57553  0.14867  0.13056  1.0000
  H   H3120     1.0  0.53788  0.01076  0.07347  1.0000
  S   S526      1.0  0.58055  0.30258  0.12383  1.0000
  H   H3121     1.0  0.94992  0.09881  0.97864  1.0000
  H   H3122     1.0  0.84220  0.02821  0.98359  1.0000
  C   C1836     1.0  0.92816  0.07735  0.20427  1.0000
  C   C1837     1.0  0.86404  0.03282  0.09366  1.0000
  C   C1838     1.0  0.59965  0.28442  0.08177  1.0000
  C   C1839     1.0  0.58494  0.14042  0.12132  1.0000
  H   H3123     1.0  0.57993  0.12796  0.12357  1.0000
  H   H3124     1.0  0.58889  0.17121  0.13031  1.0000
  H   H3125     1.0  0.52304  0.13439  0.05946  1.0000
  C   C1840     1.0  0.66882  0.03605  0.01771  1.0000
  H   H3126     1.0  0.87985  0.00034  0.20171  1.0000
  H   H3127     1.0  0.49169  0.15024  0.05726  1.0000
  H   H3128     1.0  0.83939  0.11933  0.16968  1.0000
  C   C1841     1.0  0.56212  0.99420  0.98506  1.0000
  H   H3129     1.0  0.53053  0.08662  0.01876  1.0000
  S   S527      1.0  0.51653  0.00749  0.02168  1.0000
  H   H3130     1.0  0.60539  0.15632  0.16287  1.0000
  H   H3131     1.0  0.81946  0.15137  0.21897  1.0000
  C   C1842     1.0  0.63396  0.12826  0.14296  1.0000
  H   H3132     1.0  0.50383  0.08152  0.01640  1.0000
  H   H3133     1.0  0.64318  0.13389  0.06990  1.0000
  H   H3134     1.0  0.52527  0.12970  0.12010  1.0000
  C   C1843     1.0  0.94705  0.04838  0.00322  1.0000
  N   N129      1.0  0.51802  0.12383  0.08793  1.0000
  H   H3135     1.0  0.61550  0.21885  0.10494  1.0000
  C   C1844     1.0  0.53444  0.13353  0.10720  1.0000
  C   C1845     1.0  0.65845  0.01900  0.99326  1.0000
  H   H3136     1.0  0.62551  0.14848  0.06026  1.0000
  H   H3137     1.0  0.51594  0.25254  0.07525  1.0000
  H   H3138     1.0  0.50793  0.27436  0.06435  1.0000
  H   H3139     1.0  0.60362  0.12628  0.13802  1.0000
  H   H3140     1.0  0.59358  0.14176  0.15825  1.0000
  H   H3141     1.0  0.87607  0.03520  0.09668  1.0000
  H   H3142     1.0  0.54287  0.25457  0.01358  1.0000
  S   S528      1.0  0.52343  0.28931  0.00037  1.0000
  H   H3143     1.0  0.49080  0.15586  0.13934  1.0000
  H   H3144     1.0  0.54293  0.08229  0.07821  1.0000
  C   C1846     1.0  0.88473  0.98849  0.16144  1.0000
  N   N130      1.0  0.49319  0.06939  0.04389  1.0000
  H   H3145     1.0  0.65523  0.03785  0.02657  1.0000
  H   H3146     1.0  0.91609  0.09391  0.02682  1.0000
  C   C1847     1.0  0.50316  0.11929  0.10359  1.0000
  C   C1848     1.0  0.52379  0.07926  0.03164  1.0000
  H   H3147     1.0  0.81518  0.17119  0.18463  1.0000
  H   H3148     1.0  0.58345  0.05197  0.98642  1.0000
  C   C1849     1.0  0.53179  0.09409  0.07651  1.0000
  H   H3149     1.0  0.67699  0.21148  0.19472  1.0000
  C   C1850     1.0  0.68637  0.04233  0.98706  1.0000
  H   H3150     1.0  0.53983  0.30762  0.11536  1.0000
  H   H3151     1.0  0.74936  0.05368  0.00944  1.0000
  C   C1851     1.0  0.88229  0.98644  0.08084  1.0000
  H   H3152     1.0  0.92559  0.04260  0.21602  1.0000
  H   H3153     1.0  0.79560  0.11235  0.19857  1.0000
  H   H3154     1.0  0.95044  0.05543  0.01185  1.0000
  C   C1852     1.0  0.55276  0.31114  0.08661  1.0000
  H   H3155     1.0  0.95358  0.02961  0.20141  1.0000
  H   H3156     1.0  0.85165  0.22880  0.21929  1.0000
  H   H3157     1.0  0.52558  0.30889  0.07690  1.0000
  C   C1853     1.0  0.87644  0.00868  0.21196  1.0000
  H   H3158     1.0  0.81621  0.11598  0.21567  1.0000
  H   H3159     1.0  0.51890  0.06384  0.06611  1.0000
  H   H3160     1.0  0.67648  0.05483  0.02953  1.0000
  C   C1854     1.0  0.80357  0.16585  0.18460  1.0000
  C   C1855     1.0  0.54627  0.99005  0.97985  1.0000
  H   H3161     1.0  0.61767  0.15571  0.99919  1.0000
  H   H3162     1.0  0.53371  0.99271  0.98992  1.0000
  Fe  Fe259     1.0  0.49252  0.99666  0.03918  1.0000
  C   C1856     1.0  0.93588  0.04011  0.22417  1.0000
  H   H3163     1.0  0.83344  0.03610  0.18772  1.0000
  H   H3164     1.0  0.67237  0.01424  0.98643  1.0000
  H   H3165     1.0  0.85264  0.14560  0.16048  1.0000
  H   H3166     1.0  0.86285  0.04484  0.18022  1.0000
  H   H3167     1.0  0.91853  0.10397  0.99494  1.0000
  S   S529      1.0  0.61403  0.06837  0.97978  1.0000
  H   H3168     1.0  0.66951  0.13051  0.01531  1.0000
  H   H3169     1.0  0.63434  0.16864  0.99733  1.0000
  H   H3170     1.0  0.96373  0.02500  0.22057  1.0000
  H   H3171     1.0  0.94145  0.03695  0.01228  1.0000
  H   H3172     1.0  0.80138  0.16867  0.17074  1.0000
  H   H3173     1.0  0.50809  0.17822  0.11938  1.0000
  H   H3174     1.0  0.52718  0.30621  0.02740  1.0000
  C   C1857     1.0  0.49159  0.18581  0.09973  1.0000
  H   H3175     1.0  0.64086  0.04214  0.00218  1.0000
  H   H3176     1.0  0.65389  0.09188  0.98298  1.0000
  H   H3177     1.0  0.85297  0.99612  0.22015  1.0000
  H   H3178     1.0  0.50955  0.25797  0.04342  1.0000
  H   H3179     1.0  0.56465  0.31466  0.08889  1.0000
  H   H3180     1.0  0.88852  0.00457  0.21804  1.0000
  C   C1858     1.0  0.50782  0.27230  0.09177  1.0000
  H   H3181     1.0  0.90148  0.02817  0.20093  1.0000
  H   H3182     1.0  0.84980  0.99379  0.10588  1.0000
  H   H3183     1.0  0.89119  0.04051  0.22475  1.0000
  H   H3184     1.0  0.52115  0.27602  0.08759  1.0000
  H   H3185     1.0  0.85722  0.99213  0.07091  1.0000
  H   H3186     1.0  0.57905  0.31408  0.16056  1.0000
  H   H3187     1.0  0.68167  0.30948  0.20346  1.0000
  H   H3188     1.0  0.50045  0.15944  0.07063  1.0000
  C   C1859     1.0  0.49474  0.26152  0.04541  1.0000
  Fe  Fe260     1.0  0.89606  0.13759  0.22549  1.0000
  H   H3189     1.0  0.50803  0.26234  0.10450  1.0000
  H   H3190     1.0  0.89873  0.98621  0.10686  1.0000
  H   H3191     1.0  0.49307  0.23814  0.06569  1.0000
  C   C1860     1.0  0.65990  0.07813  0.98072  1.0000
  C   C1861     1.0  0.49914  0.05357  0.05803  1.0000
  H   H3192     1.0  0.49735  0.06446  0.08153  1.0000
  Fe  Fe261     1.0  0.50219  0.31433  0.00165  1.0000
  H   H3193     1.0  0.49362  0.13152  0.10714  1.0000
  H   H3194     1.0  0.93189  0.08362  0.22759  1.0000
  H   H3195     1.0  0.91092  0.03464  0.31500  1.0000
  N   N131      1.0  0.74844  0.30755  0.32969  1.0000
  H   H3196     1.0  0.93730  0.00546  0.27561  1.0000
  S   S530      1.0  0.88243  0.08730  0.27603  1.0000
  C   C1862     1.0  0.72056  0.27468  0.43213  1.0000
  Fe  Fe262     1.0  0.97466  0.98437  0.32105  1.0000
  H   H3197     1.0  0.96218  0.26959  0.37108  1.0000
  Fe  Fe263     1.0  0.82240  0.25898  0.34631  1.0000
  S   S531      1.0  0.82299  0.28795  0.33687  1.0000
  S   S532      1.0  0.80054  0.25089  0.36931  1.0000
  Fe  Fe264     1.0  0.85586  0.24776  0.31843  1.0000
  S   S533      1.0  0.85883  0.27620  0.30723  1.0000
  S   S534      1.0  0.87792  0.22711  0.30624  1.0000
  Fe  Fe265     1.0  0.85256  0.27893  0.33586  1.0000
  Fe  Fe266     1.0  0.82888  0.28188  0.30948  1.0000
  H   H3198     1.0  0.80995  0.27494  0.25230  1.0000
  S   S535      1.0  0.85160  0.25006  0.34690  1.0000
  S   S536      1.0  0.82641  0.25321  0.31906  1.0000
  H   H3199     1.0  0.75345  0.30195  0.44742  1.0000
  S   S537      1.0  0.70458  0.29178  0.26288  1.0000
  C   C1863     1.0  0.64431  0.31446  0.46766  1.0000
  H   H3200     1.0  0.91494  0.25684  0.28186  1.0000
  H   H3201     1.0  0.83779  0.25054  0.28198  1.0000
  C   C1864     1.0  0.97357  0.23295  0.35241  1.0000
  H   H3202     1.0  0.91120  0.07051  0.24989  1.0000
  S   S538      1.0  0.96890  0.17940  0.32475  1.0000
  Fe  Fe267     1.0  0.73399  0.29169  0.25309  1.0000
  S   S539      1.0  0.75302  0.27327  0.27019  1.0000
  N   N132      1.0  0.93323  0.05507  0.23372  1.0000
  C   C1865     1.0  0.66402  0.27318  0.27648  1.0000
  H   H3203     1.0  0.88924  0.27144  0.39902  1.0000
  H   H3204     1.0  0.72190  0.30896  0.30958  1.0000
  H   H3205     1.0  0.83600  0.19772  0.29386  1.0000
  C   C1866     1.0  0.84404  0.25621  0.26813  1.0000
  C   C1867     1.0  0.68382  0.31000  0.32105  1.0000
  S   S540      1.0  0.93766  0.04649  0.32562  1.0000
  S   S541      1.0  0.85652  0.17681  0.26810  1.0000
  C   C1868     1.0  0.74641  0.27627  0.45766  1.0000
  S   S542      1.0  0.89311  0.13377  0.27598  1.0000
  Fe  Fe268     1.0  0.70373  0.29292  0.23439  1.0000
  C   C1869     1.0  0.79715  0.23751  0.26516  1.0000
  S   S543      1.0  0.97782  0.00722  0.33118  1.0000
  C   C1870     1.0  0.62720  0.31096  0.47609  1.0000
  H   H3206     1.0  0.85440  0.23354  0.38766  1.0000
  H   H3207     1.0  0.65353  0.26542  0.28378  1.0000
  Fe  Fe269     1.0  0.80115  0.30090  0.44400  1.0000
  S   S544      1.0  0.79739  0.27489  0.44037  1.0000
  H   H3208     1.0  0.82901  0.28112  0.23566  1.0000
  S   S545      1.0  0.87064  0.13539  0.24582  1.0000
  H   H3209     1.0  0.93089  0.17011  0.25337  1.0000
  C   C1871     1.0  0.54118  0.99734  0.47506  1.0000
  H   H3210     1.0  0.91231  0.17635  0.29296  1.0000
  C   C1872     1.0  0.94857  0.18123  0.26229  1.0000
  C   C1873     1.0  0.96327  0.17755  0.27049  1.0000
  H   H3211     1.0  0.73300  0.26546  0.43518  1.0000
  H   H3212     1.0  0.94197  0.19493  0.25807  1.0000
  C   C1874     1.0  0.92249  0.05746  0.31161  1.0000
  C   C1875     1.0  0.91064  0.04856  0.30871  1.0000
  C   C1876     1.0  0.89794  0.05789  0.29820  1.0000
  C   C1877     1.0  0.89760  0.07589  0.29000  1.0000
  C   C1878     1.0  0.90978  0.08459  0.29260  1.0000
  C   C1879     1.0  0.92192  0.07549  0.30369  1.0000
  H   H3213     1.0  0.90993  0.09830  0.28607  1.0000
  H   H3214     1.0  0.93099  0.08238  0.30596  1.0000
  C   C1880     1.0  0.61846  0.28617  0.27413  1.0000
  H   H3215     1.0  0.91809  0.14540  0.29099  1.0000
  H   H3216     1.0  0.73450  0.27004  0.46196  1.0000
  H   H3217     1.0  0.89561  0.28847  0.36715  1.0000
  H   H3218     1.0  0.94506  0.07614  0.25123  1.0000
  H   H3219     1.0  0.82330  0.22098  0.24065  1.0000
  H   H3220     1.0  0.70943  0.29680  0.44571  1.0000
  H   H3221     1.0  0.83600  0.25082  0.44637  1.0000
  S   S546      1.0  0.97709  0.03074  0.29010  1.0000
  H   H3222     1.0  0.87098  0.04583  0.24045  1.0000
  H   H3223     1.0  0.88602  0.14203  0.31686  1.0000
  S   S547      1.0  0.67517  0.31496  0.35531  1.0000
  H   H3224     1.0  0.74602  0.28005  0.33377  1.0000
  H   H3225     1.0  0.90054  0.13857  0.34185  1.0000
  H   H3226     1.0  0.87204  0.16099  0.33915  1.0000
  H   H3227     1.0  0.73527  0.29465  0.39773  1.0000
  H   H3228     1.0  0.54383  0.00632  0.46174  1.0000
  C   C1881     1.0  0.83429  0.22267  0.24610  1.0000
  H   H3229     1.0  0.68681  0.29590  0.32694  1.0000
  S   S548      1.0  0.91315  0.11523  0.24128  1.0000
  C   C1882     1.0  0.87790  0.03701  0.23078  1.0000
  C   C1883     1.0  0.79120  0.27751  0.29358  1.0000
  C   C1884     1.0  0.77751  0.27185  0.28958  1.0000
  C   C1885     1.0  0.76952  0.28153  0.27515  1.0000
  C   C1886     1.0  0.94393  0.06241  0.25867  1.0000
  H   H3230     1.0  0.93110  0.06274  0.26851  1.0000
  H   H3231     1.0  0.79698  0.27002  0.30486  1.0000
  H   H3232     1.0  0.77308  0.25990  0.29772  1.0000
  H   H3233     1.0  0.75753  0.26855  0.44917  1.0000
  H   H3234     1.0  0.97033  0.05617  0.36068  1.0000
  C   C1887     1.0  0.87164  0.21380  0.29514  1.0000
  C   C1888     1.0  0.85404  0.21128  0.29898  1.0000
  C   C1889     1.0  0.84959  0.19979  0.29069  1.0000
  C   C1890     1.0  0.86271  0.19073  0.27856  1.0000
  C   C1891     1.0  0.88028  0.19337  0.27458  1.0000
  C   C1892     1.0  0.88469  0.20496  0.28280  1.0000
  H   H3235     1.0  0.84393  0.21786  0.30864  1.0000
  H   H3236     1.0  0.89042  0.18660  0.26507  1.0000
  H   H3237     1.0  0.89828  0.20707  0.27961  1.0000
  C   C1893     1.0  0.79809  0.25927  0.38854  1.0000
  C   C1894     1.0  0.80221  0.27575  0.38768  1.0000
  C   C1895     1.0  0.80111  0.28138  0.40351  1.0000
  C   C1896     1.0  0.79647  0.27021  0.42013  1.0000
  C   C1897     1.0  0.79184  0.25408  0.42088  1.0000
  C   C1898     1.0  0.79237  0.24877  0.40518  1.0000
  H   H3238     1.0  0.80635  0.28409  0.37486  1.0000
  H   H3239     1.0  0.80438  0.29403  0.40283  1.0000
  H   H3240     1.0  0.78816  0.24543  0.43368  1.0000
  H   H3241     1.0  0.78908  0.23610  0.40595  1.0000
  H   H3242     1.0  0.93005  0.11402  0.30314  1.0000
  H   H3243     1.0  0.55593  0.22969  0.46929  1.0000
  C   C1899     1.0  0.57899  0.24971  0.47140  1.0000
  C   C1900     1.0  0.97527  0.05744  0.34603  1.0000
  H   H3244     1.0  0.56497  0.25364  0.46949  1.0000
  H   H3245     1.0  0.94870  0.24677  0.36615  1.0000
  H   H3246     1.0  0.83539  0.21160  0.25798  1.0000
  C   C1901     1.0  0.96570  0.14586  0.27290  1.0000
  H   H3247     1.0  0.73948  0.28953  0.30646  1.0000
  Fe  Fe270     1.0  0.87811  0.15501  0.25734  1.0000
  H   H3248     1.0  0.65306  0.31577  0.47554  1.0000
  H   H3249     1.0  0.90669  0.11899  0.31179  1.0000
  H   H3250     1.0  0.86639  0.99124  0.23675  1.0000
  C   C1902     1.0  0.96960  0.07923  0.30908  1.0000
  H   H3251     1.0  0.93460  0.14275  0.30295  1.0000
  C   C1903     1.0  0.94227  0.16721  0.25964  1.0000
  H   H3252     1.0  0.74671  0.28415  0.36435  1.0000
  H   H3253     1.0  0.86383  0.21773  0.23707  1.0000
  C   C1904     1.0  0.94608  0.04952  0.24626  1.0000
  Fe  Fe271     1.0  0.95724  0.02359  0.31527  1.0000
  N   N133      1.0  0.85677  0.25770  0.40971  1.0000
  H   H3254     1.0  0.70928  0.26942  0.44195  1.0000
  H   H3255     1.0  0.88842  0.05114  0.29642  1.0000
  H   H3256     1.0  0.96021  0.04791  0.23865  1.0000
  H   H3257     1.0  0.96135  0.25907  0.31709  1.0000
  H   H3258     1.0  0.83151  0.24875  0.42041  1.0000
  H   H3259     1.0  0.95166  0.27407  0.33197  1.0000
  S   S549      1.0  0.95204  0.00027  0.30751  1.0000
  H   H3260     1.0  0.90151  0.25539  0.38574  1.0000
  H   H3261     1.0  0.66859  0.29624  0.25604  1.0000
  C   C1905     1.0  0.84484  0.26062  0.44276  1.0000
  H   H3262     1.0  0.92211  0.30215  0.35483  1.0000
  H   H3263     1.0  0.86734  0.29136  0.38967  1.0000
  C   C1906     1.0  0.88602  0.29648  0.34259  1.0000
  H   H3264     1.0  0.81183  0.25200  0.27342  1.0000
  C   C1907     1.0  0.61565  0.30966  0.46592  1.0000
  H   H3265     1.0  0.78625  0.30016  0.32800  1.0000
  S   S550      1.0  0.49613  0.02913  0.46077  1.0000
  Fe  Fe272     1.0  0.98003  0.30218  0.35901  1.0000
  H   H3266     1.0  0.56104  0.20594  0.47496  1.0000
  H   H3267     1.0  0.63042  0.28622  0.29570  1.0000
  C   C1908     1.0  0.97743  0.07689  0.33762  1.0000
  H   H3268     1.0  0.85399  0.23032  0.26239  1.0000
  C   C1909     1.0  0.62677  0.29588  0.28356  1.0000
  H   H3269     1.0  0.95605  0.08591  0.31533  1.0000
  N   N134      1.0  0.82997  0.24058  0.25141  1.0000
  C   C1910     1.0  0.75893  0.28092  0.35413  1.0000
  H   H3270     1.0  0.92857  0.15191  0.34837  1.0000
  H   H3271     1.0  0.98299  0.15685  0.28235  1.0000
  S   S551      1.0  0.81505  0.29959  0.28744  1.0000
  C   C1911     1.0  0.82454  0.25474  0.23582  1.0000
  H   H3272     1.0  0.76322  0.26612  0.35663  1.0000
  C   C1912     1.0  0.97166  0.15981  0.27602  1.0000
  H   H3273     1.0  0.85797  0.29306  0.41294  1.0000
  C   C1913     1.0  0.71884  0.29439  0.43300  1.0000
  C   C1914     1.0  0.74160  0.29615  0.44886  1.0000
  C   C1915     1.0  0.84637  0.27596  0.40279  1.0000
  C   C1916     1.0  0.72962  0.31203  0.34023  1.0000
  H   H3274     1.0  0.61001  0.23054  0.47649  1.0000
  H   H3275     1.0  0.97097  0.98493  0.23028  1.0000
  H   H3276     1.0  0.85078  0.23119  0.42028  1.0000
  H   H3277     1.0  0.83207  0.23199  0.39910  1.0000
  C   C1917     1.0  0.84660  0.24323  0.25568  1.0000
  N   N135      1.0  0.98391  0.08110  0.31758  1.0000
  H   H3278     1.0  0.81935  0.22880  0.27876  1.0000
  H   H3279     1.0  0.86877  0.24296  0.43225  1.0000
  C   C1918     1.0  0.65024  0.31044  0.28444  1.0000
  C   C1919     1.0  0.95809  0.98709  0.23930  1.0000
  C   C1920     1.0  0.74826  0.29710  0.39836  1.0000
  C   C1921     1.0  0.92697  0.98421  0.24836  1.0000
  C   C1922     1.0  0.87378  0.25259  0.39633  1.0000
  S   S552      1.0  0.94377  0.13147  0.26158  1.0000
  H   H3280     1.0  0.65198  0.30010  0.29677  1.0000
  S   S553      1.0  0.81734  0.30009  0.46394  1.0000
  H   H3281     1.0  0.96847  0.06500  0.31188  1.0000
  C   C1923     1.0  0.85513  0.29188  0.40034  1.0000
  Fe  Fe273     1.0  0.98461  0.18754  0.29722  1.0000
  H   H3282     1.0  0.58704  0.24560  0.45877  1.0000
  H   H3283     1.0  0.69075  0.30582  0.29416  1.0000
  H   H3284     1.0  0.73761  0.30882  0.28895  1.0000
  C   C1924     1.0  0.81505  0.23987  0.26779  1.0000
  H   H3285     1.0  0.85739  0.25797  0.26873  1.0000
  H   H3286     1.0  0.93159  0.18959  0.30159  1.0000
  H   H3287     1.0  0.98817  0.04775  0.34410  1.0000
  H   H3288     1.0  0.84977  0.25976  0.45495  1.0000
  H   H3289     1.0  0.91179  0.99555  0.27109  1.0000
  C   C1925     1.0  0.97050  0.25942  0.36400  1.0000
  H   H3290     1.0  0.92857  0.17728  0.32399  1.0000
  H   H3291     1.0  0.90810  0.03149  0.25323  1.0000
  H   H3292     1.0  0.54150  0.98406  0.47278  1.0000
  C   C1926     1.0  0.98735  0.09984  0.31263  1.0000
  H   H3293     1.0  0.76254  0.30753  0.30235  1.0000
  H   H3294     1.0  0.71888  0.27381  0.41889  1.0000
  C   C1927     1.0  0.75134  0.29277  0.41760  1.0000
  C   C1928     1.0  0.91405  0.05863  0.24376  1.0000
  H   H3295     1.0  0.94511  0.03611  0.25483  1.0000
  H   H3296     1.0  0.78730  0.23726  0.27805  1.0000
  H   H3297     1.0  0.92238  0.11691  0.32569  1.0000
  H   H3298     1.0  0.57884  0.27828  0.46226  1.0000
  C   C1929     1.0  0.95100  0.14949  0.26473  1.0000
  H   H3299     1.0  0.83652  0.25303  0.38640  1.0000
  H   H3300     1.0  0.94800  0.28104  0.30983  1.0000
  H   H3301     1.0  0.75526  0.27806  0.42137  1.0000
  H   H3302     1.0  0.65223  0.28628  0.25336  1.0000
  C   C1930     1.0  0.93921  0.99859  0.26490  1.0000
  H   H3303     1.0  0.90129  0.18372  0.31315  1.0000
  C   C1931     1.0  0.85166  0.21880  0.23199  1.0000
  S   S554      1.0  0.86661  0.28785  0.35246  1.0000
  N   N136      1.0  0.73598  0.30050  0.43114  1.0000
  H   H3304     1.0  0.89517  0.30369  0.40958  1.0000
  C   C1932     1.0  0.97075  0.11476  0.31627  1.0000
  H   H3305     1.0  0.61571  0.30637  0.28875  1.0000
  C   C1933     1.0  0.65682  0.29029  0.26365  1.0000
  H   H3306     1.0  0.76819  0.28337  0.32571  1.0000
  C   C1934     1.0  0.75549  0.28774  0.33497  1.0000
  C   C1935     1.0  0.92474  0.99307  0.26223  1.0000
  H   H3307     1.0  0.87745  0.23782  0.39745  1.0000
  H   H3308     1.0  0.83690  0.27434  0.43952  1.0000
  H   H3309     1.0  0.73085  0.30225  0.45901  1.0000
  Fe  Fe274     1.0  0.88820  0.11447  0.26238  1.0000
  H   H3310     1.0  0.94142  0.16654  0.30557  1.0000
  Fe  Fe275     1.0  0.97386  0.00595  0.28355  1.0000
  H   H3311     1.0  0.84345  0.27670  0.38958  1.0000
  H   H3312     1.0  0.90463  0.06221  0.23452  1.0000
  C   C1936     1.0  0.89796  0.29539  0.35337  1.0000
  H   H3313     1.0  0.84569  0.30437  0.39585  1.0000
  H   H3314     1.0  0.79838  0.22470  0.26127  1.0000
  C   C1937     1.0  0.73615  0.30433  0.30366  1.0000
  H   H3315     1.0  0.66404  0.31259  0.27811  1.0000
  H   H3316     1.0  0.98668  0.07989  0.34449  1.0000
  Fe  Fe276     1.0  0.91710  0.13612  0.25364  1.0000
  C   C1938     1.0  0.81775  0.27405  0.23874  1.0000
  H   H3317     1.0  0.91616  0.03883  0.26907  1.0000
  H   H3318     1.0  0.58906  0.21440  0.47096  1.0000
  C   C1939     1.0  0.86105  0.25657  0.42754  1.0000
  H   H3319     1.0  0.60726  0.28072  0.28388  1.0000
  H   H3320     1.0  0.67462  0.26438  0.26853  1.0000
  C   C1940     1.0  0.84203  0.24071  0.39531  1.0000
  H   H3321     1.0  0.87958  0.02305  0.23855  1.0000
  H   H3322     1.0  0.76363  0.29759  0.41699  1.0000
  C   C1941     1.0  0.84509  0.24437  0.41245  1.0000
  C   C1942     1.0  0.88932  0.30518  0.32466  1.0000
  H   H3323     1.0  0.97847  0.09704  0.28293  1.0000
  C   C1943     1.0  0.77503  0.29722  0.26497  1.0000
  H   H3324     1.0  0.62812  0.27464  0.26934  1.0000
  H   H3325     1.0  0.61265  0.29533  0.26293  1.0000
  H   H3326     1.0  0.96411  0.08540  0.34174  1.0000
  H   H3327     1.0  0.83311  0.27871  0.41183  1.0000
  S   S555      1.0  0.97382  0.00378  0.25565  1.0000
  C   C1944     1.0  0.90806  0.04311  0.25860  1.0000
  C   C1945     1.0  0.79719  0.29282  0.28313  1.0000
  H   H3328     1.0  0.87172  0.25824  0.38241  1.0000
  C   C1946     1.0  0.97191  0.08549  0.28861  1.0000
  H   H3329     1.0  0.89632  0.24849  0.40949  1.0000
  H   H3330     1.0  0.85613  0.24775  0.24321  1.0000
  H   H3331     1.0  0.87410  0.18097  0.32200  1.0000
  H   H3332     1.0  0.88008  0.30616  0.31630  1.0000
  H   H3333     1.0  0.79130  0.24888  0.25540  1.0000
  H   H3334     1.0  0.90088  0.16082  0.34200  1.0000
  Fe  Fe277     1.0  0.98169  0.19801  0.33212  1.0000
  H   H3335     1.0  0.93835  0.14222  0.32921  1.0000
  S   S556      1.0  0.96345  0.21722  0.34877  1.0000
  H   H3336     1.0  0.72131  0.30282  0.33963  1.0000
  H   H3337     1.0  0.89399  0.04777  0.26527  1.0000
  H   H3338     1.0  0.67034  0.27613  0.28609  1.0000
  H   H3339     1.0  0.95472  0.05754  0.26643  1.0000
  H   H3340     1.0  0.92767  0.12942  0.34925  1.0000
  H   H3341     1.0  0.97252  0.13219  0.27677  1.0000
  H   H3342     1.0  0.96027  0.11492  0.30920  1.0000
  H   H3343     1.0  0.75909  0.28849  0.39040  1.0000
  C   C1947     1.0  0.89101  0.25745  0.39787  1.0000
  C   C1948     1.0  0.95591  0.99569  0.25339  1.0000
  C   C1949     1.0  0.96289  0.24640  0.36132  1.0000
  H   H3344     1.0  0.86982  0.26587  0.42653  1.0000
  N   N137      1.0  0.64249  0.30390  0.27235  1.0000
  N   N138      1.0  0.92626  0.25485  0.31426  1.0000
  C   C1950     1.0  0.93219  0.26131  0.32775  1.0000
  C   C1951     1.0  0.90799  0.25056  0.32282  1.0000
  C   C1952     1.0  0.92511  0.26981  0.29800  1.0000
  C   C1953     1.0  0.94007  0.23874  0.30960  1.0000
  C   C1954     1.0  0.94930  0.26924  0.32094  1.0000
  C   C1955     1.0  0.90713  0.23561  0.33976  1.0000
  C   C1956     1.0  0.91258  0.26972  0.28595  1.0000
  C   C1957     1.0  0.93611  0.22870  0.29725  1.0000
  H   H3345     1.0  0.92137  0.27172  0.33331  1.0000
  H   H3346     1.0  0.93482  0.25030  0.33935  1.0000
  H   H3347     1.0  0.90217  0.24656  0.31349  1.0000
  H   H3348     1.0  0.89830  0.26275  0.32638  1.0000
  H   H3349     1.0  0.92023  0.28301  0.30203  1.0000
  H   H3350     1.0  0.93864  0.27028  0.28932  1.0000
  H   H3351     1.0  0.95318  0.24252  0.30283  1.0000
  H   H3352     1.0  0.94323  0.22883  0.32174  1.0000
  H   H3353     1.0  0.63084  0.31375  0.24886  1.0000
  H   H3354     1.0  0.86070  0.16650  0.32107  1.0000
  H   H3355     1.0  0.76997  0.28607  0.35604  1.0000
  H   H3356     1.0  0.89333  0.23299  0.34402  1.0000
  H   H3357     1.0  0.91627  0.22288  0.33728  1.0000
  H   H3358     1.0  0.90992  0.23956  0.35107  1.0000
  H   H3359     1.0  0.89832  0.27333  0.29260  1.0000
  S   S557      1.0  0.97101  0.19519  0.27382  1.0000
  H   H3360     1.0  0.91474  0.28010  0.27356  1.0000
  H   H3361     1.0  0.94062  0.23472  0.28297  1.0000
  H   H3362     1.0  0.92193  0.22766  0.29986  1.0000
  H   H3363     1.0  0.94359  0.21467  0.29984  1.0000
  N   N139      1.0  0.90776  0.15484  0.31568  1.0000
  C   C1958     1.0  0.88912  0.15557  0.31336  1.0000
  C   C1959     1.0  0.92046  0.14184  0.30487  1.0000
  C   C1960     1.0  0.91190  0.17317  0.30761  1.0000
  C   C1961     1.0  0.90814  0.14945  0.33531  1.0000
  C   C1962     1.0  0.87337  0.16673  0.32464  1.0000
  C   C1963     1.0  0.91959  0.12192  0.31207  1.0000
  C   C1964     1.0  0.92944  0.17644  0.31002  1.0000
  C   C1965     1.0  0.92677  0.14296  0.34050  1.0000
  H   H3364     1.0  0.88808  0.16075  0.29908  1.0000
  H   H3365     1.0  0.96514  0.11388  0.33076  1.0000
  H   H3366     1.0  0.90558  0.29194  0.46720  1.0000
  C   C1966     1.0  0.91301  0.30318  0.34640  1.0000
  H   H3367     1.0  0.71168  0.30260  0.42223  1.0000
  H   H3368     1.0  0.56854  0.99552  0.47666  1.0000
  H   H3369     1.0  0.95849  0.09019  0.28507  1.0000
  C   C1967     1.0  0.78886  0.30283  0.26895  1.0000
  H   H3370     1.0  0.49096  0.02144  0.42897  1.0000
  C   C1968     1.0  0.74889  0.31223  0.30989  1.0000
  H   H3371     1.0  0.93375  0.02756  0.23394  1.0000
  C   C1969     1.0  0.58450  0.26683  0.47210  1.0000
  H   H3372     1.0  0.72957  0.31012  0.35467  1.0000
  H   H3373     1.0  0.75122  0.27526  0.46998  1.0000
  C   C1970     1.0  0.91596  0.31262  0.32874  1.0000
  H   H3374     1.0  0.97483  0.12790  0.31120  1.0000
  H   H3375     1.0  0.59929  0.26547  0.46847  1.0000
  H   H3376     1.0  0.97932  0.07430  0.28179  1.0000
  S   S558      1.0  0.90244  0.15899  0.23567  1.0000
  S   S559      1.0  0.59392  0.30587  0.47607  1.0000
  C   C1971     1.0  0.62132  0.31187  0.44732  1.0000
  H   H3377     1.0  0.85164  0.01195  0.23348  1.0000
  H   H3378     1.0  0.96526  0.05360  0.34096  1.0000
  H   H3379     1.0  0.76894  0.30480  0.25380  1.0000
  S   S560      1.0  0.95005  0.30728  0.36655  1.0000
  H   H3380     1.0  0.83615  0.26963  0.26367  1.0000
  H   H3381     1.0  0.61248  0.31081  0.43940  1.0000
  C   C1972     1.0  0.77980  0.31445  0.32488  1.0000
  H   H3382     1.0  0.88377  0.28873  0.46811  1.0000
  H   H3383     1.0  0.81427  0.25133  0.23061  1.0000
  H   H3384     1.0  0.74913  0.31110  0.39177  1.0000
  C   C1973     1.0  0.90421  0.31341  0.31780  1.0000
  C   C1974     1.0  0.89241  0.29082  0.47617  1.0000
  H   H3385     1.0  0.85278  0.20558  0.22889  1.0000
  H   H3386     1.0  0.88488  0.31561  0.38159  1.0000
  H   H3387     1.0  0.79330  0.31479  0.26085  1.0000
  H   H3388     1.0  0.80822  0.28145  0.22987  1.0000
  C   C1975     1.0  0.98889  0.25888  0.35813  1.0000
  H   H3389     1.0  0.91075  0.31577  0.39386  1.0000
  C   C1976     1.0  0.63847  0.31528  0.43891  1.0000
  S   S561      1.0  0.68800  0.27548  0.22850  1.0000
  C   C1977     1.0  0.68610  0.31562  0.30245  1.0000
  Fe  Fe278     1.0  0.61332  0.99495  0.60098  1.0000
  H   H3390     1.0  0.49418  0.04296  0.56545  1.0000
  H   H3391     1.0  0.80502  0.22816  0.70353  1.0000
  Fe  Fe279     1.0  0.59709  0.01632  0.56949  1.0000
  C   C1978     1.0  0.51234  0.12214  0.53231  1.0000
  Fe  Fe280     1.0  0.63376  0.01991  0.57203  1.0000
  S   S562      1.0  0.65281  0.03878  0.56055  1.0000
  H   H3392     1.0  0.76909  0.28115  0.57845  1.0000
  S   S563      1.0  0.60670  0.02451  0.58999  1.0000
  Fe  Fe281     1.0  0.67129  0.10141  0.61313  1.0000
  S   S564      1.0  0.65693  0.08750  0.63900  1.0000
  S   S565      1.0  0.68567  0.08699  0.59093  1.0000
  Fe  Fe282     1.0  0.66295  0.13691  0.62530  1.0000
  S   S566      1.0  0.64777  0.12557  0.65235  1.0000
  S   S567      1.0  0.66174  0.16667  0.61834  1.0000
  Fe  Fe283     1.0  0.67031  0.10162  0.65141  1.0000
  S   S568      1.0  0.68627  0.08521  0.67202  1.0000
  Fe  Fe284     1.0  0.63604  0.11272  0.63705  1.0000
  S   S569      1.0  0.60674  0.11234  0.64233  1.0000
  S   S570      1.0  0.68642  0.11384  0.62544  1.0000
  S   S571      1.0  0.64952  0.12578  0.61013  1.0000
  S   S572      1.0  0.84337  0.28911  0.62970  1.0000
  H   H3393     1.0  0.63245  0.00723  0.61704  1.0000
  S   S573      1.0  0.87662  0.28403  0.66180  1.0000
  C   C1979     1.0  0.51691  0.11262  0.51847  1.0000
  H   H3394     1.0  0.55559  0.05482  0.58748  1.0000
  H   H3395     1.0  0.71713  0.12133  0.66524  1.0000
  H   H3396     1.0  0.57989  0.00764  0.49581  1.0000
  C   C1980     1.0  0.52830  0.05128  0.58986  1.0000
  H   H3397     1.0  0.55118  0.26448  0.49679  1.0000
  C   C1981     1.0  0.64936  0.27718  0.58996  1.0000
  C   C1982     1.0  0.52234  0.08349  0.57394  1.0000
  S   S574      1.0  0.59517  0.23333  0.54221  1.0000
  Fe  Fe285     1.0  0.72298  0.22989  0.60508  1.0000
  S   S575      1.0  0.70673  0.23877  0.58394  1.0000
  S   S576      1.0  0.72760  0.20006  0.61625  1.0000
  Fe  Fe286     1.0  0.72634  0.26811  0.60318  1.0000
  S   S577      1.0  0.70935  0.27961  0.58230  1.0000
  S   S578      1.0  0.73629  0.28987  0.60950  1.0000
  Fe  Fe287     1.0  0.69176  0.26053  0.59871  1.0000
  H   H3398     1.0  0.53713  0.99117  0.56650  1.0000
  Fe  Fe288     1.0  0.72596  0.25676  0.56974  1.0000
  S   S579      1.0  0.73661  0.25901  0.54016  1.0000
  S   S580      1.0  0.70712  0.25084  0.62081  1.0000
  S   S581      1.0  0.74390  0.24613  0.58953  1.0000
  H   H3399     1.0  0.53572  0.04441  0.57870  1.0000
  S   S582      1.0  0.65350  0.01036  0.66858  1.0000
  C   C1983     1.0  0.49652  0.27404  0.56732  1.0000
  H   H3400     1.0  0.57480  0.24469  0.51157  1.0000
  N   N140      1.0  0.83295  0.24459  0.68385  1.0000
  H   H3401     1.0  0.82311  0.30313  0.56078  1.0000
  H   H3402     1.0  0.55071  0.00406  0.51884  1.0000
  S   S583      1.0  0.66160  0.26396  0.60602  1.0000
  H   H3403     1.0  0.51099  0.27112  0.56751  1.0000
  Fe  Fe289     1.0  0.54845  0.14033  0.57534  1.0000
  S   S584      1.0  0.53498  0.15484  0.55226  1.0000
  S   S585      1.0  0.57723  0.12584  0.57185  1.0000
  Fe  Fe290     1.0  0.52475  0.17660  0.56807  1.0000
  S   S586      1.0  0.52307  0.20608  0.55745  1.0000
  Fe  Fe291     1.0  0.51118  0.14342  0.56918  1.0000
  H   H3404     1.0  0.52067  0.21451  0.59481  1.0000
  S   S587      1.0  0.53994  0.16297  0.58978  1.0000
  S   S588      1.0  0.52572  0.12690  0.59076  1.0000
  C   C1984     1.0  0.74967  0.27535  0.53054  1.0000
  C   C1985     1.0  0.75866  0.27676  0.51264  1.0000
  C   C1986     1.0  0.76909  0.28978  0.50466  1.0000
  C   C1987     1.0  0.77041  0.30159  0.51450  1.0000
  C   C1988     1.0  0.76123  0.30032  0.53234  1.0000
  C   C1989     1.0  0.75099  0.28713  0.54041  1.0000
  H   H3405     1.0  0.75773  0.26762  0.50501  1.0000
  C   C1990     1.0  0.90284  0.30251  0.52539  1.0000
  C   C1991     1.0  0.81710  0.22190  0.70919  1.0000
  H   H3406     1.0  0.74401  0.28618  0.55420  1.0000
  C   C1992     1.0  0.69940  0.25565  0.52509  1.0000
  H   H3407     1.0  0.92095  0.30218  0.48286  1.0000
  H   H3408     1.0  0.68345  0.12851  0.66823  1.0000
  H   H3409     1.0  0.71299  0.28715  0.52013  1.0000
  H   H3410     1.0  0.51770  0.24498  0.58497  1.0000
  C   C1993     1.0  0.63460  0.27176  0.58780  1.0000
  C   C1994     1.0  0.67183  0.24909  0.55959  1.0000
  H   H3411     1.0  0.89313  0.31270  0.53225  1.0000
  H   H3412     1.0  0.63090  0.25953  0.59610  1.0000
  H   H3413     1.0  0.61398  0.27724  0.57265  1.0000
  C   C1995     1.0  0.57508  0.22541  0.54857  1.0000
  C   C1996     1.0  0.57553  0.20713  0.55087  1.0000
  C   C1997     1.0  0.55955  0.20096  0.55419  1.0000
  C   C1998     1.0  0.54312  0.21312  0.55490  1.0000
  C   C1999     1.0  0.54268  0.23131  0.55299  1.0000
  C   C2000     1.0  0.55857  0.23739  0.55016  1.0000
  H   H3414     1.0  0.58826  0.19779  0.54954  1.0000
  H   H3415     1.0  0.55999  0.18690  0.55558  1.0000
  H   H3416     1.0  0.53008  0.24081  0.55342  1.0000
  H   H3417     1.0  0.55801  0.25143  0.54884  1.0000
  C   C2001     1.0  0.72143  0.02673  0.72626  1.0000
  H   H3418     1.0  0.83037  0.25371  0.65622  1.0000
  H   H3419     1.0  0.54350  0.09325  0.55287  1.0000
  H   H3420     1.0  0.69561  0.27191  0.55093  1.0000
  C   C2002     1.0  0.81785  0.25926  0.68991  1.0000
  H   H3421     1.0  0.53097  0.08189  0.54549  1.0000
  Fe  Fe292     1.0  0.56153  0.29636  0.54154  1.0000
  C   C2003     1.0  0.87434  0.28242  0.68493  1.0000
  C   C2004     1.0  0.88855  0.27270  0.69337  1.0000
  C   C2005     1.0  0.52877  0.01557  0.54827  1.0000
  H   H3422     1.0  0.90075  0.26613  0.68568  1.0000
  C   C2006     1.0  0.78067  0.28267  0.63998  1.0000
  C   C2007     1.0  0.77201  0.29971  0.63258  1.0000
  C   C2008     1.0  0.75813  0.30162  0.62368  1.0000
  C   C2009     1.0  0.75311  0.28656  0.62169  1.0000
  C   C2010     1.0  0.76185  0.26951  0.62897  1.0000
  C   C2011     1.0  0.77545  0.26759  0.63828  1.0000
  C   C2012     1.0  0.80985  0.31244  0.56267  1.0000
  C   C2013     1.0  0.54704  0.03777  0.54173  1.0000
  H   H3423     1.0  0.75802  0.25784  0.62755  1.0000
  C   C2014     1.0  0.49685  0.12043  0.54549  1.0000
  H   H3424     1.0  0.72386  0.03168  0.67762  1.0000
  H   H3425     1.0  0.65120  0.27762  0.51358  1.0000
  H   H3426     1.0  0.76060  0.06501  0.72446  1.0000
  C   C2015     1.0  0.59456  0.21161  0.58963  1.0000
  H   H3427     1.0  0.81736  0.27152  0.67915  1.0000
  C   C2016     1.0  0.68053  0.17562  0.61687  1.0000
  C   C2017     1.0  0.67792  0.19383  0.61684  1.0000
  C   C2018     1.0  0.69235  0.20138  0.61640  1.0000
  C   C2019     1.0  0.70958  0.19080  0.61593  1.0000
  C   C2020     1.0  0.71228  0.17257  0.61580  1.0000
  C   C2021     1.0  0.69781  0.16501  0.61616  1.0000
  H   H3428     1.0  0.66464  0.20216  0.61735  1.0000
  H   H3429     1.0  0.69002  0.21538  0.61677  1.0000
  H   H3430     1.0  0.72560  0.16435  0.61532  1.0000
  H   H3431     1.0  0.70003  0.15101  0.61589  1.0000
  C   C2022     1.0  0.68404  0.09179  0.69214  1.0000
  C   C2023     1.0  0.66972  0.10500  0.69795  1.0000
  H   H3432     1.0  0.62286  0.30958  0.49041  1.0000
  H   H3433     1.0  0.82918  0.27295  0.70400  1.0000
  C   C2024     1.0  0.81879  0.26487  0.70687  1.0000
  C   C2025     1.0  0.69690  0.08340  0.70262  1.0000
  H   H3434     1.0  0.65955  0.11126  0.69010  1.0000
  H   H3435     1.0  0.84774  0.29853  0.68877  1.0000
  S   S589      1.0  0.49972  0.16661  0.58283  1.0000
  H   H3436     1.0  0.70791  0.07304  0.69827  1.0000
  C   C2026     1.0  0.59868  0.11600  0.62268  1.0000
  C   C2027     1.0  0.61038  0.11298  0.60664  1.0000
  C   C2028     1.0  0.60372  0.11597  0.59108  1.0000
  C   C2029     1.0  0.58533  0.12186  0.59151  1.0000
  C   C2030     1.0  0.57358  0.12448  0.60763  1.0000
  C   C2031     1.0  0.58025  0.12153  0.62318  1.0000
  H   H3437     1.0  0.62452  0.10799  0.60626  1.0000
  H   H3438     1.0  0.61285  0.11374  0.57872  1.0000
  H   H3439     1.0  0.55932  0.12871  0.60819  1.0000
  H   H3440     1.0  0.57109  0.12365  0.63559  1.0000
  C   C2032     1.0  0.66153  0.05116  0.57062  1.0000
  C   C2033     1.0  0.67555  0.05928  0.55997  1.0000
  C   C2034     1.0  0.68269  0.07008  0.56655  1.0000
  C   C2035     1.0  0.67561  0.07336  0.58375  1.0000
  C   C2036     1.0  0.66144  0.06534  0.59461  1.0000
  C   C2037     1.0  0.65458  0.05396  0.58811  1.0000
  H   H3441     1.0  0.68102  0.05717  0.54647  1.0000
  H   H3442     1.0  0.69368  0.07610  0.55815  1.0000
  H   H3443     1.0  0.65602  0.06771  0.60799  1.0000
  H   H3444     1.0  0.64395  0.04745  0.59644  1.0000
  H   H3445     1.0  0.81453  0.22431  0.72293  1.0000
  H   H3446     1.0  0.88174  0.31444  0.71969  1.0000
  H   H3447     1.0  0.58305  0.30839  0.57456  1.0000
  C   C2038     1.0  0.64246  0.00110  0.65779  1.0000
  C   C2039     1.0  0.64252  0.00784  0.63960  1.0000
  C   C2040     1.0  0.63246  0.00181  0.63104  1.0000
  S   S590      1.0  0.82606  0.30795  0.66430  1.0000
  H   H3448     1.0  0.57963  0.27033  0.48543  1.0000
  H   H3449     1.0  0.65018  0.01787  0.63210  1.0000
  H   H3450     1.0  0.61556  0.05955  0.56189  1.0000
  N   N141      1.0  0.79536  0.30238  0.57316  1.0000
  N   N142      1.0  0.60315  0.17698  0.59796  1.0000
  C   C2041     1.0  0.61740  0.16180  0.59164  1.0000
  C   C2042     1.0  0.60510  0.17705  0.61642  1.0000
  C   C2043     1.0  0.60711  0.19410  0.58547  1.0000
  C   C2044     1.0  0.58506  0.17411  0.59753  1.0000
  C   C2045     1.0  0.61868  0.15959  0.57250  1.0000
  C   C2046     1.0  0.60278  0.15983  0.63056  1.0000
  C   C2047     1.0  0.56843  0.18353  0.60953  1.0000
  H   H3451     1.0  0.63092  0.16303  0.59251  1.0000
  H   H3452     1.0  0.61515  0.14878  0.60039  1.0000
  H   H3453     1.0  0.59560  0.18816  0.62201  1.0000
  H   H3454     1.0  0.61860  0.17944  0.61588  1.0000
  H   H3455     1.0  0.60649  0.19420  0.57159  1.0000
  H   H3456     1.0  0.58276  0.17819  0.58362  1.0000
  H   H3457     1.0  0.58478  0.15958  0.60162  1.0000
  H   H3458     1.0  0.62828  0.14694  0.57037  1.0000
  H   H3459     1.0  0.60570  0.15850  0.57033  1.0000
  H   H3460     1.0  0.62407  0.17045  0.56222  1.0000
  H   H3461     1.0  0.59092  0.15486  0.63042  1.0000
  H   H3462     1.0  0.61494  0.14914  0.62878  1.0000
  H   H3463     1.0  0.60109  0.16246  0.64408  1.0000
  H   H3464     1.0  0.55743  0.18892  0.60199  1.0000
  H   H3465     1.0  0.57031  0.19487  0.61404  1.0000
  H   H3466     1.0  0.56327  0.17370  0.62134  1.0000
  C   C2048     1.0  0.79486  0.28861  0.56328  1.0000
  Fe  Fe293     1.0  0.66263  0.99182  0.69276  1.0000
  C   C2049     1.0  0.62220  0.98911  0.64067  1.0000
  H   H3467     1.0  0.58608  0.11665  0.53129  1.0000
  H   H3468     1.0  0.71337  0.14152  0.68422  1.0000
  H   H3469     1.0  0.68242  0.23724  0.55696  1.0000
  H   H3470     1.0  0.55160  0.29626  0.58736  1.0000
  H   H3471     1.0  0.73085  0.04833  0.61174  1.0000
  S   S591      1.0  0.51213  0.08935  0.50051  1.0000
  H   H3472     1.0  0.84221  0.22864  0.70759  1.0000
  H   H3473     1.0  0.51153  0.09497  0.57022  1.0000
  H   H3474     1.0  0.70484  0.04509  0.68903  1.0000
  C   C2050     1.0  0.55013  0.25042  0.50291  1.0000
  C   C2051     1.0  0.87155  0.28041  0.72164  1.0000
  N   N143      1.0  0.55542  0.98385  0.50336  1.0000
  H   H3475     1.0  0.65954  0.24412  0.56730  1.0000
  H   H3476     1.0  0.67676  0.28913  0.54713  1.0000
  H   H3477     1.0  0.84206  0.23125  0.66137  1.0000
  S   S592      1.0  0.61102  0.27923  0.51931  1.0000
  H   H3478     1.0  0.57394  0.10250  0.54949  1.0000
  C   C2052     1.0  0.69709  0.16756  0.66299  1.0000
  C   C2053     1.0  0.50611  0.10127  0.51786  1.0000
  H   H3479     1.0  0.52826  0.08808  0.58274  1.0000
  H   H3480     1.0  0.62852  0.08031  0.56553  1.0000
  H   H3481     1.0  0.69593  0.19548  0.66203  1.0000
  H   H3482     1.0  0.81472  0.22015  0.67573  1.0000
  H   H3483     1.0  0.72414  0.03534  0.71324  1.0000
  H   H3484     1.0  0.49242  0.28882  0.56367  1.0000
  H   H3485     1.0  0.86789  0.23987  0.65717  1.0000
  H   H3486     1.0  0.90463  0.28596  0.50726  1.0000
  H   H3487     1.0  0.52070  0.13089  0.53267  1.0000
  C   C2054     1.0  0.68172  0.10202  0.72425  1.0000
  H   H3488     1.0  0.69238  0.16245  0.70495  1.0000
  H   H3489     1.0  0.55228  0.30331  0.60659  1.0000
  C   C2055     1.0  0.81388  0.23401  0.66782  1.0000
  S   S593      1.0  0.53290  0.30074  0.55682  1.0000
  S   S594      1.0  0.58185  0.27919  0.55741  1.0000
  H   H3490     1.0  0.61005  0.20219  0.49713  1.0000
  H   H3491     1.0  0.50899  0.25043  0.60593  1.0000
  H   H3492     1.0  0.89413  0.27874  0.48691  1.0000
  H   H3493     1.0  0.86911  0.22551  0.67905  1.0000
  N   N144      1.0  0.70801  0.03713  0.64661  1.0000
  C   C2056     1.0  0.71049  0.05523  0.63536  1.0000
  C   C2057     1.0  0.69990  0.03927  0.66559  1.0000
  C   C2058     1.0  0.69567  0.02959  0.64021  1.0000
  C   C2059     1.0  0.72597  0.02449  0.64530  1.0000
  C   C2060     1.0  0.60653  0.21424  0.50303  1.0000
  C   C2061     1.0  0.71249  0.04306  0.67558  1.0000
  C   C2062     1.0  0.67746  0.04200  0.63808  1.0000
  C   C2063     1.0  0.72617  0.00543  0.65678  1.0000
  H   H3494     1.0  0.91577  0.30692  0.51987  1.0000
  Fe  Fe294     1.0  0.81582  0.29970  0.64429  1.0000
  H   H3495     1.0  0.69446  0.02740  0.67387  1.0000
  H   H3496     1.0  0.68797  0.05042  0.66603  1.0000
  H   H3497     1.0  0.70218  0.02559  0.62718  1.0000
  H   H3498     1.0  0.69269  0.01703  0.64960  1.0000
  H   H3499     1.0  0.73144  0.02259  0.63134  1.0000
  H   H3500     1.0  0.73628  0.03014  0.64809  1.0000
  C   C2064     1.0  0.63250  0.98810  0.66736  1.0000
  H   H3501     1.0  0.70547  0.24822  0.53684  1.0000
  H   H3502     1.0  0.89830  0.26442  0.71803  1.0000
  H   H3503     1.0  0.81329  0.23349  0.65409  1.0000
  H   H3504     1.0  0.52738  0.00292  0.48175  1.0000
  C   C2065     1.0  0.69685  0.24175  0.51596  1.0000
  H   H3505     1.0  0.59502  0.29907  0.60069  1.0000
  H   H3506     1.0  0.71044  0.26179  0.51585  1.0000
  H   H3507     1.0  0.66983  0.26287  0.50255  1.0000
  H   H3508     1.0  0.72297  0.99667  0.64961  1.0000
  H   H3509     1.0  0.71679  0.00508  0.66985  1.0000
  H   H3510     1.0  0.73961  0.99964  0.66008  1.0000
  H   H3511     1.0  0.53928  0.06730  0.60282  1.0000
  C   C2066     1.0  0.57996  0.10468  0.53509  1.0000
  H   H3512     1.0  0.52263  0.22080  0.61453  1.0000
  H   H3513     1.0  0.71008  0.12107  0.64578  1.0000
  N   N145      1.0  0.68898  0.15180  0.67378  1.0000
  C   C2067     1.0  0.66918  0.15722  0.68115  1.0000
  C   C2068     1.0  0.69874  0.14169  0.68868  1.0000
  Fe  Fe295     1.0  0.58894  0.29682  0.50608  1.0000
  C   C2069     1.0  0.65759  0.16767  0.66731  1.0000
  C   C2070     1.0  0.69252  0.14814  0.70652  1.0000
  C   C2071     1.0  0.69523  0.18296  0.67234  1.0000
  C   C2072     1.0  0.69108  0.13929  0.66149  1.0000
  H   H3514     1.0  0.66645  0.16562  0.69117  1.0000
  H   H3515     1.0  0.66359  0.14518  0.68855  1.0000
  H   H3516     1.0  0.69757  0.12740  0.69232  1.0000
  H   H3517     1.0  0.58107  0.20607  0.49405  1.0000
  C   C2073     1.0  0.85868  0.29085  0.69503  1.0000
  H   H3518     1.0  0.80581  0.27360  0.71154  1.0000
  H   H3519     1.0  0.64356  0.17167  0.67445  1.0000
  H   H3520     1.0  0.66203  0.18014  0.65948  1.0000
  H   H3521     1.0  0.65713  0.15939  0.65816  1.0000
  H   H3522     1.0  0.67911  0.14531  0.71360  1.0000
  H   H3523     1.0  0.65756  0.12042  0.71846  1.0000
  H   H3524     1.0  0.81610  0.27035  0.60474  1.0000
  H   H3525     1.0  0.59940  0.05619  0.55263  1.0000
  H   H3526     1.0  0.68216  0.18592  0.68146  1.0000
  C   C2074     1.0  0.50359  0.07827  0.61319  1.0000
  H   H3527     1.0  0.58108  0.00494  0.51859  1.0000
  H   H3528     1.0  0.55014  0.21775  0.49234  1.0000
  C   C2075     1.0  0.91184  0.31530  0.48422  1.0000
  N   N146      1.0  0.60371  0.05424  0.64475  1.0000
  C   C2076     1.0  0.62085  0.05767  0.64720  1.0000
  C   C2077     1.0  0.60699  0.05181  0.62579  1.0000
  C   C2078     1.0  0.59984  0.03738  0.65792  1.0000
  C   C2079     1.0  0.58893  0.07004  0.64842  1.0000
  C   C2080     1.0  0.62151  0.05812  0.66641  1.0000
  C   C2081     1.0  0.60978  0.06854  0.61107  1.0000
  C   C2082     1.0  0.58786  0.02705  0.65365  1.0000
  C   C2083     1.0  0.57055  0.07057  0.64467  1.0000
  H   H3529     1.0  0.63257  0.04732  0.64270  1.0000
  H   H3530     1.0  0.62362  0.07072  0.63889  1.0000
  H   H3531     1.0  0.59585  0.04735  0.62324  1.0000
  H   H3532     1.0  0.61888  0.04092  0.62320  1.0000
  H   H3533     1.0  0.61251  0.02754  0.65948  1.0000
  H   H3534     1.0  0.59361  0.04021  0.67149  1.0000
  H   H3535     1.0  0.58633  0.07105  0.66265  1.0000
  H   H3536     1.0  0.59304  0.08280  0.64109  1.0000
  H   H3537     1.0  0.62015  0.04525  0.67585  1.0000
  H   H3538     1.0  0.63484  0.06044  0.66633  1.0000
  H   H3539     1.0  0.61139  0.06927  0.67144  1.0000
  H   H3540     1.0  0.62142  0.07372  0.61142  1.0000
  H   H3541     1.0  0.61263  0.06495  0.59782  1.0000
  H   H3542     1.0  0.59759  0.07931  0.61169  1.0000
  H   H3543     1.0  0.58530  0.01581  0.66511  1.0000
  H   H3544     1.0  0.59468  0.02085  0.64194  1.0000
  H   H3545     1.0  0.57469  0.03532  0.65157  1.0000
  H   H3546     1.0  0.56196  0.06403  0.65677  1.0000
  H   H3547     1.0  0.57135  0.06459  0.63327  1.0000
  H   H3548     1.0  0.56374  0.08475  0.64087  1.0000
  H   H3549     1.0  0.80451  0.25602  0.69221  1.0000
  H   H3550     1.0  0.70694  0.22925  0.51881  1.0000
  C   C2084     1.0  0.71047  0.12998  0.65438  1.0000
  H   H3551     1.0  0.76692  0.30748  0.58472  1.0000
  H   H3552     1.0  0.80799  0.31414  0.53487  1.0000
  H   H3553     1.0  0.65330  0.04623  0.71964  1.0000
  H   H3554     1.0  0.55211  0.01116  0.48783  1.0000
  N   N147      1.0  0.68328  0.26987  0.53009  1.0000
  H   H3555     1.0  0.78874  0.26580  0.58517  1.0000
  H   H3556     1.0  0.65640  0.27296  0.54604  1.0000
  C   C2085     1.0  0.63182  0.08876  0.55206  1.0000
  H   H3557     1.0  0.68929  0.28522  0.50306  1.0000
  C   C2086     1.0  0.56102  0.99210  0.51572  1.0000
  H   H3558     1.0  0.66983  0.29550  0.51695  1.0000
  C   C2087     1.0  0.56869  0.23825  0.50437  1.0000
  H   H3559     1.0  0.69389  0.30552  0.52092  1.0000
  C   C2088     1.0  0.71707  0.05617  0.61507  1.0000
  H   H3560     1.0  0.51221  0.06743  0.62104  1.0000
  H   H3561     1.0  0.54731  0.06934  0.55889  1.0000
  C   C2089     1.0  0.70122  0.29362  0.52900  1.0000
  H   H3562     1.0  0.58943  0.06452  0.58339  1.0000
  C   C2090     1.0  0.89541  0.29822  0.51108  1.0000
  C   C2091     1.0  0.79937  0.29376  0.59141  1.0000
  H   H3563     1.0  0.54182  0.25049  0.51657  1.0000
  S   S595      1.0  0.60112  0.98706  0.58222  1.0000
  C   C2092     1.0  0.85727  0.28981  0.71328  1.0000
  H   H3564     1.0  0.88081  0.31511  0.58943  1.0000
  S   S596      1.0  0.51382  0.04013  0.49870  1.0000
  H   H3565     1.0  0.60512  0.10314  0.55120  1.0000
  C   C2093     1.0  0.50737  0.24212  0.59727  1.0000
  S   S597      1.0  0.50539  0.14668  0.63275  1.0000
  H   H3566     1.0  0.68381  0.23763  0.52123  1.0000
  H   H3567     1.0  0.66374  0.28567  0.49211  1.0000
  C   C2094     1.0  0.85001  0.25159  0.67952  1.0000
  C   C2095     1.0  0.66779  0.26204  0.54224  1.0000
  H   H3568     1.0  0.54264  0.24591  0.49548  1.0000
  H   H3569     1.0  0.49301  0.06005  0.60537  1.0000
  C   C2096     1.0  0.86732  0.23947  0.67142  1.0000
  H   H3570     1.0  0.49118  0.22249  0.58527  1.0000
  H   H3571     1.0  0.63481  0.06222  0.53402  1.0000
  H   H3572     1.0  0.82160  0.27268  0.58127  1.0000
  H   H3573     1.0  0.84867  0.26476  0.67002  1.0000
  H   H3574     1.0  0.85275  0.25407  0.69168  1.0000
  Fe  Fe296     1.0  0.59026  0.26347  0.53580  1.0000
  H   H3575     1.0  0.64388  0.08165  0.54396  1.0000
  Fe  Fe297     1.0  0.69231  0.98904  0.71188  1.0000
  C   C2097     1.0  0.53687  0.08162  0.55687  1.0000
  H   H3576     1.0  0.70644  0.29853  0.53821  1.0000
  H   H3577     1.0  0.66780  0.06216  0.71354  1.0000
  H   H3578     1.0  0.56207  0.98272  0.52872  1.0000
  H   H3579     1.0  0.71751  0.07029  0.60835  1.0000
  C   C2098     1.0  0.88718  0.27170  0.71169  1.0000
  H   H3580     1.0  0.54601  0.04371  0.60878  1.0000
  C   C2099     1.0  0.57921  0.99804  0.50882  1.0000
  H   H3581     1.0  0.49973  0.23888  0.56774  1.0000
  H   H3582     1.0  0.56627  0.22556  0.51384  1.0000
  H   H3583     1.0  0.58585  0.07785  0.53048  1.0000
  H   H3584     1.0  0.61167  0.06536  0.50706  1.0000
  C   C2100     1.0  0.53993  0.00416  0.55955  1.0000
  H   H3585     1.0  0.61877  0.21537  0.50677  1.0000
  C   C2101     1.0  0.66700  0.04793  0.71879  1.0000
  H   H3586     1.0  0.72039  0.06018  0.63959  1.0000
  C   C2102     1.0  0.60037  0.23124  0.48950  1.0000
  C   C2103     1.0  0.66859  0.11012  0.71399  1.0000
  C   C2104     1.0  0.58858  0.07397  0.57043  1.0000
  H   H3587     1.0  0.69197  0.17338  0.65048  1.0000
  H   H3588     1.0  0.87906  0.24467  0.67163  1.0000
  S   S598      1.0  0.56896  0.27959  0.52080  1.0000
  H   H3589     1.0  0.66224  0.25468  0.53553  1.0000
  C   C2105     1.0  0.83470  0.22757  0.69788  1.0000
  H   H3590     1.0  0.81866  0.20724  0.71081  1.0000
  H   H3591     1.0  0.51723  0.05922  0.55828  1.0000
  H   H3592     1.0  0.68532  0.14636  0.64954  1.0000
  H   H3593     1.0  0.52161  0.04117  0.60016  1.0000
  H   H3594     1.0  0.59061  0.98648  0.50784  1.0000
  S   S599      1.0  0.71290  0.00536  0.70889  1.0000
  C   C2106     1.0  0.81742  0.28039  0.59198  1.0000
  C   C2107     1.0  0.69576  0.08851  0.71863  1.0000
  H   H3595     1.0  0.78295  0.26621  0.56469  1.0000
  H   H3596     1.0  0.52884  0.11402  0.50820  1.0000
  H   H3597     1.0  0.71765  0.05537  0.66877  1.0000
  S   S600      1.0  0.66369  0.00343  0.71532  1.0000
  C   C2108     1.0  0.54285  0.05495  0.59756  1.0000
  H   H3598     1.0  0.76192  0.30963  0.53989  1.0000
  H   H3599     1.0  0.57089  0.28771  0.59682  1.0000
  C   C2109     1.0  0.61571  0.09495  0.54272  1.0000
  H   H3600     1.0  0.67609  0.04050  0.70864  1.0000
  H   H3601     1.0  0.75127  0.31485  0.61824  1.0000
  H   H3602     1.0  0.69789  0.06546  0.63739  1.0000
  C   C2110     1.0  0.65410  0.29301  0.57932  1.0000
  H   H3603     1.0  0.78198  0.25437  0.64410  1.0000
  S   S601      1.0  0.51043  0.00883  0.54516  1.0000
  C   C2111     1.0  0.64415  0.30333  0.56648  1.0000
  C   C2112     1.0  0.53248  0.03230  0.53927  1.0000
  H   H3604     1.0  0.70626  0.18035  0.67957  1.0000
  N   N148      1.0  0.51454  0.06716  0.58329  1.0000
  H   H3605     1.0  0.49681  0.07396  0.56453  1.0000
  C   C2113     1.0  0.56059  0.29999  0.59391  1.0000
  N   N149      1.0  0.58129  0.23445  0.48718  1.0000
  Fe  Fe298     1.0  0.85345  0.29950  0.64836  1.0000
  C   C2114     1.0  0.50672  0.06239  0.57001  1.0000
  H   H3606     1.0  0.58957  0.08685  0.57268  1.0000
  H   H3607     1.0  0.59405  0.21358  0.60310  1.0000
  H   H3608     1.0  0.56289  0.00101  0.57106  1.0000
  C   C2115     1.0  0.62983  0.29755  0.56388  1.0000
  H   H3609     1.0  0.63555  0.10065  0.55398  1.0000
  S   S602      1.0  0.62376  0.01379  0.55067  1.0000
  H   H3610     1.0  0.71876  0.13964  0.64593  1.0000
  C   C2116     1.0  0.55457  0.00965  0.56203  1.0000
  H   H3611     1.0  0.70793  0.05199  0.60913  1.0000
  H   H3612     1.0  0.62105  0.19528  0.58491  1.0000
  C   C2117     1.0  0.55798  0.02659  0.55326  1.0000
  Fe  Fe299     1.0  0.62877  0.98530  0.56504  1.0000
  C   C2118     1.0  0.66493  0.27650  0.50517  1.0000
  C   C2119     1.0  0.59382  0.31035  0.60708  1.0000
  S   S603      1.0  0.61850  0.31008  0.54688  1.0000
  S   S604      1.0  0.57925  0.31543  0.52526  1.0000
  H   H3613     1.0  0.59979  0.22300  0.58004  1.0000
  C   C2120     1.0  0.83057  0.24124  0.66676  1.0000
  C   C2121     1.0  0.67742  0.28235  0.51370  1.0000
  H   H3614     1.0  0.61131  0.04839  0.52726  1.0000
  H   H3615     1.0  0.67552  0.25585  0.56832  1.0000
  H   H3616     1.0  0.54961  0.05087  0.53488  1.0000
  H   H3617     1.0  0.58094  0.21269  0.58751  1.0000
  S   S605      1.0  0.79760  0.27981  0.65192  1.0000
  H   H3618     1.0  0.49902  0.31176  0.57903  1.0000
  H   H3619     1.0  0.90524  0.29027  0.53587  1.0000
  S   S606      1.0  0.57435  0.03519  0.55783  1.0000
  H   H3620     1.0  0.63167  0.04972  0.51119  1.0000
  H   H3621     1.0  0.71174  0.16328  0.65806  1.0000
  H   H3622     1.0  0.50644  0.03393  0.58274  1.0000
  H   H3623     1.0  0.66954  0.04551  0.65092  1.0000
  C   C2122     1.0  0.78321  0.27478  0.57371  1.0000
  H   H3624     1.0  0.79969  0.30403  0.59855  1.0000
  C   C2123     1.0  0.68873  0.28073  0.54020  1.0000
  C   C2124     1.0  0.61917  0.05786  0.51770  1.0000
  H   H3625     1.0  0.78849  0.28712  0.60018  1.0000
  Fe  Fe300     1.0  0.51589  0.15095  0.60320  1.0000
  C   C2125     1.0  0.51350  0.22213  0.60547  1.0000
  H   H3626     1.0  0.78048  0.04859  0.72005  1.0000
  H   H3627     1.0  0.82125  0.25334  0.71795  1.0000
  H   H3628     1.0  0.84292  0.21617  0.69165  1.0000
  H   H3629     1.0  0.86995  0.30533  0.49179  1.0000
  H   H3630     1.0  0.61958  0.10451  0.53004  1.0000
  H   H3631     1.0  0.66535  0.29733  0.58111  1.0000
  C   C2126     1.0  0.62421  0.07054  0.52673  1.0000
  C   C2127     1.0  0.60384  0.06698  0.55579  1.0000
  H   H3632     1.0  0.66956  0.03494  0.63356  1.0000
  H   H3633     1.0  0.63092  0.08015  0.51575  1.0000
  H   H3634     1.0  0.67898  0.05426  0.62772  1.0000
  Fe  Fe301     1.0  0.60030  0.29679  0.53945  1.0000
  H   H3635     1.0  0.52392  0.04127  0.53066  1.0000
  H   H3636     1.0  0.78964  0.29520  0.55089  1.0000
  H   H3637     1.0  0.80115  0.24273  0.67288  1.0000
  H   H3638     1.0  0.88239  0.29414  0.51776  1.0000
  C   C2128     1.0  0.62502  0.28177  0.57457  1.0000
  H   H3639     1.0  0.70189  0.14048  0.71549  1.0000
  N   N150      1.0  0.60901  0.08034  0.53898  1.0000
  C   C2129     1.0  0.59356  0.08822  0.52940  1.0000
  H   H3640     1.0  0.59868  0.09282  0.51484  1.0000
  H   H3641     1.0  0.57533  0.07497  0.56743  1.0000
  H   H3642     1.0  0.80854  0.28118  0.55839  1.0000
  H   H3643     1.0  0.56877  0.10797  0.52791  1.0000
  H   H3644     1.0  0.59626  0.21233  0.51547  1.0000
  H   H3645     1.0  0.49443  0.26871  0.55654  1.0000
  H   H3646     1.0  0.82822  0.28741  0.59122  1.0000
  S   S607      1.0  0.64128  0.99107  0.58474  1.0000
  H   H3647     1.0  0.77626  0.29054  0.49096  1.0000
  C   C2130     1.0  0.49920  0.07179  0.59837  1.0000
  C   C2131     1.0  0.49754  0.04615  0.57691  1.0000
  H   H3648     1.0  0.69883  0.24664  0.50126  1.0000
  Fe  Fe302     1.0  0.49675  0.02945  0.52468  1.0000
  Fe  Fe303     1.0  0.49784  0.06690  0.50391  1.0000
  C   C2132     1.0  0.55511  0.99718  0.48575  1.0000
  C   C2133     1.0  0.88323  0.30779  0.48378  1.0000
  C   C2134     1.0  0.77717  0.31469  0.57538  1.0000
  H   H3649     1.0  0.88742  0.31164  0.69084  1.0000
  H   H3650     1.0  0.63220  0.98305  0.68147  1.0000
  C   C2135     1.0  0.57887  0.21779  0.48294  1.0000
  H   H3651     1.0  0.59483  0.30462  0.62124  1.0000
  H   H3652     1.0  0.50951  0.09035  0.60809  1.0000
  H   H3653     1.0  0.90246  0.30871  0.66241  1.0000
  H   H3654     1.0  0.50239  0.21563  0.61377  1.0000
  H   H3655     1.0  0.52726  0.99317  0.51358  1.0000
  H   H3656     1.0  0.84517  0.29661  0.72090  1.0000
  H   H3657     1.0  0.60252  0.24258  0.49407  1.0000
  C   C2136     1.0  0.56943  0.31505  0.58074  1.0000
  Fe  Fe304     1.0  0.49159  0.03914  0.48623  1.0000
  H   H3658     1.0  0.77574  0.31141  0.63404  1.0000
  C   C2137     1.0  0.56034  0.21820  0.47970  1.0000
  N   N151      1.0  0.89341  0.31287  0.49477  1.0000
  H   H3659     1.0  0.70584  0.08208  0.72652  1.0000
  H   H3660     1.0  0.64784  0.31560  0.55828  1.0000
  H   H3661     1.0  0.49091  0.08209  0.62272  1.0000
  H   H3662     1.0  0.49050  0.15313  0.66800  1.0000
  C   C2138     1.0  0.49069  0.09957  0.53113  1.0000
  H   H3663     1.0  0.99036  0.22548  0.72128  1.0000
  S   S608      1.0  0.49044  0.13203  0.56306  1.0000
  Fe  Fe305     1.0  0.64130  0.01065  0.88568  1.0000
  S   S609      1.0  0.63702  0.02754  0.85904  1.0000
  Fe  Fe306     1.0  0.62528  0.00104  0.92517  1.0000
  S   S610      1.0  0.60184  0.00925  0.94676  1.0000
  S   S611      1.0  0.64340  0.01982  0.90944  1.0000
  S   S612      1.0  0.62102  0.99419  0.90098  1.0000
  Fe  Fe307     1.0  0.70035  0.08130  0.80136  1.0000
  S   S613      1.0  0.72797  0.06452  0.79637  1.0000
  S   S614      1.0  0.68774  0.08284  0.83001  1.0000
  H   H3664     1.0  0.86899  0.24327  0.74380  1.0000
  H   H3665     1.0  0.73848  0.10565  0.90131  1.0000
  S   S615      1.0  0.70710  0.10510  0.78052  1.0000
  C   C2139     1.0  0.92650  0.15733  0.80326  1.0000
  Fe  Fe308     1.0  0.96493  0.07324  0.85090  1.0000
  S   S616      1.0  0.95413  0.09308  0.86864  1.0000
  S   S617      1.0  0.94611  0.06079  0.84312  1.0000
  Fe  Fe309     1.0  0.97780  0.07887  0.88112  1.0000
  S   S618      1.0  0.97495  0.06950  0.91112  1.0000
  Fe  Fe310     1.0  0.97270  0.10939  0.84904  1.0000
  H   H3666     1.0  0.86426  0.22934  0.78223  1.0000
  Fe  Fe311     1.0  0.84730  0.10343  0.85115  1.0000
  S   S619      1.0  0.84302  0.13321  0.84426  1.0000
  S   S620      1.0  0.86375  0.08922  0.87201  1.0000
  Fe  Fe312     1.0  0.82167  0.10243  0.82863  1.0000
  S   S621      1.0  0.81565  0.13226  0.81925  1.0000
  S   S622      1.0  0.80652  0.08267  0.82628  1.0000
  Fe  Fe313     1.0  0.84516  0.13059  0.81626  1.0000
  S   S623      1.0  0.86081  0.14784  0.79292  1.0000
  Fe  Fe314     1.0  0.81408  0.13289  0.84771  1.0000
  S   S624      1.0  0.79316  0.15362  0.86024  1.0000
  S   S625      1.0  0.85165  0.10032  0.82285  1.0000
  S   S626      1.0  0.81803  0.10335  0.85749  1.0000
  Fe  Fe315     1.0  0.89161  0.26424  0.75871  1.0000
  S   S627      1.0  0.88531  0.26020  0.78871  1.0000
  S   S628      1.0  0.86935  0.28022  0.74440  1.0000
  Fe  Fe316     1.0  0.92873  0.24178  0.75802  1.0000
  S   S629      1.0  0.92538  0.23552  0.78768  1.0000
  S   S630      1.0  0.95413  0.23117  0.74008  1.0000
  Fe  Fe317     1.0  0.89824  0.23153  0.78818  1.0000
  S   S631      1.0  0.88645  0.21036  0.80978  1.0000
  Fe  Fe318     1.0  0.91295  0.26465  0.78576  1.0000
  S   S632      1.0  0.92117  0.27726  0.80421  1.0000
  S   S633      1.0  0.90251  0.23514  0.75847  1.0000
  S   S634      1.0  0.91825  0.27131  0.75576  1.0000
  Fe  Fe319     1.0  0.72916  0.06956  0.93926  1.0000
  S   S635      1.0  0.71632  0.09334  0.95192  1.0000
  S   S636      1.0  0.71441  0.06694  0.91925  1.0000
  Fe  Fe320     1.0  0.76136  0.06075  0.95711  1.0000
  S   S637      1.0  0.75091  0.08367  0.97116  1.0000
  H   H3667     1.0  0.89579  0.02504  0.87756  1.0000
  H   H3668     1.0  0.72167  0.10056  0.89266  1.0000
  Fe  Fe321     1.0  0.74380  0.09920  0.94512  1.0000
  S   S638      1.0  0.74711  0.12760  0.93620  1.0000
  S   S639      1.0  0.75622  0.07698  0.93040  1.0000
  H   H3669     1.0  0.71125  0.06122  0.85510  1.0000
  C   C2140     1.0  0.97413  0.22976  0.74678  1.0000
  H   H3670     1.0  0.63815  0.04525  0.95761  1.0000
  C   C2141     1.0  0.66055  0.06662  0.74980  1.0000
  H   H3671     1.0  0.91804  0.01385  0.86803  1.0000
  H   H3672     1.0  0.88144  0.02982  0.91241  1.0000
  C   C2142     1.0  0.97422  0.23145  0.76397  1.0000
  H   H3673     1.0  0.93611  0.00620  0.91983  1.0000
  H   H3674     1.0  0.85147  0.24296  0.73283  1.0000
  S   S640      1.0  0.72310  0.02606  0.77721  1.0000
  H   H3675     1.0  0.96180  0.23386  0.77344  1.0000
  C   C2143     1.0  0.98416  0.16358  0.86094  1.0000
  H   H3676     1.0  0.63359  0.01845  0.81740  1.0000
  C   C2144     1.0  0.91864  0.30064  0.80016  1.0000
  S   S641      1.0  0.69026  0.07021  0.78334  1.0000
  H   H3677     1.0  0.92940  0.29974  0.82289  1.0000
  C   C2145     1.0  0.86732  0.16586  0.79723  1.0000
  C   C2146     1.0  0.87930  0.17513  0.78402  1.0000
  C   C2147     1.0  0.88536  0.18887  0.78760  1.0000
  C   C2148     1.0  0.87960  0.19321  0.80451  1.0000
  C   C2149     1.0  0.86772  0.18392  0.81766  1.0000
  C   C2150     1.0  0.86140  0.17054  0.81394  1.0000
  H   H3678     1.0  0.88406  0.17152  0.77107  1.0000
  H   H3679     1.0  0.89465  0.19589  0.77741  1.0000
  H   H3680     1.0  0.86303  0.18736  0.83070  1.0000
  H   H3681     1.0  0.85175  0.16406  0.82401  1.0000
  C   C2151     1.0  0.78030  0.14589  0.88111  1.0000
  C   C2152     1.0  0.77085  0.15811  0.89193  1.0000
  C   C2153     1.0  0.76069  0.15228  0.90880  1.0000
  C   C2154     1.0  0.75968  0.13427  0.91482  1.0000
  C   C2155     1.0  0.76884  0.12205  0.90386  1.0000
  C   C2156     1.0  0.77928  0.12786  0.88706  1.0000
  H   H3682     1.0  0.77155  0.17208  0.88735  1.0000
  H   H3683     1.0  0.75359  0.16178  0.91721  1.0000
  H   H3684     1.0  0.76802  0.10817  0.90834  1.0000
  H   H3685     1.0  0.78636  0.11847  0.87866  1.0000
  C   C2157     1.0  0.92323  0.06895  0.85104  1.0000
  C   C2158     1.0  0.91054  0.06839  0.84176  1.0000
  C   C2159     1.0  0.89223  0.07497  0.84787  1.0000
  C   C2160     1.0  0.88654  0.08172  0.86353  1.0000
  C   C2161     1.0  0.89918  0.08215  0.87288  1.0000
  C   C2162     1.0  0.91747  0.07593  0.86656  1.0000
  H   H3686     1.0  0.91489  0.06300  0.82974  1.0000
  H   H3687     1.0  0.88249  0.07449  0.84066  1.0000
  H   H3688     1.0  0.89483  0.08722  0.88510  1.0000
  H   H3689     1.0  0.92696  0.07586  0.87419  1.0000
  H   H3690     1.0  0.61512  0.00390  0.85007  1.0000
  N   N152      1.0  0.71858  0.02269  0.85836  1.0000
  C   C2163     1.0  0.95452  0.06323  0.92288  1.0000
  C   C2164     1.0  0.95404  0.05011  0.93870  1.0000
  C   C2165     1.0  0.93778  0.04512  0.94832  1.0000
  C   C2166     1.0  0.92189  0.05355  0.94233  1.0000
  C   C2167     1.0  0.92239  0.06662  0.92655  1.0000
  C   C2168     1.0  0.93861  0.07145  0.91687  1.0000
  H   H3691     1.0  0.96634  0.04358  0.94332  1.0000
  H   H3692     1.0  0.93757  0.03459  0.96017  1.0000
  H   H3693     1.0  0.91014  0.07314  0.92180  1.0000
  H   H3694     1.0  0.93873  0.08179  0.90495  1.0000
  H   H3695     1.0  0.74884  0.07813  0.89365  1.0000
  H   H3696     1.0  0.63050  0.02020  0.76461  1.0000
  H   H3697     1.0  0.75602  0.06508  0.87651  1.0000
  H   H3698     1.0  0.77183  0.06786  0.88761  1.0000
  H   H3699     1.0  0.76663  0.13427  0.84915  1.0000
  C   C2169     1.0  0.77082  0.09537  0.78547  1.0000
  H   H3700     1.0  0.92960  0.17001  0.80403  1.0000
  C   C2170     1.0  0.79417  0.10240  0.79600  1.0000
  C   C2171     1.0  0.79245  0.08834  0.81080  1.0000
  C   C2172     1.0  0.77962  0.07806  0.81313  1.0000
  C   C2173     1.0  0.76865  0.08172  0.80065  1.0000
  S   S642      1.0  0.73524  0.05121  0.96489  1.0000
  H   H3701     1.0  0.77826  0.06716  0.82456  1.0000
  H   H3702     1.0  0.75899  0.07359  0.80246  1.0000
  C   C2174     1.0  0.60580  0.02393  0.95788  1.0000
  H   H3703     1.0  0.97949  0.27697  0.76680  1.0000
  Fe  Fe322     1.0  0.66543  0.99568  0.91262  1.0000
  H   H3704     1.0  0.71258  0.99561  0.77280  1.0000
  C   C2175     1.0  0.62274  0.02801  0.95429  1.0000
  H   H3705     1.0  0.68277  0.03986  0.76677  1.0000
  H   H3706     1.0  0.63383  0.02113  0.94571  1.0000
  C   C2176     1.0  0.64971  0.04420  0.85163  1.0000
  C   C2177     1.0  0.65149  0.05347  0.83387  1.0000
  C   C2178     1.0  0.66256  0.06599  0.82739  1.0000
  C   C2179     1.0  0.67173  0.06940  0.83866  1.0000
  C   C2180     1.0  0.66905  0.06099  0.85673  1.0000
  C   C2181     1.0  0.65832  0.04812  0.86313  1.0000
  H   H3707     1.0  0.64460  0.05071  0.82503  1.0000
  H   H3708     1.0  0.66385  0.07314  0.81370  1.0000
  H   H3709     1.0  0.67591  0.06382  0.86555  1.0000
  H   H3710     1.0  0.65703  0.04104  0.87683  1.0000
  C   C2182     1.0  0.71669  0.03043  0.92825  1.0000
  C   C2183     1.0  0.70712  0.04713  0.92118  1.0000
  C   C2184     1.0  0.69200  0.04810  0.91448  1.0000
  C   C2185     1.0  0.68651  0.03246  0.91472  1.0000
  H   H3711     1.0  0.72843  0.02956  0.93335  1.0000
  H   H3712     1.0  0.68465  0.06099  0.90889  1.0000
  H   H3713     1.0  0.67501  0.03336  0.90930  1.0000
  H   H3714     1.0  0.86478  0.06987  0.93678  1.0000
  H   H3715     1.0  0.71833  0.02755  0.88426  1.0000
  H   H3716     1.0  0.71885  0.12198  0.89663  1.0000
  H   H3717     1.0  0.77452  0.13060  0.82692  1.0000
  H   H3718     1.0  0.97505  0.26978  0.80438  1.0000
  H   H3719     1.0  0.78263  0.11414  0.84459  1.0000
  C   C2186     1.0  0.92417  0.30823  0.81151  1.0000
  N   N153      1.0  0.84170  0.22870  0.77176  1.0000
  C   C2187     1.0  0.83656  0.21310  0.78624  1.0000
  C   C2188     1.0  0.85138  0.23817  0.77941  1.0000
  C   C2189     1.0  0.85444  0.22119  0.75639  1.0000
  C   C2190     1.0  0.82489  0.24049  0.76614  1.0000
  C   C2191     1.0  0.82883  0.19977  0.78071  1.0000
  H   H3720     1.0  0.76710  0.06754  0.75225  1.0000
  H   H3721     1.0  0.58519  0.00211  0.85451  1.0000
  C   C2192     1.0  0.82547  0.26035  0.75767  1.0000
  H   H3722     1.0  0.84826  0.20524  0.79206  1.0000
  H   H3723     1.0  0.82635  0.21779  0.79760  1.0000
  H   H3724     1.0  0.80532  0.04698  0.77349  1.0000
  H   H3725     1.0  0.71045  0.00796  0.83101  1.0000
  H   H3726     1.0  0.86611  0.21151  0.76112  1.0000
  H   H3727     1.0  0.84792  0.21357  0.75084  1.0000
  H   H3728     1.0  0.82077  0.23486  0.75666  1.0000
  H   H3729     1.0  0.81357  0.24077  0.77797  1.0000
  H   H3730     1.0  0.82323  0.19065  0.79295  1.0000
  H   H3731     1.0  0.81787  0.20652  0.77342  1.0000
  H   H3732     1.0  0.83949  0.19107  0.77272  1.0000
  H   H3733     1.0  0.78497  0.06220  0.77359  1.0000
  H   H3734     1.0  0.84752  0.25408  0.79934  1.0000
  H   H3735     1.0  0.78202  0.02355  0.75525  1.0000
  H   H3736     1.0  0.75229  0.03208  0.82428  1.0000
  H   H3737     1.0  0.91377  0.00539  0.94815  1.0000
  H   H3738     1.0  0.95977  0.03563  0.88062  1.0000
  H   H3739     1.0  0.90943  0.99379  0.93370  1.0000
  H   H3740     1.0  0.97345  0.13965  0.86761  1.0000
  H   H3741     1.0  0.64656  0.99780  0.83770  1.0000
  H   H3742     1.0  0.74948  0.12409  0.87480  1.0000
  H   H3743     1.0  0.71049  0.11575  0.86033  1.0000
  C   C2193     1.0  0.71144  0.01478  0.92812  1.0000
  C   C2194     1.0  0.69642  0.01573  0.92126  1.0000
  H   H3744     1.0  0.70920  0.09720  0.85216  1.0000
  C   C2195     1.0  0.91164  0.31172  0.78566  1.0000
  C   C2196     1.0  0.63980  0.02624  0.75281  1.0000
  H   H3745     1.0  0.95559  0.28459  0.77410  1.0000
  H   H3746     1.0  0.70990  0.06004  0.87805  1.0000
  H   H3747     1.0  0.69993  0.00585  0.87451  1.0000
  H   H3748     1.0  0.65583  0.01471  0.78116  1.0000
  H   H3749     1.0  0.67659  0.00975  0.76520  1.0000
  H   H3750     1.0  0.72179  0.11296  0.83777  1.0000
  N   N154      1.0  0.82296  0.08650  0.92422  1.0000
  C   C2197     1.0  0.84253  0.08470  0.92399  1.0000
  C   C2198     1.0  0.81838  0.10020  0.90795  1.0000
  C   C2199     1.0  0.81904  0.06904  0.92363  1.0000
  C   C2200     1.0  0.81204  0.09203  0.94128  1.0000
  C   C2201     1.0  0.85044  0.06962  0.93835  1.0000
  C   C2202     1.0  0.81670  0.11987  0.90864  1.0000
  C   C2203     1.0  0.83002  0.06071  0.90753  1.0000
  C   C2204     1.0  0.79153  0.09522  0.94354  1.0000
  H   H3751     1.0  0.85100  0.08268  0.91077  1.0000
  H   H3752     1.0  0.84498  0.09732  0.92571  1.0000
  H   H3753     1.0  0.80573  0.09909  0.90497  1.0000
  H   H3754     1.0  0.82867  0.09771  0.89578  1.0000
  H   H3755     1.0  0.82094  0.05893  0.93604  1.0000
  H   H3756     1.0  0.80466  0.07065  0.92333  1.0000
  H   H3757     1.0  0.81520  0.08151  0.95307  1.0000
  H   H3758     1.0  0.81555  0.10400  0.94334  1.0000
  H   H3759     1.0  0.84999  0.05618  0.93691  1.0000
  H   H3760     1.0  0.85545  0.25005  0.76982  1.0000
  H   H3761     1.0  0.95822  0.22296  0.80955  1.0000
  H   H3762     1.0  0.80462  0.12458  0.91841  1.0000
  H   H3763     1.0  0.82880  0.12214  0.91164  1.0000
  H   H3764     1.0  0.81511  0.12839  0.89534  1.0000
  H   H3765     1.0  0.84458  0.05742  0.90728  1.0000
  H   H3766     1.0  0.82745  0.06950  0.89466  1.0000
  H   H3767     1.0  0.82590  0.04801  0.90857  1.0000
  H   H3768     1.0  0.78678  0.08268  0.95042  1.0000
  H   H3769     1.0  0.78689  0.10006  0.93082  1.0000
  H   H3770     1.0  0.78486  0.10569  0.95150  1.0000
  N   N155      1.0  0.60801  0.07280  0.91205  1.0000
  C   C2205     1.0  0.59847  0.07640  0.93034  1.0000
  C   C2206     1.0  0.62758  0.06574  0.91265  1.0000
  C   C2207     1.0  0.60049  0.05842  0.90889  1.0000
  C   C2208     1.0  0.60480  0.08987  0.89830  1.0000
  C   C2209     1.0  0.57787  0.08232  0.93349  1.0000
  C   C2210     1.0  0.63687  0.07809  0.91777  1.0000
  C   C2211     1.0  0.60778  0.05297  0.89066  1.0000
  C   C2212     1.0  0.61875  0.09151  0.88042  1.0000
  H   H3771     1.0  0.60144  0.06429  0.94079  1.0000
  H   H3772     1.0  0.60330  0.08702  0.93352  1.0000
  H   H3773     1.0  0.63569  0.06238  0.89985  1.0000
  H   H3774     1.0  0.62928  0.05288  0.92250  1.0000
  H   H3775     1.0  0.60257  0.04607  0.91945  1.0000
  H   H3776     1.0  0.58578  0.06258  0.90981  1.0000
  H   H3777     1.0  0.59138  0.09211  0.89504  1.0000
  H   H3778     1.0  0.60452  0.10150  0.90394  1.0000
  H   H3779     1.0  0.57138  0.07093  0.93515  1.0000
  H   H3780     1.0  0.57298  0.08711  0.94626  1.0000
  H   H3781     1.0  0.57334  0.09344  0.92281  1.0000
  H   H3782     1.0  0.65161  0.07317  0.91462  1.0000
  H   H3783     1.0  0.63392  0.09208  0.91038  1.0000
  H   H3784     1.0  0.63310  0.07771  0.93237  1.0000
  H   H3785     1.0  0.62251  0.04883  0.88763  1.0000
  H   H3786     1.0  0.60321  0.06376  0.87972  1.0000
  H   H3787     1.0  0.60242  0.04123  0.89081  1.0000
  H   H3788     1.0  0.61175  0.09937  0.86947  1.0000
  H   H3789     1.0  0.62603  0.07880  0.87636  1.0000
  H   H3790     1.0  0.62853  0.09935  0.88054  1.0000
  H   H3791     1.0  0.91760  0.16105  0.79353  1.0000
  H   H3792     1.0  0.83044  0.03881  0.75132  1.0000
  H   H3793     1.0  0.65108  0.07491  0.97368  1.0000
  H   H3794     1.0  0.81638  0.26542  0.74804  1.0000
  C   C2213     1.0  0.88717  0.04166  0.91058  1.0000
  H   H3795     1.0  0.77112  0.09822  0.87317  1.0000
  H   H3796     1.0  0.63471  0.05497  0.74614  1.0000
  H   H3797     1.0  0.88631  0.04457  0.92379  1.0000
  C   C2214     1.0  0.90628  0.01269  0.87921  1.0000
  H   H3798     1.0  0.70729  0.04490  0.83886  1.0000
  H   H3799     1.0  0.98547  0.30324  0.76249  1.0000
  C   C2215     1.0  0.71317  0.02162  0.82769  1.0000
  C   C2216     1.0  0.71220  0.99983  0.74485  1.0000
  C   C2217     1.0  0.98600  0.17991  0.83031  1.0000
  H   H3800     1.0  0.65283  0.07233  0.77713  1.0000
  H   H3801     1.0  0.97834  0.07776  0.96643  1.0000
  H   H3802     1.0  0.75531  0.04411  0.77002  1.0000
  Fe  Fe323     1.0  0.72442  0.07584  0.97674  1.0000
  H   H3803     1.0  0.78533  0.11628  0.77151  1.0000
  C   C2218     1.0  0.71428  0.00451  0.86743  1.0000
  H   H3804     1.0  0.69879  0.05134  0.95925  1.0000
  H   H3805     1.0  0.96177  0.08453  0.95309  1.0000
  C   C2219     1.0  0.72575  0.99278  0.88102  1.0000
  C   C2220     1.0  0.97057  0.28221  0.79482  1.0000
  S   S643      1.0  0.66502  0.98807  0.88733  1.0000
  H   H3806     1.0  0.73464  0.04825  0.83384  1.0000
  H   H3807     1.0  0.75507  0.04089  0.84170  1.0000
  C   C2221     1.0  0.70757  0.03047  0.84410  1.0000
  H   H3808     1.0  0.92610  0.10100  0.96382  1.0000
  H   H3809     1.0  0.70499  0.02960  0.81771  1.0000
  C   C2222     1.0  0.66883  0.03776  0.76908  1.0000
  H   H3810     1.0  0.89588  0.01547  0.93683  1.0000
  H   H3811     1.0  0.93365  0.03005  0.87453  1.0000
  C   C2223     1.0  0.80082  0.04422  0.97335  1.0000
  Fe  Fe324     1.0  0.71850  0.05548  0.77643  1.0000
  H   H3812     1.0  0.62252  0.02039  0.79971  1.0000
  C   C2224     1.0  0.62613  0.99367  0.81631  1.0000
  C   C2225     1.0  0.81883  0.03541  0.97198  1.0000
  H   H3813     1.0  0.67561  0.05289  0.96161  1.0000
  H   H3814     1.0  0.87829  0.05284  0.90326  1.0000
  C   C2226     1.0  0.62528  0.04140  0.96142  1.0000
  H   H3815     1.0  0.90062  0.00166  0.87803  1.0000
  H   H3816     1.0  0.57108  0.99979  0.97268  1.0000
  C   C2227     1.0  0.73848  0.02056  0.85106  1.0000
  H   H3817     1.0  0.71918  0.00187  0.93317  1.0000
  H   H3818     1.0  0.68662  0.04403  0.73457  1.0000
  H   H3819     1.0  0.93370  0.07955  0.95830  1.0000
  Fe  Fe325     1.0  0.73413  0.08749  0.77411  1.0000
  N   N156      1.0  0.91330  0.13044  0.82433  1.0000
  C   C2228     1.0  0.89938  0.12742  0.84136  1.0000
  C   C2229     1.0  0.90506  0.12995  0.80931  1.0000
  C   C2230     1.0  0.91719  0.14873  0.82199  1.0000
  C   C2231     1.0  0.92982  0.11600  0.82622  1.0000
  C   C2232     1.0  0.90423  0.12901  0.85850  1.0000
  C   C2233     1.0  0.90042  0.11200  0.80992  1.0000
  C   C2234     1.0  0.94458  0.11402  0.80930  1.0000
  H   H3820     1.0  0.88638  0.13692  0.84005  1.0000
  H   H3821     1.0  0.89642  0.11387  0.84419  1.0000
  H   H3822     1.0  0.91356  0.13364  0.79599  1.0000
  H   H3823     1.0  0.89253  0.14022  0.80912  1.0000
  H   H3824     1.0  0.90451  0.15852  0.82547  1.0000
  H   H3825     1.0  0.92572  0.14846  0.83133  1.0000
  H   H3826     1.0  0.93651  0.11793  0.83613  1.0000
  H   H3827     1.0  0.92624  0.10271  0.83214  1.0000
  H   H3828     1.0  0.90590  0.14266  0.85787  1.0000
  H   H3829     1.0  0.89304  0.12618  0.86996  1.0000
  H   H3830     1.0  0.91635  0.11906  0.86159  1.0000
  H   H3831     1.0  0.88913  0.10897  0.82111  1.0000
  H   H3832     1.0  0.89583  0.11297  0.79749  1.0000
  H   H3833     1.0  0.91214  0.10075  0.81059  1.0000
  H   H3834     1.0  0.93937  0.14891  0.79816  1.0000
  H   H3835     1.0  0.95538  0.12093  0.80872  1.0000
  H   H3836     1.0  0.93992  0.11877  0.79659  1.0000
  H   H3837     1.0  0.95062  0.09961  0.80982  1.0000
  H   H3838     1.0  0.94658  0.24463  0.81448  1.0000
  C   C2235     1.0  0.97373  0.15296  0.84016  1.0000
  S   S644      1.0  0.69134  0.99577  0.91981  1.0000
  S   S645      1.0  0.90130  0.04748  0.95347  1.0000
  H   H3839     1.0  0.59214  0.99457  0.83420  1.0000
  H   H3840     1.0  0.95293  0.02914  0.90422  1.0000
  H   H3841     1.0  0.66123  0.04363  0.78081  1.0000
  H   H3842     1.0  0.73005  0.12935  0.86637  1.0000
  N   N157      1.0  0.93362  0.21775  0.84419  1.0000
  C   C2236     1.0  0.91854  0.23317  0.83974  1.0000
  C   C2237     1.0  0.93434  0.20338  0.83452  1.0000
  C   C2238     1.0  0.95140  0.22349  0.83833  1.0000
  C   C2239     1.0  0.93014  0.21097  0.86414  1.0000
  C   C2240     1.0  0.91720  0.25012  0.84665  1.0000
  C   C2241     1.0  0.91835  0.19384  0.84080  1.0000
  C   C2242     1.0  0.95641  0.23235  0.81842  1.0000
  C   C2243     1.0  0.94336  0.19407  0.87112  1.0000
  H   H3843     1.0  0.91929  0.23723  0.82509  1.0000
  H   H3844     1.0  0.90535  0.22920  0.84529  1.0000
  H   H3845     1.0  0.94677  0.19294  0.83530  1.0000
  H   H3846     1.0  0.93507  0.20897  0.82000  1.0000
  H   H3847     1.0  0.95224  0.23267  0.84649  1.0000
  H   H3848     1.0  0.96251  0.21185  0.84065  1.0000
  H   H3849     1.0  0.93068  0.22131  0.87110  1.0000
  H   H3850     1.0  0.91637  0.20821  0.86914  1.0000
  H   H3851     1.0  0.91454  0.24769  0.86142  1.0000
  H   H3852     1.0  0.92922  0.25610  0.84085  1.0000
  H   H3853     1.0  0.90569  0.26040  0.84240  1.0000
  H   H3854     1.0  0.91761  0.18589  0.85463  1.0000
  H   H3855     1.0  0.60968  0.01954  0.82192  1.0000
  H   H3856     1.0  0.92009  0.18433  0.83204  1.0000
  C   C2244     1.0  0.72333  0.03170  0.74137  1.0000
  C   C2245     1.0  0.97740  0.30498  0.80669  1.0000
  C   C2246     1.0  0.96465  0.07664  0.96622  1.0000
  H   H3857     1.0  0.94380  0.18250  0.86545  1.0000
  H   H3858     1.0  0.93909  0.19010  0.88584  1.0000
  H   H3859     1.0  0.95708  0.19657  0.86847  1.0000
  H   H3860     1.0  0.74568  0.01766  0.86222  1.0000
  H   H3861     1.0  0.72517  0.99918  0.89210  1.0000
  H   H3862     1.0  0.80406  0.11036  0.79410  1.0000
  N   N158      1.0  0.79182  0.04766  0.75234  1.0000
  H   H3863     1.0  0.71594  0.99620  0.85755  1.0000
  C   C2247     1.0  0.79705  0.05664  0.76430  1.0000
  C   C2248     1.0  0.68750  0.04467  0.96677  1.0000
  H   H3864     1.0  0.81439  0.07433  0.76371  1.0000
  C   C2249     1.0  0.77832  0.06111  0.74269  1.0000
  H   H3865     1.0  0.92527  0.02758  0.92444  1.0000
  S   S646      1.0  0.68028  0.10907  0.74393  1.0000
  C   C2250     1.0  0.59170  0.03237  0.96972  1.0000
  H   H3866     1.0  0.69084  0.03147  0.96295  1.0000
  H   H3867     1.0  0.83873  0.26302  0.75022  1.0000
  C   C2251     1.0  0.78354  0.10574  0.78325  1.0000
  H   H3868     1.0  0.90543  0.20326  0.83966  1.0000
  H   H3869     1.0  0.97577  0.16910  0.81351  1.0000
  N   N159      1.0  0.74795  0.10439  0.86100  1.0000
  C   C2252     1.0  0.75500  0.11458  0.84261  1.0000
  C   C2253     1.0  0.73490  0.09439  0.85900  1.0000
  C   C2254     1.0  0.76366  0.09135  0.86777  1.0000
  C   C2255     1.0  0.73926  0.11776  0.87286  1.0000
  C   C2256     1.0  0.77053  0.12381  0.84106  1.0000
  C   C2257     1.0  0.71826  0.10600  0.85189  1.0000
  C   C2258     1.0  0.75958  0.07480  0.88223  1.0000
  C   C2259     1.0  0.72921  0.11081  0.89187  1.0000
  H   H3870     1.0  0.75978  0.10558  0.83284  1.0000
  H   H3871     1.0  0.74424  0.12532  0.83747  1.0000
  H   H3872     1.0  0.72973  0.08579  0.87179  1.0000
  H   H3873     1.0  0.74185  0.08497  0.84985  1.0000
  H   H3874     1.0  0.77354  0.08588  0.85659  1.0000
  S   S647      1.0  0.78913  0.04368  0.95731  1.0000
  C   C2260     1.0  0.64205  0.04424  0.75545  1.0000
  S   S648      1.0  0.98173  0.09067  0.83018  1.0000
  C   C2261     1.0  0.61116  0.05005  0.97304  1.0000
  C   C2262     1.0  0.71488  0.00441  0.75984  1.0000
  C   C2263     1.0  0.66944  0.01756  0.77560  1.0000
  S   S649      1.0  0.72703  0.07706  0.75343  1.0000
  S   S650      1.0  0.96359  0.13788  0.83562  1.0000
  H   H3875     1.0  0.94077  0.04906  0.89187  1.0000
  C   C2264     1.0  0.71651  0.05293  0.86691  1.0000
  H   H3876     1.0  0.73105  0.05239  0.86492  1.0000
  C   C2265     1.0  0.90959  0.00727  0.93530  1.0000
  H   H3877     1.0  0.84125  0.23298  0.80848  1.0000
  H   H3878     1.0  0.92124  0.99520  0.89864  1.0000
  H   H3879     1.0  0.89926  0.00526  0.90763  1.0000
  H   H3880     1.0  0.96944  0.23638  0.81596  1.0000
  H   H3881     1.0  0.65611  0.07401  0.73719  1.0000
  H   H3882     1.0  0.79641  0.08509  0.75192  1.0000
  H   H3883     1.0  0.64836  0.09101  0.75976  1.0000
  C   C2266     1.0  0.97956  0.29342  0.82527  1.0000
  C   C2267     1.0  0.94784  0.03508  0.89171  1.0000
  Fe  Fe326     1.0  0.69929  0.09268  0.76187  1.0000
  H   H3884     1.0  0.67691  0.01253  0.78665  1.0000
  C   C2268     1.0  0.93620  0.02384  0.88821  1.0000
  C   C2269     1.0  0.86199  0.23470  0.74018  1.0000
  C   C2270     1.0  0.61380  0.99053  0.84908  1.0000
  C   C2271     1.0  0.84095  0.24439  0.79684  1.0000
  H   H3885     1.0  0.67336  0.07867  0.97208  1.0000
  H   H3886     1.0  0.76744  0.04296  0.78702  1.0000
  C   C2272     1.0  0.76623  0.03613  0.77693  1.0000
  N   N160      1.0  0.98276  0.29519  0.79142  1.0000
  H   H3887     1.0  0.91205  0.05004  0.90322  1.0000
  H   H3888     1.0  0.90731  0.30598  0.77688  1.0000
  C   C2273     1.0  0.67336  0.04048  0.73666  1.0000
  H   H3889     1.0  0.72736  0.02135  0.82093  1.0000
  H   H3890     1.0  0.63400  0.07538  0.76664  1.0000
  H   H3891     1.0  0.69326  0.02976  0.84989  1.0000
  H   H3892     1.0  0.95687  0.28801  0.80144  1.0000
  C   C2274     1.0  0.92320  0.01615  0.92006  1.0000
  C   C2275     1.0  0.62283  0.01415  0.81394  1.0000
  H   H3893     1.0  0.67429  0.06891  0.74825  1.0000
  H   H3894     1.0  0.84386  0.07138  0.95213  1.0000
  H   H3895     1.0  0.69758  0.03557  0.87731  1.0000
  H   H3896     1.0  0.94488  0.01041  0.88729  1.0000
  H   H3897     1.0  0.82689  0.25110  0.79624  1.0000
  H   H3898     1.0  0.82003  0.26872  0.76794  1.0000
  S   S651      1.0  0.75915  0.09862  0.76826  1.0000
  H   H3899     1.0  0.65220  0.01599  0.75097  1.0000
  H   H3900     1.0  0.97285  0.30160  0.83555  1.0000
  C   C2276     1.0  0.72023  0.02045  0.75817  1.0000
  C   C2277     1.0  0.74517  0.03641  0.83700  1.0000
  C   C2278     1.0  0.97824  0.16748  0.82672  1.0000
  H   H3901     1.0  0.57852  0.02938  0.97243  1.0000
  C   C2279     1.0  0.92547  0.08662  0.96910  1.0000
  H   H3902     1.0  0.96611  0.26264  0.78242  1.0000
  N   N161      1.0  0.91887  0.02214  0.90165  1.0000
  C   C2280     1.0  0.91142  0.00819  0.89765  1.0000
  N   N162      1.0  0.66091  0.04687  0.75278  1.0000
  H   H3903     1.0  0.63449  0.04583  0.76912  1.0000
  H   H3904     1.0  0.90568  0.04583  0.88539  1.0000
  H   H3905     1.0  0.74348  0.00862  0.84480  1.0000
  C   C2281     1.0  0.71235  0.03405  0.87235  1.0000
  C   C2282     1.0  0.90650  0.04021  0.89960  1.0000
  C   C2283     1.0  0.80638  0.07254  0.75487  1.0000
  C   C2284     1.0  0.97697  0.15084  0.85720  1.0000
  C   C2285     1.0  0.64815  0.07653  0.76436  1.0000
  H   H3906     1.0  0.76196  0.02343  0.78435  1.0000
  H   H3907     1.0  0.81600  0.07049  0.74232  1.0000
  C   C2286     1.0  0.64619  0.98390  0.83744  1.0000
  H   H3908     1.0  0.61511  0.99054  0.81200  1.0000
  H   H3909     1.0  0.87218  0.22726  0.73065  1.0000
  H   H3910     1.0  0.78440  0.07238  0.73382  1.0000
  H   H3911     1.0  0.79366  0.02272  0.77186  1.0000
  C   C2287     1.0  0.96814  0.27661  0.77837  1.0000
  H   H3912     1.0  0.98617  0.16224  0.87428  1.0000
  H   H3913     1.0  0.72753  0.04406  0.73993  1.0000
  H   H3914     1.0  0.63345  0.02846  0.74121  1.0000
  H   H3915     1.0  0.97332  0.28160  0.82872  1.0000
  H   H3916     1.0  0.63828  0.98982  0.80611  1.0000
  N   N163      1.0  0.62823  0.98305  0.83472  1.0000
  H   H3917     1.0  0.82189  0.01848  0.75652  1.0000
  C   C2288     1.0  0.78410  0.03182  0.76370  1.0000
  S   S652      1.0  0.98790  0.05798  0.86419  1.0000
  H   H3918     1.0  0.70789  0.98752  0.74626  1.0000
  H   H3919     1.0  0.83506  0.02549  0.73499  1.0000
  C   C2289     1.0  0.82461  0.03038  0.74606  1.0000
  H   H3920     1.0  0.82530  0.02843  0.96118  1.0000
  H   H3921     1.0  0.96495  0.06240  0.96698  1.0000
  H   H3922     1.0  0.90305  0.08863  0.95698  1.0000
  H   H3923     1.0  0.76244  0.04350  0.73885  1.0000
  C   C2290     1.0  0.59432  0.99131  0.84801  1.0000
  C   C2291     1.0  0.80777  0.04101  0.73872  1.0000
  C   C2292     1.0  0.90608  0.08495  0.97057  1.0000
  H   H3924     1.0  0.80432  0.03208  0.73188  1.0000
  C   C2293     1.0  0.99036  0.22673  0.73457  1.0000
  H   H3925     1.0  0.67651  0.02575  0.73851  1.0000
  C   C2294     1.0  0.98862  0.17813  0.84753  1.0000
  C   C2295     1.0  0.98159  0.30918  0.77449  1.0000
  H   H3926     1.0  0.96306  0.31189  0.80831  1.0000
  H   H3927     1.0  0.73992  0.98853  0.87446  1.0000
  H   H3928     1.0  0.98516  0.31572  0.80394  1.0000
  H   H3929     1.0  0.98937  0.19118  0.81994  1.0000
  H   H3930     1.0  0.54431  0.99861  0.96668  1.0000
  H   H3931     1.0  0.95210  0.31408  0.77786  1.0000
  C   C2296     1.0  0.77017  0.05386  0.73094  1.0000
  H   H3932     1.0  0.90429  0.07105  0.97614  1.0000
  C   C2297     1.0  0.59446  0.04518  0.97760  1.0000
  C   C2298     1.0  0.71561  0.01092  0.72801  1.0000
  H   H3933     1.0  0.81176  0.05217  0.72775  1.0000
  Fe  Fe327     1.0  0.67700  0.53378  0.02094  1.0000
  S   S653      1.0  0.65918  0.56054  0.01458  1.0000
  H   H3934     1.0  0.50519  0.39177  0.99768  1.0000
  Fe  Fe328     1.0  0.64784  0.51345  0.02562  1.0000
  S   S654      1.0  0.62727  0.53840  0.01941  1.0000
  S   S655      1.0  0.64562  0.48458  0.03245  1.0000
  Fe  Fe329     1.0  0.64945  0.54788  0.99758  1.0000
  C   C2299     1.0  0.87878  0.51743  0.99219  1.0000
  Fe  Fe330     1.0  0.63880  0.54888  0.03691  1.0000
  S   S656      1.0  0.62051  0.56511  0.05631  1.0000
  S   S657      1.0  0.66905  0.52196  0.00212  1.0000
  S   S658      1.0  0.65747  0.52316  0.04494  1.0000
  Fe  Fe331     1.0  0.71328  0.57642  0.11130  1.0000
  S   S659      1.0  0.68939  0.58985  0.12896  1.0000
  S   S660      1.0  0.72957  0.59495  0.09094  1.0000
  Fe  Fe332     1.0  0.70383  0.53991  0.12691  1.0000
  S   S661      1.0  0.67925  0.55042  0.14584  1.0000
  S   S662      1.0  0.71123  0.51064  0.12665  1.0000
  Fe  Fe333     1.0  0.67467  0.57251  0.12226  1.0000
  S   S663      1.0  0.64746  0.58457  0.11614  1.0000
  Fe  Fe334     1.0  0.69645  0.56649  0.15070  1.0000
  S   S664      1.0  0.69791  0.56690  0.17867  1.0000
  S   S665      1.0  0.69795  0.56081  0.10286  1.0000
  S   S666      1.0  0.72167  0.55421  0.13353  1.0000
  Fe  Fe335     1.0  0.56461  0.39812  0.08305  1.0000
  S   S667      1.0  0.58553  0.37967  0.06755  1.0000
  S   S668      1.0  0.54910  0.38537  0.10929  1.0000
  Fe  Fe336     1.0  0.57420  0.43138  0.05583  1.0000
  S   S669      1.0  0.59573  0.41480  0.03861  1.0000
  S   S670      1.0  0.57089  0.46146  0.05020  1.0000
  Fe  Fe337     1.0  0.57543  0.39752  0.04370  1.0000
  S   S671      1.0  0.57100  0.38441  0.02319  1.0000
  Fe  Fe338     1.0  0.60297  0.39897  0.06474  1.0000
  S   S672      1.0  0.62990  0.39230  0.07261  1.0000
  S   S673      1.0  0.55333  0.41516  0.05937  1.0000
  S   S674      1.0  0.58246  0.41651  0.08142  1.0000
  Fe  Fe339     1.0  0.98466  0.54418  0.00311  1.0000
  H   H3935     1.0  0.52839  0.36467  0.07008  1.0000
  H   H3936     1.0  0.71909  0.58831  0.04219  1.0000
  H   H3937     1.0  0.75822  0.57577  0.15395  1.0000
  Fe  Fe340     1.0  0.85782  0.61999  0.07239  1.0000
  H   H3938     1.0  0.96529  0.61023  0.00850  1.0000
  Fe  Fe341     1.0  0.81860  0.61846  0.08862  1.0000
  S   S675      1.0  0.80167  0.59992  0.10835  1.0000
  H   H3939     1.0  0.91545  0.62444  0.02613  1.0000
  C   C2300     1.0  0.51135  0.33430  0.06622  1.0000
  H   H3940     1.0  0.76328  0.63971  0.14413  1.0000
  S   S676      1.0  0.83744  0.61025  0.06416  1.0000
  H   H3941     1.0  0.90230  0.64621  0.02686  1.0000
  Fe  Fe342     1.0  0.64797  0.44949  0.15266  1.0000
  S   S677      1.0  0.62561  0.43780  0.17210  1.0000
  S   S678      1.0  0.64351  0.47766  0.13699  1.0000
  Fe  Fe343     1.0  0.67543  0.41535  0.15877  1.0000
  S   S679      1.0  0.65569  0.40062  0.17877  1.0000
  S   S680      1.0  0.70404  0.40349  0.14842  1.0000
  Fe  Fe344     1.0  0.63748  0.41379  0.15947  1.0000
  S   S681      1.0  0.62053  0.39822  0.15310  1.0000
  Fe  Fe345     1.0  0.64588  0.42586  0.18949  1.0000
  H   H3942     1.0  0.49832  0.33005  0.06938  1.0000
  S   S682      1.0  0.65802  0.42665  0.13856  1.0000
  S   S683      1.0  0.66736  0.43947  0.17106  1.0000
  C   C2301     1.0  0.84653  0.51458  0.97870  1.0000
  C   C2302     1.0  0.62040  0.47626  0.22097  1.0000
  C   C2303     1.0  0.70472  0.36274  0.12714  1.0000
  H   H3943     1.0  0.70862  0.38322  0.10319  1.0000
  H   H3944     1.0  0.59624  0.31960  0.18134  1.0000
  C   C2304     1.0  0.88716  0.60490  0.03827  1.0000
  C   C2305     1.0  0.89629  0.59916  0.05235  1.0000
  C   C2306     1.0  0.91370  0.58880  0.04985  1.0000
  C   C2307     1.0  0.92208  0.58442  0.03315  1.0000
  H   H3945     1.0  0.87377  0.61301  0.04007  1.0000
  H   H3946     1.0  0.92074  0.58426  0.06077  1.0000
  H   H3947     1.0  0.93556  0.57651  0.03121  1.0000
  H   H3948     1.0  0.62446  0.35359  0.13594  1.0000
  N   N164      1.0  0.94782  0.63632  0.00625  1.0000
  H   H3949     1.0  0.61471  0.48817  0.21229  1.0000
  H   H3950     1.0  0.52962  0.36972  0.08989  1.0000
  C   C2308     1.0  0.93072  0.64604  0.01628  1.0000
  C   C2309     1.0  0.54977  0.37955  0.02544  1.0000
  C   C2310     1.0  0.53455  0.38746  0.03649  1.0000
  C   C2311     1.0  0.51784  0.38330  0.03817  1.0000
  C   C2312     1.0  0.51620  0.37100  0.02902  1.0000
  C   C2313     1.0  0.53138  0.36303  0.01794  1.0000
  C   C2314     1.0  0.54807  0.36744  0.01602  1.0000
  H   H3951     1.0  0.53562  0.39686  0.04373  1.0000
  H   H3952     1.0  0.50616  0.38953  0.04676  1.0000
  H   H3953     1.0  0.53031  0.35339  0.01095  1.0000
  H   H3954     1.0  0.55980  0.36124  0.00745  1.0000
  C   C2315     1.0  0.62766  0.39354  0.09506  1.0000
  C   C2316     1.0  0.61165  0.39166  0.10739  1.0000
  C   C2317     1.0  0.60958  0.39347  0.12501  1.0000
  C   C2318     1.0  0.62361  0.39677  0.13062  1.0000
  C   C2319     1.0  0.63981  0.39829  0.11845  1.0000
  C   C2320     1.0  0.64184  0.39666  0.10070  1.0000
  H   H3955     1.0  0.60088  0.38857  0.10344  1.0000
  H   H3956     1.0  0.59696  0.39249  0.13426  1.0000
  H   H3957     1.0  0.65078  0.40071  0.12265  1.0000
  H   H3958     1.0  0.65430  0.39802  0.09126  1.0000
  C   C2321     1.0  0.55863  0.36258  0.11514  1.0000
  H   H3959     1.0  0.86051  0.64358  0.11183  1.0000
  H   H3960     1.0  0.58568  0.36522  0.10233  1.0000
  S   S684      1.0  0.92375  0.58713  0.99745  1.0000
  C   C2322     1.0  0.68860  0.58701  0.18615  1.0000
  C   C2323     1.0  0.67731  0.60094  0.17695  1.0000
  C   C2324     1.0  0.66951  0.61659  0.18367  1.0000
  C   C2325     1.0  0.67288  0.61829  0.19964  1.0000
  H   H3961     1.0  0.71887  0.61723  0.19030  1.0000
  C   C2326     1.0  0.69225  0.58887  0.20190  1.0000
  H   H3962     1.0  0.67434  0.59958  0.16484  1.0000
  H   H3963     1.0  0.66071  0.62733  0.17658  1.0000
  H   H3964     1.0  0.71104  0.36975  0.13364  1.0000
  C   C2327     1.0  0.78142  0.59894  0.10369  1.0000
  C   C2328     1.0  0.77187  0.61353  0.09336  1.0000
  C   C2329     1.0  0.75572  0.61233  0.08981  1.0000
  C   C2330     1.0  0.74908  0.59657  0.09660  1.0000
  C   C2331     1.0  0.75837  0.58216  0.10735  1.0000
  C   C2332     1.0  0.77448  0.58338  0.11092  1.0000
  H   H3965     1.0  0.77696  0.62573  0.08810  1.0000
  H   H3966     1.0  0.74842  0.62360  0.08169  1.0000
  H   H3967     1.0  0.75339  0.56992  0.11255  1.0000
  H   H3968     1.0  0.78177  0.57211  0.11906  1.0000
  C   C2333     1.0  0.69238  0.50174  0.12902  1.0000
  C   C2334     1.0  0.67584  0.51289  0.12682  1.0000
  C   C2335     1.0  0.66087  0.50546  0.12899  1.0000
  C   C2336     1.0  0.66237  0.48690  0.13357  1.0000
  C   C2337     1.0  0.67899  0.47578  0.13546  1.0000
  C   C2338     1.0  0.69393  0.48319  0.13329  1.0000
  H   H3969     1.0  0.67458  0.52724  0.12327  1.0000
  H   H3970     1.0  0.64807  0.51413  0.12732  1.0000
  H   H3971     1.0  0.68044  0.46144  0.13832  1.0000
  H   H3972     1.0  0.70673  0.47454  0.13493  1.0000
  H   H3973     1.0  0.70450  0.61598  0.03703  1.0000
  H   H3974     1.0  0.65808  0.59031  0.04885  1.0000
  H   H3975     1.0  0.62518  0.45942  0.20196  1.0000
  C   C2339     1.0  0.62457  0.47871  0.03808  1.0000
  C   C2340     1.0  0.60855  0.49140  0.04032  1.0000
  C   C2341     1.0  0.59200  0.48602  0.04459  1.0000
  C   C2342     1.0  0.59147  0.46799  0.04657  1.0000
  C   C2343     1.0  0.60752  0.45534  0.04503  1.0000
  C   C2344     1.0  0.62397  0.46068  0.04074  1.0000
  H   H3976     1.0  0.60891  0.50530  0.03874  1.0000
  H   H3977     1.0  0.57962  0.49584  0.04613  1.0000
  H   H3978     1.0  0.60734  0.44139  0.04707  1.0000
  H   H3979     1.0  0.63631  0.45075  0.03935  1.0000
  C   C2345     1.0  0.62863  0.56912  0.07330  1.0000
  C   C2346     1.0  0.61754  0.58141  0.08339  1.0000
  C   C2347     1.0  0.62343  0.58559  0.09673  1.0000
  C   C2348     1.0  0.64040  0.57738  0.10031  1.0000
  C   C2349     1.0  0.65154  0.56476  0.09047  1.0000
  C   C2350     1.0  0.64569  0.56070  0.07684  1.0000
  H   H3980     1.0  0.60436  0.58791  0.08074  1.0000
  H   H3981     1.0  0.61480  0.59537  0.10421  1.0000
  H   H3982     1.0  0.66463  0.55826  0.09326  1.0000
  H   H3983     1.0  0.65428  0.55112  0.06912  1.0000
  C   C2351     1.0  0.73233  0.57695  0.00478  1.0000
  C   C2352     1.0  0.71381  0.57907  0.01123  1.0000
  C   C2353     1.0  0.70566  0.56421  0.01617  1.0000
  C   C2354     1.0  0.71607  0.54727  0.01458  1.0000
  H   H3984     1.0  0.69114  0.38235  0.18333  1.0000
  C   C2355     1.0  0.57692  0.35605  0.10916  1.0000
  H   H3985     1.0  0.70579  0.59221  0.01219  1.0000
  H   H3986     1.0  0.69140  0.56583  0.02129  1.0000
  H   H3987     1.0  0.79634  0.61650  0.05893  1.0000
  H   H3988     1.0  0.70982  0.46173  0.10679  1.0000
  H   H3989     1.0  0.62473  0.58161  0.20532  1.0000
  H   H3990     1.0  0.78195  0.57137  0.02812  1.0000
  C   C2356     1.0  0.54772  0.35067  0.12548  1.0000
  H   H3991     1.0  0.84954  0.58866  0.00651  1.0000
  H   H3992     1.0  0.89083  0.59463  0.98312  1.0000
  H   H3993     1.0  0.70968  0.60607  0.14689  1.0000
  H   H3994     1.0  0.54617  0.32304  0.13622  1.0000
  C   C2357     1.0  0.69110  0.58688  0.05655  1.0000
  H   H3995     1.0  0.68713  0.62685  0.09113  1.0000
  C   C2358     1.0  0.71168  0.58065  0.05435  1.0000
  H   H3996     1.0  0.88972  0.62767  0.10516  1.0000
  H   H3997     1.0  0.68499  0.57775  0.06852  1.0000
  H   H3998     1.0  0.68767  0.58398  0.04497  1.0000
  C   C2359     1.0  0.55480  0.33224  0.12869  1.0000
  H   H3999     1.0  0.65954  0.59972  0.07629  1.0000
  H   H4000     1.0  0.69194  0.59763  0.08347  1.0000
  H   H4001     1.0  0.68912  0.51726  0.19469  1.0000
  S   S685      1.0  0.74307  0.33441  0.19509  1.0000
  H   H4002     1.0  0.74367  0.62964  0.17120  1.0000
  H   H4003     1.0  0.82108  0.52695  0.99332  1.0000
  H   H4004     1.0  0.71635  0.31961  0.14155  1.0000
  H   H4005     1.0  0.66796  0.35291  0.17727  1.0000
  H   H4006     1.0  0.89852  0.63702  0.11792  1.0000
  C   C2360     1.0  0.63665  0.57057  0.20494  1.0000
  C   C2361     1.0  0.53719  0.34118  0.09049  1.0000
  C   C2362     1.0  0.70724  0.47761  0.06032  1.0000
  H   H4007     1.0  0.68203  0.37517  0.15454  1.0000
  C   C2363     1.0  0.68370  0.48691  0.08623  1.0000
  H   H4008     1.0  0.96369  0.64406  0.02058  1.0000
  C   C2364     1.0  0.69503  0.48235  0.04662  1.0000
  H   H4009     1.0  0.73867  0.56806  0.16710  1.0000
  C   C2365     1.0  0.67884  0.46829  0.09088  1.0000
  Fe  Fe346     1.0  0.82954  0.63898  0.05092  1.0000
  H   H4010     1.0  0.78308  0.62500  0.13554  1.0000
  H   H4011     1.0  0.70792  0.46324  0.06644  1.0000
  H   H4012     1.0  0.72106  0.47857  0.05257  1.0000
  C   C2366     1.0  0.58401  0.33760  0.11228  1.0000
  H   H4013     1.0  0.63480  0.49128  0.99249  1.0000
  N   N165      1.0  0.59747  0.49981  0.98879  1.0000
  H   H4014     1.0  0.73781  0.58122  0.14533  1.0000
  H   H4015     1.0  0.69371  0.53568  0.06820  1.0000
  C   C2367     1.0  0.68965  0.61777  0.04024  1.0000
  H   H4016     1.0  0.71054  0.62110  0.12580  1.0000
  H   H4017     1.0  0.68058  0.48524  0.05277  1.0000
  H   H4018     1.0  0.69820  0.49399  0.03600  1.0000
  H   H4019     1.0  0.69747  0.47100  0.03987  1.0000
  S   S686      1.0  0.83987  0.62544  0.09804  1.0000
  C   C2368     1.0  0.68262  0.63808  0.03827  1.0000
  C   C2369     1.0  0.73457  0.54518  0.00818  1.0000
  H   H4020     1.0  0.67566  0.46516  0.07932  1.0000
  H   H4021     1.0  0.66658  0.46833  0.10162  1.0000
  H   H4022     1.0  0.68924  0.45729  0.09594  1.0000
  H   H4023     1.0  0.88318  0.56536  0.00069  1.0000
  H   H4024     1.0  0.72434  0.45499  0.08661  1.0000
  H   H4025     1.0  0.65830  0.59892  0.98041  1.0000
  H   H4026     1.0  0.84892  0.50489  0.99123  1.0000
  H   H4027     1.0  0.66510  0.46567  0.22159  1.0000
  H   H4028     1.0  0.70697  0.52132  0.08338  1.0000
  H   H4029     1.0  0.72278  0.31923  0.16175  1.0000
  H   H4030     1.0  0.75694  0.55823  0.99807  1.0000
  H   H4031     1.0  0.67136  0.34381  0.11140  1.0000
  N   N166      1.0  0.59334  0.34386  0.16104  1.0000
  C   C2370     1.0  0.64976  0.57174  0.21581  1.0000
  C   C2371     1.0  0.58542  0.33034  0.17627  1.0000
  C   C2372     1.0  0.60229  0.35426  0.16837  1.0000
  C   C2373     1.0  0.57906  0.35667  0.15199  1.0000
  H   H4032     1.0  0.93225  0.64654  0.02972  1.0000
  H   H4033     1.0  0.52659  0.37521  0.98187  1.0000
  C   C2374     1.0  0.61918  0.34365  0.17559  1.0000
  C   C2375     1.0  0.56390  0.36760  0.16392  1.0000
  C   C2376     1.0  0.81632  0.63380  0.99736  1.0000
  H   H4034     1.0  0.56896  0.51120  0.99611  1.0000
  H   H4035     1.0  0.57791  0.33655  0.18788  1.0000
  H   H4036     1.0  0.91515  0.61662  0.08855  1.0000
  C   C2377     1.0  0.71633  0.62781  0.17839  1.0000
  H   H4037     1.0  0.59291  0.35992  0.17963  1.0000
  H   H4038     1.0  0.58490  0.36656  0.14072  1.0000
  H   H4039     1.0  0.57275  0.34941  0.14591  1.0000
  C   C2378     1.0  0.91388  0.63845  0.01879  1.0000
  H   H4040     1.0  0.69218  0.33332  0.16586  1.0000
  H   H4041     1.0  0.95535  0.59746  0.03926  1.0000
  S   S687      1.0  0.74252  0.59546  0.99839  1.0000
  H   H4042     1.0  0.68711  0.60570  0.22095  1.0000
  N   N167      1.0  0.69146  0.35297  0.14096  1.0000
  H   H4043     1.0  0.63023  0.33913  0.16485  1.0000
  H   H4044     1.0  0.61648  0.33199  0.18639  1.0000
  H   H4045     1.0  0.62400  0.35254  0.18129  1.0000
  H   H4046     1.0  0.55652  0.35898  0.17522  1.0000
  H   H4047     1.0  0.55409  0.37609  0.15572  1.0000
  H   H4048     1.0  0.56896  0.37673  0.16905  1.0000
  H   H4049     1.0  0.63271  0.55743  0.20896  1.0000
  H   H4050     1.0  0.60733  0.47851  0.00951  1.0000
  H   H4051     1.0  0.53037  0.33611  0.10435  1.0000
  S   S688      1.0  0.64177  0.42416  0.21907  1.0000
  C   C2379     1.0  0.60970  0.48227  0.99469  1.0000
  H   H4052     1.0  0.88855  0.60549  0.01065  1.0000
  H   H4053     1.0  0.57842  0.49719  0.01392  1.0000
  C   C2380     1.0  0.89555  0.60063  0.02159  1.0000
  C   C2381     1.0  0.74266  0.56001  0.00315  1.0000
  C   C2382     1.0  0.91308  0.59059  0.01895  1.0000
  C   C2383     1.0  0.81802  0.62065  0.98766  1.0000
  C   C2384     1.0  0.52581  0.35977  0.08465  1.0000
  C   C2385     1.0  0.57106  0.48335  0.99775  1.0000
  H   H4054     1.0  0.60885  0.35438  0.12251  1.0000
  H   H4055     1.0  0.54045  0.34575  0.05301  1.0000
  H   H4056     1.0  0.67734  0.36314  0.22754  1.0000
  H   H4057     1.0  0.69143  0.47002  0.18475  1.0000
  H   H4058     1.0  0.73260  0.46338  0.10099  1.0000
  H   H4059     1.0  0.59799  0.33262  0.10699  1.0000
  H   H4060     1.0  0.66685  0.62096  0.09100  1.0000
  C   C2386     1.0  0.79115  0.58027  0.02723  1.0000
  H   H4061     1.0  0.86687  0.51469  0.00266  1.0000
  H   H4062     1.0  0.71587  0.35322  0.12058  1.0000
  H   H4063     1.0  0.70635  0.35478  0.20147  1.0000
  H   H4064     1.0  0.83857  0.53837  0.99103  1.0000
  H   H4065     1.0  0.68250  0.49087  0.09899  1.0000
  H   H4066     1.0  0.56002  0.32992  0.16944  1.0000
  C   C2387     1.0  0.49300  0.39625  0.99201  1.0000
  C   C2388     1.0  0.73169  0.35383  0.18291  1.0000
  H   H4067     1.0  0.75497  0.35635  0.16183  1.0000
  H   H4068     1.0  0.91019  0.63948  0.00591  1.0000
  H   H4069     1.0  0.80871  0.60063  0.03679  1.0000
  H   H4070     1.0  0.68677  0.38762  0.11640  1.0000
  H   H4071     1.0  0.74106  0.60817  0.12847  1.0000
  C   C2389     1.0  0.71616  0.48434  0.08507  1.0000
  S   S689      1.0  0.97366  0.57204  0.00781  1.0000
  Fe  Fe347     1.0  0.95253  0.57264  0.99338  1.0000
  H   H4072     1.0  0.55009  0.34314  0.09217  1.0000
  C   C2390     1.0  0.72071  0.46491  0.09524  1.0000
  H   H4073     1.0  0.76158  0.56995  0.06902  1.0000
  H   H4074     1.0  0.50829  0.34862  0.06668  1.0000
  H   H4075     1.0  0.76703  0.60089  0.14057  1.0000
  H   H4076     1.0  0.64364  0.57184  0.19067  1.0000
  H   H4077     1.0  0.69277  0.47864  0.20292  1.0000
  C   C2391     1.0  0.73376  0.61801  0.13696  1.0000
  H   H4078     1.0  0.70088  0.52153  0.17202  1.0000
  Fe  Fe348     1.0  0.76844  0.58832  0.97923  1.0000
  C   C2392     1.0  0.62631  0.46000  0.21512  1.0000
  H   H4079     1.0  0.79016  0.63353  0.04020  1.0000
  C   C2393     1.0  0.70504  0.37675  0.17871  1.0000
  H   H4080     1.0  0.79190  0.58884  0.01358  1.0000
  H   H4081     1.0  0.71371  0.50995  0.05539  1.0000
  H   H4082     1.0  0.76703  0.60668  0.16077  1.0000
  C   C2394     1.0  0.63004  0.48150  0.98796  1.0000
  H   H4083     1.0  0.81444  0.56209  0.01567  1.0000
  C   C2395     1.0  0.80998  0.56833  0.02757  1.0000
  H   H4084     1.0  0.80992  0.55729  0.03949  1.0000
  H   H4085     1.0  0.82016  0.57597  0.02686  1.0000
  C   C2396     1.0  0.82613  0.63052  0.01077  1.0000
  C   C2397     1.0  0.69251  0.41005  0.20869  1.0000
  C   C2398     1.0  0.67648  0.36636  0.14938  1.0000
  S   S690      1.0  0.50635  0.34241  0.98996  1.0000
  H   H4086     1.0  0.72950  0.33515  0.14232  1.0000
  H   H4087     1.0  0.74237  0.59323  0.17796  1.0000
  H   H4088     1.0  0.51130  0.35996  0.08987  1.0000
  H   H4089     1.0  0.72890  0.48765  0.07626  1.0000
  C   C2399     1.0  0.57880  0.49871  0.99946  1.0000
  H   H4090     1.0  0.96026  0.61837  0.03872  1.0000
  H   H4091     1.0  0.90584  0.56288  0.98906  1.0000
  H   H4092     1.0  0.71255  0.49257  0.09541  1.0000
  C   C2400     1.0  0.66258  0.35834  0.16487  1.0000
  H   H4093     1.0  0.66686  0.36418  0.11873  1.0000
  H   H4094     1.0  0.66884  0.37568  0.13964  1.0000
  H   H4095     1.0  0.62778  0.33653  0.12379  1.0000
  S   S691      1.0  0.88632  0.60574  0.07273  1.0000
  C   C2401     1.0  0.83002  0.60433  0.99087  1.0000
  C   C2402     1.0  0.54926  0.33433  0.06000  1.0000
  H   H4096     1.0  0.51779  0.33257  0.05236  1.0000
  H   H4097     1.0  0.73284  0.36850  0.22692  1.0000
  H   H4098     1.0  0.51306  0.42746  0.98872  1.0000
  S   S692      1.0  0.79186  0.56787  0.98745  1.0000
  C   C2403     1.0  0.67934  0.62479  0.08223  1.0000
  C   C2404     1.0  0.68431  0.60442  0.20871  1.0000
  H   H4099     1.0  0.70156  0.39843  0.20371  1.0000
  H   H4100     1.0  0.59979  0.32707  0.14159  1.0000
  N   N168      1.0  0.61311  0.45979  0.10077  1.0000
  C   C2405     1.0  0.63164  0.44830  0.10015  1.0000
  C   C2406     1.0  0.60562  0.46320  0.11941  1.0000
  C   C2407     1.0  0.61353  0.47754  0.08795  1.0000
  C   C2408     1.0  0.60163  0.45018  0.09558  1.0000
  C   C2409     1.0  0.64195  0.44452  0.08164  1.0000
  C   C2410     1.0  0.60234  0.44666  0.13423  1.0000
  C   C2411     1.0  0.62717  0.48793  0.08907  1.0000
  C   C2412     1.0  0.58158  0.45912  0.09743  1.0000
  H   H4101     1.0  0.64009  0.45410  0.10551  1.0000
  H   H4102     1.0  0.63103  0.43500  0.10903  1.0000
  H   H4103     1.0  0.59281  0.47327  0.11998  1.0000
  H   H4104     1.0  0.61482  0.46917  0.12357  1.0000
  H   H4105     1.0  0.61621  0.47588  0.07397  1.0000
  H   H4106     1.0  0.60021  0.48671  0.08991  1.0000
  H   H4107     1.0  0.60649  0.44892  0.08139  1.0000
  H   H4108     1.0  0.60266  0.43616  0.10332  1.0000
  H   H4109     1.0  0.64348  0.45686  0.07138  1.0000
  H   H4110     1.0  0.65564  0.43678  0.08278  1.0000
  H   H4111     1.0  0.63557  0.43615  0.07687  1.0000
  H   H4112     1.0  0.59295  0.43965  0.13188  1.0000
  H   H4113     1.0  0.61504  0.43712  0.13609  1.0000
  H   H4114     1.0  0.59624  0.45102  0.14711  1.0000
  H   H4115     1.0  0.62511  0.49077  0.10253  1.0000
  H   H4116     1.0  0.62546  0.50103  0.07958  1.0000
  H   H4117     1.0  0.64117  0.48095  0.08496  1.0000
  H   H4118     1.0  0.57481  0.45940  0.11151  1.0000
  H   H4119     1.0  0.57471  0.45128  0.09254  1.0000
  H   H4120     1.0  0.57946  0.47280  0.08914  1.0000
  H   H4121     1.0  0.88498  0.64169  0.07598  1.0000
  C   C2413     1.0  0.69062  0.60969  0.07255  1.0000
  C   C2414     1.0  0.73242  0.37736  0.15628  1.0000
  H   H4122     1.0  0.68202  0.55819  0.22751  1.0000
  H   H4123     1.0  0.63957  0.60739  0.05484  1.0000
  H   H4124     1.0  0.61628  0.32312  0.15409  1.0000
  N   N169      1.0  0.67036  0.49291  0.19027  1.0000
  C   C2415     1.0  0.68150  0.50487  0.17631  1.0000
  C   C2416     1.0  0.65778  0.48806  0.18168  1.0000
  C   C2417     1.0  0.69520  0.51116  0.18285  1.0000
  C   C2418     1.0  0.64304  0.50329  0.17479  1.0000
  H   H4125     1.0  0.67319  0.51694  0.16965  1.0000
  H   H4126     1.0  0.68918  0.49796  0.16523  1.0000
  H   H4127     1.0  0.66549  0.48156  0.17032  1.0000
  H   H4128     1.0  0.72210  0.59713  0.17068  1.0000
  H   H4129     1.0  0.70669  0.50015  0.18566  1.0000
  H   H4130     1.0  0.63315  0.50859  0.18591  1.0000
  H   H4131     1.0  0.63547  0.49780  0.16815  1.0000
  H   H4132     1.0  0.64840  0.51420  0.16462  1.0000
  H   H4133     1.0  0.65083  0.52740  0.18869  1.0000
  H   H4134     1.0  0.68540  0.45042  0.21535  1.0000
  H   H4135     1.0  0.76674  0.61008  0.01235  1.0000
  H   H4136     1.0  0.73624  0.63117  0.12872  1.0000
  C   C2419     1.0  0.83819  0.61420  0.01395  1.0000
  C   C2420     1.0  0.77634  0.56519  0.06651  1.0000
  N   N170      1.0  0.70173  0.48887  0.07433  1.0000
  H   H4137     1.0  0.53365  0.35565  0.13040  1.0000
  S   S693      1.0  0.70640  0.52847  0.02045  1.0000
  H   H4138     1.0  0.69151  0.58142  0.98600  1.0000
  C   C2421     1.0  0.69753  0.37672  0.11173  1.0000
  H   H4139     1.0  0.60594  0.36608  0.15820  1.0000
  H   H4140     1.0  0.57094  0.48369  0.98370  1.0000
  H   H4141     1.0  0.91406  0.62930  0.06618  1.0000
  H   H4142     1.0  0.58003  0.52965  0.00822  1.0000
  C   C2422     1.0  0.65150  0.52110  0.20273  1.0000
  H   H4143     1.0  0.65707  0.61323  0.03641  1.0000
  H   H4144     1.0  0.75729  0.60421  0.05374  1.0000
  N   N171      1.0  0.74087  0.61359  0.15386  1.0000
  C   C2423     1.0  0.65433  0.60457  0.04984  1.0000
  H   H4145     1.0  0.68337  0.52097  0.08687  1.0000
  H   H4146     1.0  0.65792  0.34787  0.16143  1.0000
  C   C2424     1.0  0.89184  0.56641  0.98710  1.0000
  C   C2425     1.0  0.73671  0.59625  0.16574  1.0000
  C   C2426     1.0  0.71836  0.32819  0.14964  1.0000
  C   C2427     1.0  0.60381  0.51455  0.99284  1.0000
  H   H4147     1.0  0.55214  0.32377  0.05208  1.0000
  Fe  Fe349     1.0  0.72769  0.31986  0.22009  1.0000
  H   H4148     1.0  0.65670  0.62212  0.06520  1.0000
  H   H4149     1.0  0.76520  0.63193  0.12393  1.0000
  H   H4150     1.0  0.67968  0.41282  0.20423  1.0000
  H   H4151     1.0  0.68309  0.64424  0.02390  1.0000
  C   C2428     1.0  0.71365  0.36118  0.18900  1.0000
  C   C2429     1.0  0.56684  0.34064  0.05762  1.0000
  H   H4152     1.0  0.57824  0.47011  0.00394  1.0000
  H   H4153     1.0  0.87224  0.58898  0.97871  1.0000
  H   H4154     1.0  0.70436  0.61249  0.06726  1.0000
  C   C2430     1.0  0.83313  0.53121  0.98400  1.0000
  C   C2431     1.0  0.74103  0.36199  0.16657  1.0000
  H   H4155     1.0  0.70124  0.57827  0.20889  1.0000
  C   C2432     1.0  0.88967  0.64073  0.10807  1.0000
  N   N172      1.0  0.68353  0.60616  0.05804  1.0000
  H   H4156     1.0  0.65045  0.47810  0.19115  1.0000
  C   C2433     1.0  0.60659  0.33402  0.14756  1.0000
  H   H4157     1.0  0.61525  0.51845  0.98223  1.0000
  C   C2434     1.0  0.70104  0.34149  0.15555  1.0000
  C   C2435     1.0  0.68314  0.47588  0.19640  1.0000
  C   C2436     1.0  0.66031  0.50096  0.20629  1.0000
  S   S694      1.0  0.66283  0.63784  0.20796  1.0000
  H   H4158     1.0  0.60681  0.47117  0.99036  1.0000
  H   H4159     1.0  0.70532  0.63004  0.14543  1.0000
  C   C2437     1.0  0.68496  0.34096  0.13303  1.0000
  H   H4160     1.0  0.88492  0.52615  0.99676  1.0000
  H   H4161     1.0  0.80055  0.57582  0.06003  1.0000
  H   H4162     1.0  0.78109  0.58960  0.06943  1.0000
  C   C2438     1.0  0.95104  0.61216  0.03502  1.0000
  C   C2439     1.0  0.76102  0.61134  0.14866  1.0000
  H   H4163     1.0  0.68682  0.61356  0.02906  1.0000
  H   H4164     1.0  0.93731  0.61585  0.04278  1.0000
  H   H4165     1.0  0.84598  0.61161  0.02408  1.0000
  H   H4166     1.0  0.75730  0.58840  0.04174  1.0000
  H   H4167     1.0  0.60908  0.50980  0.00538  1.0000
  N   N173      1.0  0.78394  0.59167  0.04116  1.0000
  H   H4168     1.0  0.77976  0.55772  0.07955  1.0000
  C   C2440     1.0  0.78614  0.58095  0.05944  1.0000
  H   H4169     1.0  0.71145  0.64067  0.18301  1.0000
  H   H4170     1.0  0.63734  0.46808  0.99367  1.0000
  H   H4171     1.0  0.66938  0.49915  0.21560  1.0000
  H   H4172     1.0  0.65442  0.58452  0.20959  1.0000
  H   H4173     1.0  0.70468  0.34995  0.16272  1.0000
  H   H4174     1.0  0.76359  0.62663  0.02556  1.0000
  C   C2441     1.0  0.76427  0.59913  0.04135  1.0000
  H   H4175     1.0  0.51423  0.32195  0.09321  1.0000
  H   H4176     1.0  0.78034  0.55568  0.05740  1.0000
  H   H4177     1.0  0.79469  0.61355  0.02228  1.0000
  C   C2442     1.0  0.84024  0.60124  0.00389  1.0000
  C   C2443     1.0  0.79438  0.60631  0.03635  1.0000
  C   C2444     1.0  0.75996  0.61409  0.02526  1.0000
  C   C2445     1.0  0.74341  0.57958  0.15726  1.0000
  H   H4178     1.0  0.66157  0.56090  0.21301  1.0000
  C   C2446     1.0  0.57273  0.32075  0.17201  1.0000
  S   S695      1.0  0.96145  0.54369  0.99167  1.0000
  S   S696      1.0  0.49497  0.36593  0.03198  1.0000
  H   H4179     1.0  0.67601  0.63769  0.07303  1.0000
  H   H4180     1.0  0.96750  0.61594  0.97911  1.0000
  C   C2447     1.0  0.69593  0.52208  0.07675  1.0000
  C   C2448     1.0  0.71364  0.61878  0.13924  1.0000
  H   H4181     1.0  0.74267  0.53209  0.00688  1.0000
  H   H4182     1.0  0.67260  0.49636  0.08027  1.0000
  H   H4183     1.0  0.97611  0.63618  0.00118  1.0000
  C   C2449     1.0  0.70076  0.50816  0.06479  1.0000
  H   H4184     1.0  0.65064  0.36900  0.16783  1.0000
  H   H4185     1.0  0.56448  0.35262  0.06340  1.0000
  H   H4186     1.0  0.69052  0.51237  0.05643  1.0000
  H   H4187     1.0  0.73974  0.38350  0.14358  1.0000
  C   C2450     1.0  0.63360  0.44454  0.22632  1.0000
  H   H4188     1.0  0.72470  0.39209  0.22388  1.0000
  N   N174      1.0  0.54026  0.32772  0.07903  1.0000
  C   C2451     1.0  0.94595  0.63809  0.98736  1.0000
  H   H4189     1.0  0.71645  0.58116  0.06616  1.0000
  C   C2452     1.0  0.66340  0.60848  0.06311  1.0000
  H   H4190     1.0  0.71543  0.56647  0.05297  1.0000
  H   H4191     1.0  0.64955  0.49364  0.21413  1.0000
  C   C2453     1.0  0.71445  0.38478  0.16229  1.0000
  C   C2454     1.0  0.61740  0.34550  0.13171  1.0000
  C   C2455     1.0  0.52291  0.32256  0.07960  1.0000
  H   H4192     1.0  0.94248  0.60960  0.01213  1.0000
  C   C2456     1.0  0.67464  0.46090  0.20999  1.0000
  C   C2457     1.0  0.57286  0.32568  0.12182  1.0000
  H   H4193     1.0  0.69617  0.33448  0.12346  1.0000
  C   C2458     1.0  0.66909  0.34955  0.12341  1.0000
  H   H4194     1.0  0.59702  0.54199  0.99639  1.0000
  H   H4195     1.0  0.93558  0.63091  0.98719  1.0000
  H   H4196     1.0  0.66559  0.31912  0.17842  1.0000
  H   H4197     1.0  0.69937  0.42134  0.20179  1.0000
  H   H4198     1.0  0.74530  0.61710  0.02578  1.0000
  C   C2459     1.0  0.95169  0.61673  0.01473  1.0000
  C   C2460     1.0  0.76822  0.62812  0.13750  1.0000
  H   H4199     1.0  0.93466  0.62306  0.07373  1.0000
  H   H4200     1.0  0.63747  0.52293  0.21051  1.0000
  H   H4201     1.0  0.57731  0.33002  0.06321  1.0000
  H   H4202     1.0  0.77397  0.62203  0.05475  1.0000
  H   H4203     1.0  0.69322  0.37043  0.10299  1.0000
  C   C2461     1.0  0.58995  0.53189  0.99547  1.0000
  C   C2462     1.0  0.66951  0.37706  0.22662  1.0000
  C   C2463     1.0  0.91995  0.62757  0.07795  1.0000
  H   H4204     1.0  0.65845  0.52876  0.20775  1.0000
  H   H4205     1.0  0.57236  0.34470  0.04311  1.0000
  H   H4206     1.0  0.88897  0.50493  0.99118  1.0000
  C   C2464     1.0  0.78831  0.62020  0.04839  1.0000
  H   H4207     1.0  0.73138  0.64185  0.15451  1.0000
  H   H4208     1.0  0.66796  0.45423  0.20361  1.0000
  H   H4209     1.0  0.68052  0.32973  0.14370  1.0000
  H   H4210     1.0  0.66842  0.64182  0.04477  1.0000
  C   C2465     1.0  0.73368  0.62871  0.16393  1.0000
  H   H4211     1.0  0.67378  0.38515  0.21330  1.0000
  H   H4212     1.0  0.55694  0.48475  0.00527  1.0000
  H   H4213     1.0  0.70353  0.37325  0.22184  1.0000
  H   H4214     1.0  0.80707  0.64643  0.99476  1.0000
  H   H4215     1.0  0.65654  0.34584  0.13205  1.0000
  H   H4216     1.0  0.67433  0.60932  0.98352  1.0000
  H   H4217     1.0  0.58290  0.53786  0.98429  1.0000
  H   H4218     1.0  0.70534  0.62553  0.17358  1.0000
  H   H4219     1.0  0.70039  0.54872  0.97984  1.0000
  C   C2466     1.0  0.96310  0.64431  0.00663  1.0000
  H   H4220     1.0  0.52627  0.40615  0.98441  1.0000
  S   S697      1.0  0.82262  0.64691  0.02350  1.0000
  H   H4221     1.0  0.69103  0.64414  0.04336  1.0000
  S   S698      1.0  0.80905  0.64666  0.07497  1.0000
  H   H4222     1.0  0.86841  0.64110  0.13200  1.0000
  C   C2467     1.0  0.87018  0.64726  0.11754  1.0000
  H   H4223     1.0  0.92394  0.64225  0.09535  1.0000
  C   C2468     1.0  0.91625  0.64513  0.08461  1.0000
  H   H4224     1.0  0.88945  0.55647  0.98086  1.0000
  S   S699      1.0  0.83284  0.58781  0.97846  1.0000
  S   S700      1.0  0.85152  0.64822  0.05727  1.0000
  S   S701      1.0  0.69783  0.32288  0.22721  1.0000
  C   C2469     1.0  0.51941  0.41946  0.97824  1.0000
  Fe  Fe350     1.0  0.99032  0.58000  0.98065  1.0000
  C   C2470     1.0  0.65625  0.48393  0.34006  1.0000
  H   H4225     1.0  0.70566  0.33240  0.34298  1.0000
  S   S702      1.0  0.95019  0.37786  0.45056  1.0000
  H   H4226     1.0  0.85396  0.34882  0.38177  1.0000
  H   H4227     1.0  0.97494  0.36594  0.37101  1.0000
  H   H4228     1.0  0.89563  0.32521  0.41221  1.0000
  Fe  Fe351     1.0  0.95102  0.32419  0.33902  1.0000
  N   N175      1.0  0.67112  0.47256  0.34932  1.0000
  H   H4229     1.0  0.64957  0.50777  0.31988  1.0000
  H   H4230     1.0  0.78197  0.31924  0.31017  1.0000
  C   C2471     1.0  0.97926  0.39372  0.36182  1.0000
  C   C2472     1.0  0.68600  0.47568  0.37392  1.0000
  Fe  Fe352     1.0  0.95240  0.33178  0.37438  1.0000
  S   S703      1.0  0.95120  0.34920  0.34726  1.0000
  S   S704      1.0  0.93165  0.34107  0.39744  1.0000
  H   H4231     1.0  0.88027  0.31897  0.47243  1.0000
  C   C2473     1.0  0.64998  0.31666  0.44906  1.0000
  H   H4232     1.0  0.78693  0.32191  0.32993  1.0000
  H   H4233     1.0  0.95979  0.38914  0.39586  1.0000
  C   C2474     1.0  0.86630  0.33833  0.35785  1.0000
  H   H4234     1.0  0.95439  0.38290  0.37250  1.0000
  C   C2475     1.0  0.76075  0.36017  0.41020  1.0000
  H   H4235     1.0  0.49802  0.48899  0.39879  1.0000
  C   C2476     1.0  0.90208  0.36099  0.35193  1.0000
  N   N176      1.0  0.88259  0.34393  0.37975  1.0000
  Fe  Fe353     1.0  0.67549  0.33513  0.40977  1.0000
  S   S705      1.0  0.68498  0.36105  0.40193  1.0000
  H   H4236     1.0  0.67661  0.41803  0.23259  1.0000
  C   C2477     1.0  0.89997  0.34380  0.36616  1.0000
  Fe  Fe354     1.0  0.66580  0.36952  0.38316  1.0000
  S   S706      1.0  0.64550  0.39567  0.38254  1.0000
  H   H4237     1.0  0.87504  0.38286  0.39674  1.0000
  Fe  Fe355     1.0  0.59185  0.49454  0.31178  1.0000
  S   S707      1.0  0.61494  0.49608  0.32256  1.0000
  S   S708      1.0  0.56565  0.49526  0.33199  1.0000
  Fe  Fe356     1.0  0.61421  0.49624  0.27378  1.0000
  S   S709      1.0  0.63859  0.49900  0.28152  1.0000
  S   S710      1.0  0.61524  0.49790  0.24464  1.0000
  Fe  Fe357     1.0  0.63150  0.47705  0.30499  1.0000
  S   S711      1.0  0.65456  0.45430  0.31092  1.0000
  Fe  Fe358     1.0  0.61972  0.51763  0.29828  1.0000
  S   S712      1.0  0.61962  0.54513  0.30136  1.0000
  S   S713      1.0  0.60799  0.47330  0.29635  1.0000
  S   S714      1.0  0.59582  0.51707  0.28833  1.0000
  C   C2478     1.0  0.50472  0.64889  0.35496  1.0000
  S   S715      1.0  0.65164  0.61700  0.25802  1.0000
  H   H4238     1.0  0.61624  0.57392  0.26677  1.0000
  S   S716      1.0  0.66668  0.63141  0.28599  1.0000
  C   C2479     1.0  0.61891  0.58690  0.25843  1.0000
  Fe  Fe359     1.0  0.67647  0.61058  0.26904  1.0000
  S   S717      1.0  0.68692  0.58116  0.27847  1.0000
  C   C2480     1.0  0.70390  0.37574  0.23483  1.0000
  H   H4239     1.0  0.95481  0.40787  0.41703  1.0000
  S   S718      1.0  0.69115  0.62809  0.24576  1.0000
  H   H4240     1.0  0.90842  0.36957  0.35648  1.0000
  N   N177      1.0  0.98422  0.39594  0.37823  1.0000
  H   H4241     1.0  0.59078  0.36620  0.41447  1.0000
  Fe  Fe360     1.0  0.70452  0.34937  0.37967  1.0000
  C   C2481     1.0  0.63902  0.55387  0.29663  1.0000
  C   C2482     1.0  0.65613  0.54397  0.29101  1.0000
  C   C2483     1.0  0.67110  0.55206  0.28639  1.0000
  C   C2484     1.0  0.66886  0.57013  0.28692  1.0000
  C   C2485     1.0  0.65180  0.57973  0.29304  1.0000
  C   C2486     1.0  0.63697  0.57160  0.29797  1.0000
  H   H4242     1.0  0.65777  0.53028  0.28991  1.0000
  H   H4243     1.0  0.68430  0.54460  0.28168  1.0000
  H   H4244     1.0  0.65001  0.59354  0.29387  1.0000
  H   H4245     1.0  0.62381  0.57927  0.30247  1.0000
  H   H4246     1.0  0.61135  0.54861  0.25822  1.0000
  C   C2487     1.0  0.62904  0.46166  0.24923  1.0000
  H   H4247     1.0  0.62430  0.39079  0.44371  1.0000
  H   H4248     1.0  0.63146  0.59891  0.23198  1.0000
  H   H4249     1.0  0.88195  0.38181  0.37373  1.0000
  H   H4250     1.0  0.86460  0.36353  0.36397  1.0000
  H   H4251     1.0  0.63030  0.46223  0.26234  1.0000
  H   H4252     1.0  0.64038  0.43345  0.25218  1.0000
  C   C2488     1.0  0.77017  0.34759  0.39974  1.0000
  H   H4253     1.0  0.66090  0.44818  0.35685  1.0000
  C   C2489     1.0  0.64774  0.41159  0.36229  1.0000
  C   C2490     1.0  0.66359  0.41007  0.34935  1.0000
  C   C2491     1.0  0.66534  0.42307  0.33348  1.0000
  C   C2492     1.0  0.65122  0.43764  0.33038  1.0000
  C   C2493     1.0  0.63531  0.43921  0.34328  1.0000
  C   C2494     1.0  0.63363  0.42626  0.35927  1.0000
  H   H4254     1.0  0.67463  0.39900  0.35164  1.0000
  H   H4255     1.0  0.67772  0.42187  0.32361  1.0000
  H   H4256     1.0  0.62437  0.45046  0.34101  1.0000
  H   H4257     1.0  0.62133  0.42753  0.36923  1.0000
  H   H4258     1.0  0.64398  0.34323  0.24057  1.0000
  H   H4259     1.0  0.92671  0.32902  0.45953  1.0000
  H   H4260     1.0  0.70618  0.32677  0.44275  1.0000
  H   H4261     1.0  0.97464  0.41623  0.40677  1.0000
  N   N178      1.0  0.81012  0.39899  0.44638  1.0000
  H   H4262     1.0  0.71784  0.33480  0.32066  1.0000
  H   H4263     1.0  0.75481  0.33277  0.32918  1.0000
  H   H4264     1.0  0.86939  0.32426  0.39962  1.0000
  H   H4265     1.0  0.97159  0.40656  0.35524  1.0000
  C   C2495     1.0  0.64484  0.36710  0.44081  1.0000
  H   H4266     1.0  0.58484  0.41110  0.41698  1.0000
  H   H4267     1.0  0.66724  0.49585  0.36081  1.0000
  S   S719      1.0  0.68313  0.34093  0.27161  1.0000
  C   C2496     1.0  0.66177  0.49817  0.32341  1.0000
  C   C2497     1.0  0.79282  0.39663  0.44340  1.0000
  C   C2498     1.0  0.68931  0.40834  0.22910  1.0000
  C   C2499     1.0  0.60383  0.36694  0.47087  1.0000
  H   H4268     1.0  0.64515  0.33000  0.30100  1.0000
  C   C2500     1.0  0.67803  0.48442  0.35707  1.0000
  H   H4269     1.0  0.64648  0.47572  0.38124  1.0000
  H   H4270     1.0  0.69961  0.41412  0.23171  1.0000
  C   C2501     1.0  0.52176  0.54403  0.31842  1.0000
  C   C2502     1.0  0.52280  0.53645  0.33626  1.0000
  C   C2503     1.0  0.53613  0.52125  0.34036  1.0000
  C   C2504     1.0  0.54859  0.51380  0.32666  1.0000
  C   C2505     1.0  0.54748  0.52138  0.30887  1.0000
  C   C2506     1.0  0.53406  0.53640  0.30478  1.0000
  H   H4271     1.0  0.51347  0.54241  0.34681  1.0000
  H   H4272     1.0  0.53713  0.51547  0.35409  1.0000
  H   H4273     1.0  0.55682  0.51554  0.29825  1.0000
  H   H4274     1.0  0.53325  0.54216  0.29097  1.0000
  C   C2507     1.0  0.82499  0.38403  0.44068  1.0000
  H   H4275     1.0  0.84332  0.41176  0.42842  1.0000
  H   H4276     1.0  0.54563  0.63881  0.28780  1.0000
  H   H4277     1.0  0.97559  0.39267  0.41728  1.0000
  H   H4278     1.0  0.63275  0.38778  0.42164  1.0000
  H   H4279     1.0  0.79360  0.39748  0.42898  1.0000
  H   H4280     1.0  0.80326  0.42787  0.44073  1.0000
  Fe  Fe361     1.0  0.64273  0.63906  0.27316  1.0000
  C   C2508     1.0  0.88095  0.35574  0.39259  1.0000
  H   H4281     1.0  0.67340  0.44965  0.37157  1.0000
  C   C2509     1.0  0.74319  0.36887  0.40861  1.0000
  H   H4282     1.0  0.63932  0.54972  0.25926  1.0000
  H   H4283     1.0  0.60845  0.40831  0.41464  1.0000
  C   C2510     1.0  0.62004  0.54943  0.24465  1.0000
  C   C2511     1.0  0.94519  0.36742  0.43590  1.0000
  C   C2512     1.0  0.95907  0.35880  0.42399  1.0000
  C   C2513     1.0  0.95516  0.35077  0.41192  1.0000
  C   C2514     1.0  0.93732  0.35120  0.41193  1.0000
  C   C2515     1.0  0.92349  0.35972  0.42391  1.0000
  C   C2516     1.0  0.92739  0.36786  0.43582  1.0000
  H   H4284     1.0  0.97284  0.35820  0.42427  1.0000
  H   H4285     1.0  0.96588  0.34399  0.40288  1.0000
  H   H4286     1.0  0.90970  0.36013  0.42391  1.0000
  H   H4287     1.0  0.91663  0.37463  0.44485  1.0000
  H   H4288     1.0  0.80714  0.37001  0.47661  1.0000
  H   H4289     1.0  0.89407  0.35417  0.39623  1.0000
  H   H4290     1.0  0.72452  0.33196  0.44913  1.0000
  C   C2517     1.0  0.67526  0.55892  0.24147  1.0000
  C   C2518     1.0  0.85707  0.34320  0.45116  1.0000
  C   C2519     1.0  0.87149  0.35204  0.44518  1.0000
  C   C2520     1.0  0.87305  0.36443  0.45437  1.0000
  H   H4291     1.0  0.88126  0.34963  0.43322  1.0000
  H   H4292     1.0  0.88387  0.37165  0.44939  1.0000
  S   S720      1.0  0.90354  0.40755  0.47040  1.0000
  H   H4293     1.0  0.67247  0.36044  0.29996  1.0000
  H   H4294     1.0  0.88954  0.36886  0.34785  1.0000
  H   H4295     1.0  0.90646  0.32067  0.30408  1.0000
  H   H4296     1.0  0.65955  0.39684  0.24291  1.0000
  H   H4297     1.0  0.73586  0.37861  0.41667  1.0000
  H   H4298     1.0  0.69139  0.47466  0.32474  1.0000
  H   H4299     1.0  0.72136  0.37141  0.39577  1.0000
  C   C2521     1.0  0.86642  0.34944  0.37124  1.0000
  H   H4300     1.0  0.67546  0.47230  0.38582  1.0000
  C   C2522     1.0  0.68193  0.33379  0.29478  1.0000
  H   H4301     1.0  0.64372  0.45288  0.38787  1.0000
  C   C2523     1.0  0.68566  0.46426  0.33550  1.0000
  H   H4302     1.0  0.64557  0.49133  0.34932  1.0000
  C   C2524     1.0  0.82892  0.38285  0.42086  1.0000
  H   H4303     1.0  0.87159  0.35163  0.40537  1.0000
  H   H4304     1.0  0.56194  0.64500  0.31159  1.0000
  H   H4305     1.0  0.68843  0.49078  0.34683  1.0000
  H   H4306     1.0  0.57325  0.61014  0.31009  1.0000
  S   S721      1.0  0.50593  0.56349  0.31246  1.0000
  H   H4307     1.0  0.82201  0.37098  0.44842  1.0000
  C   C2525     1.0  0.74448  0.35237  0.38619  1.0000
  C   C2526     1.0  0.71936  0.33129  0.33474  1.0000
  H   H4308     1.0  0.62439  0.32870  0.26335  1.0000
  S   S722      1.0  0.68623  0.36013  0.36007  1.0000
  S   S723      1.0  0.73446  0.34689  0.37145  1.0000
  H   H4309     1.0  0.85965  0.37900  0.38588  1.0000
  C   C2527     1.0  0.76217  0.34395  0.38752  1.0000
  H   H4310     1.0  0.79026  0.38297  0.44969  1.0000
  C   C2528     1.0  0.96820  0.37933  0.36473  1.0000
  H   H4311     1.0  0.63984  0.33955  0.27955  1.0000
  H   H4312     1.0  0.66847  0.49198  0.31164  1.0000
  C   C2529     1.0  0.83198  0.42068  0.43545  1.0000
  H   H4313     1.0  0.83263  0.43458  0.42811  1.0000
  C   C2530     1.0  0.62179  0.47715  0.23802  1.0000
  C   C2531     1.0  0.73271  0.32058  0.42488  1.0000
  H   H4314     1.0  0.69651  0.46357  0.37238  1.0000
  H   H4315     1.0  0.83391  0.41959  0.44911  1.0000
  N   N179      1.0  0.68838  0.39009  0.24082  1.0000
  H   H4316     1.0  0.84061  0.37175  0.41854  1.0000
  H   H4317     1.0  0.62175  0.53620  0.24130  1.0000
  Fe  Fe362     1.0  0.70112  0.32153  0.25494  1.0000
  S   S724      1.0  0.65499  0.34422  0.39258  1.0000
  H   H4318     1.0  0.82287  0.39644  0.46844  1.0000
  H   H4319     1.0  0.69803  0.44010  0.35319  1.0000
  H   H4320     1.0  0.90298  0.33268  0.35906  1.0000
  H   H4321     1.0  0.81764  0.37944  0.41736  1.0000
  C   C2532     1.0  0.63924  0.32770  0.29067  1.0000
  C   C2533     1.0  0.67410  0.34077  0.32440  1.0000
  H   H4322     1.0  0.71038  0.44480  0.33096  1.0000
  H   H4323     1.0  0.64945  0.47540  0.33595  1.0000
  C   C2534     1.0  0.87402  0.37596  0.38658  1.0000
  N   N180      1.0  0.61244  0.37243  0.43630  1.0000
  C   C2535     1.0  0.61722  0.36251  0.42128  1.0000
  C   C2536     1.0  0.62813  0.38045  0.43545  1.0000
  C   C2537     1.0  0.59620  0.38722  0.43462  1.0000
  C   C2538     1.0  0.60833  0.35942  0.45371  1.0000
  C   C2539     1.0  0.60206  0.35536  0.41820  1.0000
  C   C2540     1.0  0.63484  0.44538  0.24342  1.0000
  C   C2541     1.0  0.59757  0.40100  0.41676  1.0000
  S   S725      1.0  0.81199  0.32333  0.42382  1.0000
  H   H4324     1.0  0.62270  0.37089  0.40836  1.0000
  H   H4325     1.0  0.62817  0.35073  0.42363  1.0000
  H   H4326     1.0  0.66745  0.37510  0.25435  1.0000
  H   H4327     1.0  0.58921  0.37231  0.47457  1.0000
  H   H4328     1.0  0.58399  0.38172  0.43675  1.0000
  H   H4329     1.0  0.59331  0.39489  0.44537  1.0000
  H   H4330     1.0  0.59658  0.35384  0.45426  1.0000
  H   H4331     1.0  0.61926  0.34737  0.45491  1.0000
  Fe  Fe363     1.0  0.98123  0.34077  0.34183  1.0000
  H   H4332     1.0  0.64229  0.36026  0.45506  1.0000
  C   C2542     1.0  0.88266  0.32512  0.39047  1.0000
  Fe  Fe364     1.0  0.67706  0.33410  0.37108  1.0000
  H   H4333     1.0  0.66039  0.39886  0.27148  1.0000
  C   C2543     1.0  0.67081  0.38510  0.24190  1.0000
  S   S726      1.0  0.61489  0.64214  0.29026  1.0000
  S   S727      1.0  0.67141  0.32130  0.43890  1.0000
  H   H4334     1.0  0.98750  0.36850  0.39280  1.0000
  H   H4335     1.0  0.77651  0.41588  0.46055  1.0000
  H   H4336     1.0  0.60751  0.34836  0.40684  1.0000
  H   H4337     1.0  0.51623  0.64249  0.30252  1.0000
  C   C2544     1.0  0.70185  0.45116  0.34213  1.0000
  H   H4338     1.0  0.76962  0.33441  0.37926  1.0000
  H   H4339     1.0  0.67554  0.40284  0.28252  1.0000
  C   C2545     1.0  0.67322  0.40326  0.26914  1.0000
  C   C2546     1.0  0.64607  0.46401  0.37623  1.0000
  H   H4340     1.0  0.59957  0.39485  0.40511  1.0000
  H   H4341     1.0  0.69225  0.48539  0.37686  1.0000
  C   C2547     1.0  0.49337  0.64145  0.34926  1.0000
  H   H4342     1.0  0.63443  0.46729  0.36966  1.0000
  C   C2548     1.0  0.66362  0.45786  0.36330  1.0000
  H   H4343     1.0  0.91145  0.34071  0.37287  1.0000
  H   H4344     1.0  0.59704  0.34538  0.42987  1.0000
  H   H4345     1.0  0.96679  0.37825  0.35147  1.0000
  Fe  Fe365     1.0  0.66536  0.63605  0.23610  1.0000
  H   H4346     1.0  0.91096  0.35728  0.33946  1.0000
  H   H4347     1.0  0.67999  0.45694  0.32874  1.0000
  H   H4348     1.0  0.95776  0.41206  0.38512  1.0000
  H   H4349     1.0  0.74606  0.32697  0.30493  1.0000
  H   H4350     1.0  0.59119  0.60534  0.29156  1.0000
  H   H4351     1.0  0.78376  0.34092  0.40080  1.0000
  S   S728      1.0  0.73050  0.32146  0.24708  1.0000
  C   C2549     1.0  0.67587  0.34636  0.30578  1.0000
  C   C2550     1.0  0.75972  0.31820  0.33371  1.0000
  H   H4352     1.0  0.65006  0.35708  0.43225  1.0000
  H   H4353     1.0  0.49864  0.51498  0.36457  1.0000
  C   C2551     1.0  0.96701  0.40038  0.39148  1.0000
  H   H4354     1.0  0.74544  0.32543  0.42201  1.0000
  H   H4355     1.0  0.83249  0.39517  0.41171  1.0000
  H   H4356     1.0  0.56909  0.60743  0.28951  1.0000
  C   C2552     1.0  0.68917  0.39084  0.25948  1.0000
  C   C2553     1.0  0.67789  0.32254  0.33206  1.0000
  N   N181      1.0  0.64292  0.57057  0.23564  1.0000
  H   H4357     1.0  0.67047  0.50600  0.32568  1.0000
  H   H4358     1.0  0.67183  0.41739  0.26190  1.0000
  C   C2554     1.0  0.80920  0.39832  0.46585  1.0000
  S   S729      1.0  0.77079  0.36518  0.42523  1.0000
  H   H4359     1.0  0.68484  0.56259  0.24734  1.0000
  H   H4360     1.0  0.69015  0.37725  0.26827  1.0000
  H   H4361     1.0  0.70139  0.39540  0.25945  1.0000
  C   C2555     1.0  0.73496  0.36477  0.39683  1.0000
  H   H4362     1.0  0.70306  0.36269  0.24420  1.0000
  S   S730      1.0  0.69667  0.32277  0.38915  1.0000
  H   H4363     1.0  0.66128  0.58648  0.23651  1.0000
  H   H4364     1.0  0.83776  0.38456  0.44383  1.0000
  H   H4365     1.0  0.72537  0.34127  0.33747  1.0000
  C   C2556     1.0  0.77591  0.41053  0.44917  1.0000
  C   C2557     1.0  0.63860  0.55249  0.24489  1.0000
  H   H4366     1.0  0.65568  0.37444  0.43887  1.0000
  C   C2558     1.0  0.81369  0.41687  0.43561  1.0000
  H   H4367     1.0  0.77355  0.42191  0.43783  1.0000
  H   H4368     1.0  0.71038  0.45825  0.34576  1.0000
  H   H4369     1.0  0.67307  0.54553  0.24913  1.0000
  C   C2559     1.0  0.84487  0.34598  0.46698  1.0000
  H   H4370     1.0  0.60593  0.59664  0.25912  1.0000
  H   H4371     1.0  0.71559  0.34566  0.43051  1.0000
  H   H4372     1.0  0.66936  0.35051  0.33285  1.0000
  H   H4373     1.0  0.81256  0.41864  0.42150  1.0000
  N   N182      1.0  0.56370  0.57422  0.31138  1.0000
  C   C2560     1.0  0.56942  0.55424  0.31732  1.0000
  C   C2561     1.0  0.55535  0.57739  0.29540  1.0000
  C   C2562     1.0  0.54992  0.58114  0.32658  1.0000
  C   C2563     1.0  0.58011  0.58222  0.30700  1.0000
  C   C2564     1.0  0.57612  0.54761  0.33505  1.0000
  C   C2565     1.0  0.56753  0.56999  0.27915  1.0000
  C   C2566     1.0  0.53676  0.59895  0.32176  1.0000
  C   C2567     1.0  0.57794  0.60245  0.29925  1.0000
  H   H4374     1.0  0.55817  0.54761  0.31885  1.0000
  H   H4375     1.0  0.58044  0.54853  0.30713  1.0000
  H   H4376     1.0  0.55027  0.59176  0.29041  1.0000
  H   H4377     1.0  0.54323  0.57137  0.29931  1.0000
  H   H4378     1.0  0.54117  0.57131  0.33372  1.0000
  H   H4379     1.0  0.55658  0.58268  0.33675  1.0000
  H   H4380     1.0  0.58561  0.57998  0.31918  1.0000
  H   H4381     1.0  0.59136  0.57521  0.29793  1.0000
  H   H4382     1.0  0.56574  0.55151  0.34658  1.0000
  H   H4383     1.0  0.57946  0.53275  0.33782  1.0000
  H   H4384     1.0  0.58858  0.55204  0.33424  1.0000
  H   H4385     1.0  0.56040  0.57451  0.26787  1.0000
  H   H4386     1.0  0.58024  0.57489  0.27457  1.0000
  H   H4387     1.0  0.57035  0.55517  0.28193  1.0000
  H   H4388     1.0  0.54344  0.60980  0.31333  1.0000
  H   H4389     1.0  0.52912  0.60350  0.33425  1.0000
  H   H4390     1.0  0.52675  0.59713  0.31509  1.0000
  C   C2568     1.0  0.84628  0.35852  0.47600  1.0000
  C   C2569     1.0  0.71891  0.33160  0.43776  1.0000
  H   H4391     1.0  0.51700  0.51110  0.38267  1.0000
  H   H4392     1.0  0.83413  0.33870  0.47215  1.0000
  Fe  Fe366     1.0  0.82578  0.32439  0.44507  1.0000
  S   S731      1.0  0.98091  0.31746  0.33085  1.0000
  H   H4393     1.0  0.72786  0.32468  0.41211  1.0000
  C   C2570     1.0  0.62732  0.58591  0.23871  1.0000
  S   S732      1.0  0.93382  0.32395  0.32025  1.0000
  S   S733      1.0  0.85405  0.32929  0.43844  1.0000
  Fe  Fe367     1.0  0.92665  0.38402  0.47285  1.0000
  C   C2571     1.0  0.65041  0.32914  0.24533  1.0000
  Fe  Fe368     1.0  0.78844  0.34081  0.43813  1.0000
  H   H4394     1.0  0.76410  0.40407  0.45370  1.0000
  H   H4395     1.0  0.65326  0.57339  0.25742  1.0000
  C   C2572     1.0  0.86019  0.36798  0.46959  1.0000
  C   C2573     1.0  0.96854  0.40452  0.40893  1.0000
  H   H4396     1.0  0.51137  0.64122  0.36574  1.0000
  H   H4397     1.0  0.53849  0.64345  0.31783  1.0000
  C   C2574     1.0  0.72274  0.37916  0.23291  1.0000
  S   S734      1.0  0.80295  0.34359  0.45773  1.0000
  H   H4398     1.0  0.80194  0.41123  0.46975  1.0000
  H   H4399     1.0  0.72572  0.37840  0.24606  1.0000
  H   H4400     1.0  0.62743  0.59188  0.26439  1.0000
  C   C2575     1.0  0.65773  0.57322  0.24298  1.0000
  H   H4401     1.0  0.85458  0.34453  0.35143  1.0000
  H   H4402     1.0  0.86469  0.32452  0.36454  1.0000
  H   H4403     1.0  0.64898  0.54175  0.23926  1.0000
  H   H4404     1.0  0.61112  0.37748  0.46984  1.0000
  S   S735      1.0  0.98252  0.32504  0.36964  1.0000
  C   C2576     1.0  0.89696  0.31728  0.40209  1.0000
  S   S736      1.0  0.49259  0.59229  0.34883  1.0000
  C   C2577     1.0  0.50996  0.51855  0.39341  1.0000
  H   H4405     1.0  0.51145  0.50962  0.40651  1.0000
  H   H4406     1.0  0.87841  0.33803  0.34697  1.0000
  S   S737      1.0  0.77655  0.31837  0.45676  1.0000
  H   H4407     1.0  0.64283  0.31667  0.42460  1.0000
  H   H4408     1.0  0.61271  0.55937  0.23505  1.0000
  H   H4409     1.0  0.51682  0.52968  0.39178  1.0000
  Fe  Fe369     1.0  0.79343  0.31929  0.47514  1.0000
  H   H4410     1.0  0.65710  0.32285  0.23362  1.0000
  H   H4411     1.0  0.66083  0.32986  0.25200  1.0000
  C   C2578     1.0  0.91273  0.32710  0.46522  1.0000
  H   H4412     1.0  0.62511  0.32687  0.29682  1.0000
  H   H4413     1.0  0.90916  0.32090  0.45591  1.0000
  H   H4414     1.0  0.90418  0.34056  0.46515  1.0000
  H   H4415     1.0  0.98461  0.42382  0.36663  1.0000
  H   H4416     1.0  0.49513  0.48426  0.37044  1.0000
  H   H4417     1.0  0.56853  0.64799  0.25368  1.0000
  H   H4418     1.0  0.49117  0.62816  0.35574  1.0000
  C   C2579     1.0  0.63610  0.31891  0.25785  1.0000
  H   H4419     1.0  0.64318  0.64555  0.32374  1.0000
  H   H4420     1.0  0.65530  0.37650  0.22787  1.0000
  H   H4421     1.0  0.61626  0.58593  0.23252  1.0000
  H   H4422     1.0  0.75854  0.31632  0.34838  1.0000
  Fe  Fe370     1.0  0.82651  0.33429  0.64492  1.0000
  C   C2580     1.0  0.97596  0.45131  0.66030  1.0000
  S   S738      1.0  0.81883  0.35923  0.65644  1.0000
  H   H4423     1.0  0.92006  0.48585  0.58439  1.0000
  H   H4424     1.0  0.50930  0.64435  0.66293  1.0000
  C   C2581     1.0  0.58250  0.34808  0.55676  1.0000
  H   H4425     1.0  0.98050  0.46064  0.66576  1.0000
  S   S739      1.0  0.98138  0.47068  0.57860  1.0000
  H   H4426     1.0  0.96609  0.56037  0.55879  1.0000
  Fe  Fe371     1.0  0.91101  0.36905  0.51143  1.0000
  S   S740      1.0  0.88677  0.39108  0.51199  1.0000
  S   S741      1.0  0.91521  0.34730  0.53558  1.0000
  Fe  Fe372     1.0  0.90599  0.40930  0.49770  1.0000
  S   S742      1.0  0.90151  0.43378  0.50957  1.0000
  H   H4427     1.0  0.85500  0.32770  0.50484  1.0000
  S   S743      1.0  0.93039  0.38731  0.49897  1.0000
  H   H4428     1.0  0.95913  0.46686  0.64005  1.0000
  H   H4429     1.0  0.83453  0.54346  0.68970  1.0000
  H   H4430     1.0  0.90683  0.54321  0.67240  1.0000
  H   H4431     1.0  0.86456  0.54904  0.67840  1.0000
  H   H4432     1.0  0.83743  0.33694  0.68573  1.0000
  C   C2582     1.0  0.88323  0.33028  0.50003  1.0000
  C   C2583     1.0  0.94996  0.43644  0.66496  1.0000
  C   C2584     1.0  0.89488  0.62650  0.52574  1.0000
  H   H4433     1.0  0.90937  0.62262  0.52624  1.0000
  H   H4434     1.0  0.90966  0.33942  0.66021  1.0000
  S   S744      1.0  0.91921  0.59767  0.64330  1.0000
  S   S745      1.0  0.93933  0.60941  0.55407  1.0000
  S   S746      1.0  0.94256  0.62027  0.59859  1.0000
  Fe  Fe373     1.0  0.94523  0.51980  0.54143  1.0000
  S   S747      1.0  0.96967  0.51961  0.55083  1.0000
  S   S748      1.0  0.91977  0.53695  0.55347  1.0000
  Fe  Fe374     1.0  0.96490  0.49210  0.51865  1.0000
  H   H4435     1.0  0.91084  0.54539  0.64883  1.0000
  S   S749      1.0  0.96456  0.47404  0.50069  1.0000
  Fe  Fe375     1.0  0.97487  0.48997  0.55374  1.0000
  H   H4436     1.0  0.94677  0.48314  0.66086  1.0000
  H   H4437     1.0  0.97829  0.58601  0.53712  1.0000
  H   H4438     1.0  0.89180  0.49903  0.60364  1.0000
  S   S750      1.0  0.94918  0.48997  0.54674  1.0000
  S   S751      1.0  0.95871  0.52226  0.51249  1.0000
  S   S752      1.0  0.92302  0.40079  0.69627  1.0000
  H   H4439     1.0  0.87780  0.44653  0.71354  1.0000
  C   C2585     1.0  0.95314  0.55358  0.59739  1.0000
  C   C2586     1.0  0.95003  0.44831  0.49534  1.0000
  S   S753      1.0  0.85467  0.57369  0.70440  1.0000
  C   C2587     1.0  0.53669  0.33793  0.60160  1.0000
  Fe  Fe376     1.0  0.88173  0.42195  0.65339  1.0000
  S   S754      1.0  0.91030  0.42440  0.64986  1.0000
  S   S755      1.0  0.87841  0.40600  0.63491  1.0000
  Fe  Fe377     1.0  0.86837  0.44531  0.68117  1.0000
  S   S756      1.0  0.89582  0.44947  0.67944  1.0000
  C   C2588     1.0  0.92817  0.40765  0.71348  1.0000
  Fe  Fe378     1.0  0.89878  0.45335  0.65010  1.0000
  S   S757      1.0  0.90837  0.47834  0.63458  1.0000
  Fe  Fe379     1.0  0.90428  0.42024  0.67975  1.0000
  S   S758      1.0  0.87063  0.45143  0.65145  1.0000
  S   S759      1.0  0.87659  0.41555  0.68341  1.0000
  H   H4440     1.0  0.83650  0.36097  0.48797  1.0000
  H   H4441     1.0  0.86747  0.61307  0.56114  1.0000
  C   C2589     1.0  0.53004  0.33659  0.55540  1.0000
  C   C2590     1.0  0.88040  0.32385  0.57648  1.0000
  H   H4442     1.0  0.84196  0.51980  0.69228  1.0000
  C   C2591     1.0  0.88329  0.59720  0.65767  1.0000
  C   C2592     1.0  0.86432  0.33016  0.51184  1.0000
  H   H4443     1.0  0.90849  0.32474  0.57037  1.0000
  H   H4444     1.0  0.94417  0.44621  0.65414  1.0000
  C   C2593     1.0  0.97952  0.64616  0.59707  1.0000
  C   C2594     1.0  0.96183  0.47256  0.59514  1.0000
  C   C2595     1.0  0.95603  0.45722  0.60596  1.0000
  C   C2596     1.0  0.93958  0.45882  0.61821  1.0000
  C   C2597     1.0  0.92926  0.47576  0.62000  1.0000
  C   C2598     1.0  0.93535  0.49105  0.60957  1.0000
  C   C2599     1.0  0.95145  0.48945  0.59694  1.0000
  H   H4445     1.0  0.98766  0.44005  0.65846  1.0000
  H   H4446     1.0  0.93484  0.44697  0.62606  1.0000
  H   H4447     1.0  0.92731  0.50417  0.61080  1.0000
  H   H4448     1.0  0.95582  0.50131  0.58852  1.0000
  C   C2600     1.0  0.90092  0.59180  0.66026  1.0000
  C   C2601     1.0  0.87261  0.58082  0.68772  1.0000
  C   C2602     1.0  0.89023  0.57552  0.69031  1.0000
  C   C2603     1.0  0.90432  0.58090  0.67660  1.0000
  H   H4449     1.0  0.89303  0.56734  0.70288  1.0000
  H   H4450     1.0  0.91792  0.57672  0.67871  1.0000
  C   C2604     1.0  0.93246  0.59013  0.55352  1.0000
  C   C2605     1.0  0.91965  0.58285  0.56738  1.0000
  C   C2606     1.0  0.91525  0.56683  0.56704  1.0000
  C   C2607     1.0  0.92405  0.55779  0.55311  1.0000
  C   C2608     1.0  0.93671  0.56518  0.53919  1.0000
  C   C2609     1.0  0.94060  0.58150  0.53920  1.0000
  H   H4451     1.0  0.91347  0.58927  0.57858  1.0000
  H   H4452     1.0  0.90552  0.56108  0.57789  1.0000
  H   H4453     1.0  0.94351  0.55832  0.52836  1.0000
  H   H4454     1.0  0.95038  0.58712  0.52833  1.0000
  C   C2610     1.0  0.89943  0.32094  0.65214  1.0000
  H   H4455     1.0  0.97737  0.53449  0.60050  1.0000
  H   H4456     1.0  0.89096  0.33515  0.50707  1.0000
  H   H4457     1.0  0.77240  0.31926  0.56257  1.0000
  H   H4458     1.0  0.90766  0.45284  0.56472  1.0000
  H   H4459     1.0  0.91989  0.64859  0.51610  1.0000
  C   C2611     1.0  0.88301  0.48028  0.57254  1.0000
  C   C2612     1.0  0.57588  0.32395  0.60639  1.0000
  H   H4460     1.0  0.90491  0.32275  0.68874  1.0000
  H   H4461     1.0  0.78412  0.34070  0.57324  1.0000
  S   S760      1.0  0.84567  0.45963  0.69951  1.0000
  H   H4462     1.0  0.89313  0.33213  0.71500  1.0000
  S   S761      1.0  0.49388  0.37513  0.57831  1.0000
  C   C2613     1.0  0.91939  0.44432  0.50764  1.0000
  H   H4463     1.0  0.96597  0.57876  0.56785  1.0000
  C   C2614     1.0  0.94712  0.46241  0.50417  1.0000
  C   C2615     1.0  0.93032  0.46730  0.51495  1.0000
  C   C2616     1.0  0.91649  0.45834  0.51661  1.0000
  H   H4464     1.0  0.92787  0.47840  0.52146  1.0000
  H   H4465     1.0  0.90339  0.46253  0.52452  1.0000
  C   C2617     1.0  0.97496  0.56710  0.56256  1.0000
  Fe  Fe380     1.0  0.92693  0.62204  0.57808  1.0000
  C   C2618     1.0  0.52112  0.35302  0.56022  1.0000
  H   H4466     1.0  0.92954  0.47065  0.66307  1.0000
  C   C2619     1.0  0.86920  0.59163  0.67134  1.0000
  S   S762      1.0  0.85450  0.32617  0.62980  1.0000
  H   H4467     1.0  0.85559  0.59579  0.66925  1.0000
  H   H4468     1.0  0.92793  0.48355  0.67884  1.0000
  C   C2620     1.0  0.89557  0.34057  0.54886  1.0000
  C   C2621     1.0  0.87945  0.34643  0.54286  1.0000
  C   C2622     1.0  0.86395  0.34067  0.55346  1.0000
  H   H4469     1.0  0.87471  0.61013  0.52918  1.0000
  C   C2623     1.0  0.55363  0.34404  0.58951  1.0000
  H   H4470     1.0  0.87896  0.35520  0.52996  1.0000
  H   H4471     1.0  0.85152  0.34509  0.54872  1.0000
  C   C2624     1.0  0.83472  0.37304  0.65009  1.0000
  C   C2625     1.0  0.83463  0.38451  0.66104  1.0000
  C   C2626     1.0  0.84783  0.39491  0.65655  1.0000
  C   C2627     1.0  0.86112  0.39389  0.64102  1.0000
  C   C2628     1.0  0.86101  0.38263  0.63003  1.0000
  C   C2629     1.0  0.84787  0.37231  0.63447  1.0000
  H   H4472     1.0  0.82442  0.38521  0.67311  1.0000
  H   H4473     1.0  0.84774  0.40364  0.66509  1.0000
  H   H4474     1.0  0.87115  0.38188  0.61805  1.0000
  H   H4475     1.0  0.84778  0.36395  0.62568  1.0000
  H   H4476     1.0  0.89421  0.48699  0.54348  1.0000
  S   S763      1.0  0.84488  0.32199  0.58290  1.0000
  H   H4477     1.0  0.55013  0.34949  0.57617  1.0000
  Fe  Fe381     1.0  0.88665  0.38710  0.48497  1.0000
  H   H4478     1.0  0.86448  0.32047  0.52474  1.0000
  C   C2630     1.0  0.93953  0.39549  0.72405  1.0000
  C   C2631     1.0  0.89763  0.36314  0.68077  1.0000
  H   H4479     1.0  0.53256  0.32838  0.59616  1.0000
  H   H4480     1.0  0.97363  0.42207  0.64844  1.0000
  H   H4481     1.0  0.85940  0.53746  0.66463  1.0000
  H   H4482     1.0  0.90589  0.36667  0.66721  1.0000
  H   H4483     1.0  0.59846  0.32962  0.57421  1.0000
  H   H4484     1.0  0.90584  0.35258  0.68926  1.0000
  H   H4485     1.0  0.77898  0.32824  0.59595  1.0000
  H   H4486     1.0  0.86766  0.48702  0.66830  1.0000
  C   C2632     1.0  0.85417  0.46737  0.71385  1.0000
  C   C2633     1.0  0.86437  0.32943  0.57029  1.0000
  C   C2634     1.0  0.50431  0.35457  0.57190  1.0000
  N   N183      1.0  0.98447  0.55445  0.57666  1.0000
  H   H4487     1.0  0.92832  0.44217  0.58655  1.0000
  H   H4488     1.0  0.87779  0.50400  0.65251  1.0000
  H   H4489     1.0  0.96883  0.53403  0.58198  1.0000
  C   C2635     1.0  0.92221  0.42526  0.71601  1.0000
  H   H4490     1.0  0.89206  0.34964  0.64836  1.0000
  H   H4491     1.0  0.87466  0.36790  0.66905  1.0000
  H   H4492     1.0  0.53800  0.33243  0.61566  1.0000
  S   S764      1.0  0.81313  0.32699  0.62662  1.0000
  C   C2636     1.0  0.89644  0.46423  0.59837  1.0000
  C   C2637     1.0  0.88899  0.60855  0.52949  1.0000
  Fe  Fe382     1.0  0.89547  0.64881  0.59375  1.0000
  C   C2638     1.0  0.88390  0.49291  0.55399  1.0000
  H   H4493     1.0  0.59518  0.35180  0.54839  1.0000
  H   H4494     1.0  0.95686  0.42276  0.69644  1.0000
  H   H4495     1.0  0.91321  0.43467  0.70820  1.0000
  C   C2639     1.0  0.97156  0.54322  0.58906  1.0000
  H   H4496     1.0  0.87496  0.51777  0.70849  1.0000
  H   H4497     1.0  0.85107  0.32867  0.70185  1.0000
  H   H4498     1.0  0.88247  0.60611  0.57589  1.0000
  H   H4499     1.0  0.88054  0.60555  0.64512  1.0000
  H   H4500     1.0  0.94411  0.38182  0.72227  1.0000
  C   C2640     1.0  0.93760  0.47478  0.67025  1.0000
  H   H4501     1.0  0.52540  0.34973  0.60174  1.0000
  H   H4502     1.0  0.91827  0.47101  0.55413  1.0000
  Fe  Fe383     1.0  0.91628  0.61897  0.61826  1.0000
  H   H4503     1.0  0.93868  0.42848  0.49015  1.0000
  H   H4504     1.0  0.95264  0.41704  0.64885  1.0000
  C   C2641     1.0  0.90774  0.49023  0.57883  1.0000
  H   H4505     1.0  0.86460  0.62460  0.57891  1.0000
  H   H4506     1.0  0.88282  0.51059  0.58384  1.0000
  H   H4507     1.0  0.76161  0.33905  0.58397  1.0000
  C   C2642     1.0  0.88508  0.52208  0.69650  1.0000
  N   N184      1.0  0.87968  0.52183  0.67964  1.0000
  H   H4508     1.0  0.94491  0.54382  0.60588  1.0000
  H   H4509     1.0  0.88783  0.32044  0.64693  1.0000
  H   H4510     1.0  0.97899  0.45148  0.63183  1.0000
  H   H4511     1.0  0.94553  0.56192  0.58715  1.0000
  C   C2643     1.0  0.87692  0.50338  0.68081  1.0000
  H   H4512     1.0  0.58768  0.34980  0.58163  1.0000
  H   H4513     1.0  0.97798  0.41920  0.68196  1.0000
  H   H4514     1.0  0.89316  0.43525  0.54729  1.0000
  H   H4515     1.0  0.88593  0.47254  0.60690  1.0000
  H   H4516     1.0  0.57216  0.36061  0.55647  1.0000
  H   H4517     1.0  0.88541  0.53592  0.69704  1.0000
  C   C2644     1.0  0.90050  0.54357  0.66131  1.0000
  H   H4518     1.0  0.78601  0.38571  0.47987  1.0000
  H   H4519     1.0  0.91453  0.51311  0.68885  1.0000
  H   H4520     1.0  0.93740  0.45324  0.69318  1.0000
  H   H4521     1.0  0.97827  0.63084  0.56116  1.0000
  H   H4522     1.0  0.89390  0.37529  0.68656  1.0000
  H   H4523     1.0  0.87079  0.49550  0.55003  1.0000
  H   H4524     1.0  0.88633  0.50608  0.55407  1.0000
  H   H4525     1.0  0.85533  0.50943  0.66560  1.0000
  H   H4526     1.0  0.83160  0.48909  0.71789  1.0000
  H   H4527     1.0  0.94026  0.44565  0.56391  1.0000
  C   C2645     1.0  0.97311  0.46076  0.64122  1.0000
  C   C2646     1.0  0.93628  0.43920  0.49716  1.0000
  C   C2647     1.0  0.86274  0.53571  0.67788  1.0000
  C   C2648     1.0  0.58543  0.33928  0.57589  1.0000
  C   C2649     1.0  0.86550  0.33661  0.67420  1.0000
  H   H4528     1.0  0.87626  0.44937  0.59840  1.0000
  H   H4529     1.0  0.88918  0.52760  0.65094  1.0000
  C   C2650     1.0  0.93096  0.45257  0.57435  1.0000
  H   H4530     1.0  0.88981  0.49346  0.68060  1.0000
  H   H4531     1.0  0.85860  0.34363  0.51502  1.0000
  C   C2651     1.0  0.91374  0.46281  0.56748  1.0000
  H   H4532     1.0  0.90595  0.51505  0.66285  1.0000
  H   H4533     1.0  0.91855  0.64324  0.53995  1.0000
  S   S765      1.0  0.86027  0.38503  0.48010  1.0000
  H   H4534     1.0  0.84552  0.35260  0.69242  1.0000
  H   H4535     1.0  0.86165  0.34590  0.66200  1.0000
  C   C2652     1.0  0.84594  0.53223  0.69235  1.0000
  C   C2653     1.0  0.90311  0.50982  0.69972  1.0000
  H   H4536     1.0  0.89414  0.63320  0.51163  1.0000
  C   C2654     1.0  0.89400  0.52620  0.66336  1.0000
  C   C2655     1.0  0.96056  0.41995  0.65711  1.0000
  N   N185      1.0  0.96034  0.44441  0.67338  1.0000
  H   H4537     1.0  0.54291  0.33554  0.54628  1.0000
  C   C2656     1.0  0.98668  0.57460  0.54470  1.0000
  H   H4538     1.0  0.97774  0.57453  0.59270  1.0000
  H   H4539     1.0  0.60797  0.35604  0.48198  1.0000
  H   H4540     1.0  0.86822  0.49872  0.69375  1.0000
  C   C2657     1.0  0.86895  0.50116  0.66583  1.0000
  N   N186      1.0  0.89591  0.39671  0.56288  1.0000
  C   C2658     1.0  0.88039  0.41167  0.55840  1.0000
  C   C2659     1.0  0.89101  0.37944  0.56306  1.0000
  C   C2660     1.0  0.91190  0.39960  0.54794  1.0000
  C   C2661     1.0  0.89933  0.39732  0.58060  1.0000
  C   C2662     1.0  0.88221  0.43074  0.55808  1.0000
  C   C2663     1.0  0.87356  0.37548  0.57616  1.0000
  C   C2664     1.0  0.92952  0.38587  0.54927  1.0000
  C   C2665     1.0  0.90906  0.37973  0.59108  1.0000
  H   H4541     1.0  0.87778  0.41172  0.54517  1.0000
  H   H4542     1.0  0.86780  0.40979  0.56829  1.0000
  H   H4543     1.0  0.90176  0.36770  0.56609  1.0000
  H   H4544     1.0  0.88954  0.37921  0.54952  1.0000
  H   H4545     1.0  0.90875  0.39999  0.53490  1.0000
  H   H4546     1.0  0.91532  0.41270  0.54665  1.0000
  H   H4547     1.0  0.90710  0.40780  0.57881  1.0000
  H   H4548     1.0  0.88633  0.40128  0.58978  1.0000
  C   C2666     1.0  0.52213  0.32165  0.56224  1.0000
  H   H4549     1.0  0.81844  0.33041  0.53777  1.0000
  H   H4550     1.0  0.86968  0.44022  0.55528  1.0000
  H   H4551     1.0  0.87354  0.36104  0.57863  1.0000
  H   H4552     1.0  0.87202  0.37885  0.58924  1.0000
  H   H4553     1.0  0.86165  0.38271  0.57034  1.0000
  H   H4554     1.0  0.93526  0.38687  0.56028  1.0000
  H   H4555     1.0  0.93951  0.38901  0.53675  1.0000
  H   H4556     1.0  0.92816  0.37202  0.55042  1.0000
  H   H4557     1.0  0.91696  0.38309  0.59907  1.0000
  H   H4558     1.0  0.91847  0.37057  0.58285  1.0000
  H   H4559     1.0  0.89929  0.37242  0.60102  1.0000
  N   N187      1.0  0.57084  0.33018  0.58832  1.0000
  C   C2667     1.0  0.89005  0.32470  0.69118  1.0000
  H   H4560     1.0  0.93811  0.43240  0.67493  1.0000
  C   C2668     1.0  0.88046  0.35779  0.67983  1.0000
  C   C2669     1.0  0.94771  0.45896  0.68225  1.0000
  N   N188      1.0  0.90022  0.47437  0.57933  1.0000
  H   H4561     1.0  0.96396  0.44415  0.60439  1.0000
  H   H4562     1.0  0.98278  0.42335  0.70877  1.0000
  H   H4563     1.0  0.90846  0.46102  0.60437  1.0000
  N   N189      1.0  0.88294  0.33924  0.67661  1.0000
  H   H4564     1.0  0.88147  0.34092  0.48803  1.0000
  H   H4565     1.0  0.86993  0.33656  0.71325  1.0000
  H   H4566     1.0  0.90262  0.49552  0.70195  1.0000
  H   H4567     1.0  0.96262  0.40790  0.66788  1.0000
  H   H4568     1.0  0.55525  0.35565  0.59405  1.0000
  C   C2670     1.0  0.89624  0.33823  0.65914  1.0000
  C   C2671     1.0  0.89520  0.50440  0.58909  1.0000
  H   H4569     1.0  0.89920  0.43718  0.59335  1.0000
  C   C2672     1.0  0.88987  0.44676  0.60121  1.0000
  C   C2673     1.0  0.80735  0.32307  0.54386  1.0000
  S   S766      1.0  0.90127  0.61874  0.59778  1.0000
  H   H4570     1.0  0.88887  0.44002  0.61548  1.0000
  H   H4571     1.0  0.96296  0.44450  0.48692  1.0000
  H   H4572     1.0  0.87834  0.46853  0.57150  1.0000
  H   H4573     1.0  0.91209  0.49727  0.56485  1.0000
  H   H4574     1.0  0.97163  0.63607  0.59996  1.0000
  H   H4575     1.0  0.98625  0.44357  0.69300  1.0000
  H   H4576     1.0  0.87203  0.48695  0.58215  1.0000
  C   C2674     1.0  0.84469  0.48255  0.72074  1.0000
  C   C2675     1.0  0.89604  0.32927  0.56567  1.0000
  H   H4577     1.0  0.79465  0.33314  0.54419  1.0000
  H   H4578     1.0  0.87058  0.35999  0.69222  1.0000
  H   H4579     1.0  0.96568  0.44283  0.70991  1.0000
  H   H4580     1.0  0.57673  0.33558  0.61141  1.0000
  H   H4581     1.0  0.84770  0.53177  0.70589  1.0000
  H   H4582     1.0  0.93821  0.46157  0.57696  1.0000
  H   H4583     1.0  0.57909  0.33889  0.55032  1.0000
  H   H4584     1.0  0.90233  0.51533  0.58744  1.0000
  C   C2676     1.0  0.50525  0.32325  0.57377  1.0000
  C   C2677     1.0  0.87455  0.61812  0.56849  1.0000
  S   S767      1.0  0.90959  0.36360  0.48556  1.0000
  C   C2678     1.0  0.88310  0.32755  0.71062  1.0000
  C   C2679     1.0  0.96755  0.42975  0.68783  1.0000
  H   H4585     1.0  0.88955  0.55555  0.66007  1.0000
  H   H4586     1.0  0.95430  0.56194  0.60616  1.0000
  H   H4587     1.0  0.81153  0.32179  0.57023  1.0000
  Fe  Fe384     1.0  0.98372  0.51991  0.52236  1.0000
  C   C2680     1.0  0.80058  0.38344  0.47939  1.0000
  H   H4588     1.0  0.52722  0.36459  0.55487  1.0000
  C   C2681     1.0  0.97604  0.43550  0.70041  1.0000
  C   C2682     1.0  0.49636  0.33966  0.57858  1.0000
  H   H4589     1.0  0.89212  0.59991  0.54223  1.0000
  C   C2683     1.0  0.88720  0.63082  0.55702  1.0000
  H   H4590     1.0  0.90581  0.51162  0.71217  1.0000
  H   H4591     1.0  0.88390  0.43202  0.57111  1.0000
  C   C2684     1.0  0.84920  0.33895  0.68964  1.0000
  H   H4592     1.0  0.86693  0.32297  0.67197  1.0000
  C   C2685     1.0  0.77572  0.33153  0.58253  1.0000
  H   H4593     1.0  0.85869  0.63343  0.53998  1.0000
  Fe  Fe385     1.0  0.84128  0.31681  0.61288  1.0000
  C   C2686     1.0  0.97490  0.64343  0.55147  1.0000
  H   H4594     1.0  0.89692  0.60113  0.51888  1.0000
  H   H4595     1.0  0.97176  0.64084  0.53963  1.0000
  H   H4596     1.0  0.56200  0.32029  0.56966  1.0000
  H   H4597     1.0  0.95494  0.46508  0.68867  1.0000
  C   C2687     1.0  0.87093  0.45885  0.71779  1.0000
  N   N190      1.0  0.88488  0.63912  0.53811  1.0000
  S   S768      1.0  0.78358  0.31786  0.50471  1.0000
  H   H4598     1.0  0.91829  0.32143  0.49143  1.0000
  H   H4599     1.0  0.90120  0.62335  0.55710  1.0000
  H   H4600     1.0  0.80211  0.38336  0.49297  1.0000
  H   H4601     1.0  0.98067  0.47173  0.63613  1.0000
  H   H4602     1.0  0.88527  0.64143  0.56462  1.0000
  H   H4603     1.0  0.91110  0.32069  0.64074  1.0000
  H   H4604     1.0  0.56551  0.31788  0.61671  1.0000
  C   C2688     1.0  0.86549  0.64483  0.53648  1.0000
  H   H4605     1.0  0.60551  0.31682  0.60081  1.0000
  C   C2689     1.0  0.98958  0.56464  0.58762  1.0000
  S   S769      1.0  0.90808  0.64882  0.61618  1.0000
  H   H4606     1.0  0.54809  0.57376  0.85062  1.0000
  C   C2690     1.0  0.49963  0.60532  0.84971  1.0000
  S   S770      1.0  0.53784  0.51309  0.82285  1.0000
  S   S771      1.0  0.50935  0.63703  0.86699  1.0000
  H   H4607     1.0  0.52279  0.56375  0.82145  1.0000
  S   S772      1.0  0.88014  0.48983  0.74600  1.0000
  C   C2691     1.0  0.86100  0.52818  0.94816  1.0000
  Fe  Fe386     1.0  0.86904  0.51819  0.74919  1.0000
  Fe  Fe387     1.0  0.61092  0.54065  0.90074  1.0000
  S   S773      1.0  0.60650  0.52779  0.88047  1.0000
  S   S774      1.0  0.62489  0.52324  0.92260  1.0000
  Fe  Fe388     1.0  0.59384  0.57759  0.88320  1.0000
  S   S775      1.0  0.58786  0.56802  0.86155  1.0000
  S   S776      1.0  0.58762  0.60713  0.88128  1.0000
  Fe  Fe389     1.0  0.57925  0.54572  0.88345  1.0000
  S   S777      1.0  0.55323  0.53715  0.88680  1.0000
  Fe  Fe390     1.0  0.61555  0.55128  0.86051  1.0000
  S   S778      1.0  0.63420  0.54845  0.83423  1.0000
  S   S779      1.0  0.58287  0.55677  0.90549  1.0000
  S   S780      1.0  0.62231  0.56261  0.88046  1.0000
  Fe  Fe391     1.0  0.73970  0.61308  0.82671  1.0000
  S   S781      1.0  0.76808  0.61525  0.81248  1.0000
  Fe  Fe392     1.0  0.71198  0.59046  0.83234  1.0000
  S   S782      1.0  0.69094  0.60711  0.84963  1.0000
  S   S783      1.0  0.71036  0.56632  0.82341  1.0000
  Fe  Fe393     1.0  0.71356  0.60740  0.86199  1.0000
  S   S784      1.0  0.71339  0.59822  0.89143  1.0000
  S   S785      1.0  0.71953  0.61358  0.81124  1.0000
  S   S786      1.0  0.73371  0.58852  0.84648  1.0000
  C   C2692     1.0  0.50868  0.38888  0.96283  1.0000
  H   H4608     1.0  0.75768  0.57877  0.79540  1.0000
  Fe  Fe394     1.0  0.84130  0.54444  0.76969  1.0000
  S   S787      1.0  0.85575  0.56707  0.75668  1.0000
  S   S788      1.0  0.81697  0.54339  0.79222  1.0000
  Fe  Fe395     1.0  0.88054  0.54625  0.76108  1.0000
  S   S789      1.0  0.90359  0.54701  0.77237  1.0000
  S   S790      1.0  0.86585  0.52442  0.77584  1.0000
  Fe  Fe396     1.0  0.88928  0.53561  0.87010  1.0000
  S   S791      1.0  0.88845  0.50818  0.86816  1.0000
  S   S792      1.0  0.87557  0.55858  0.85151  1.0000
  Fe  Fe397     1.0  0.90470  0.52214  0.90405  1.0000
  S   S793      1.0  0.90482  0.49345  0.90476  1.0000
  S   S794      1.0  0.90817  0.53022  0.92840  1.0000
  Fe  Fe398     1.0  0.91547  0.50001  0.87510  1.0000
  S   S795      1.0  0.93680  0.48136  0.85948  1.0000
  Fe  Fe399     1.0  0.87782  0.50403  0.89759  1.0000
  S   S796      1.0  0.85471  0.49009  0.90958  1.0000
  S   S797      1.0  0.91748  0.52816  0.87473  1.0000
  S   S798      1.0  0.87663  0.53204  0.89914  1.0000
  H   H4609     1.0  0.69747  0.61216  0.94626  1.0000
  H   H4610     1.0  0.86721  0.38149  0.81165  1.0000
  H   H4611     1.0  0.91972  0.56995  0.96127  1.0000
  Fe  Fe400     1.0  0.93201  0.40325  0.81826  1.0000
  S   S799      1.0  0.95954  0.40658  0.80262  1.0000
  S   S800      1.0  0.91318  0.42080  0.83677  1.0000
  Fe  Fe401     1.0  0.93052  0.37495  0.79832  1.0000
  S   S801      1.0  0.95782  0.37629  0.78150  1.0000
  S   S802      1.0  0.91337  0.36122  0.78955  1.0000
  Fe  Fe402     1.0  0.96536  0.37646  0.80701  1.0000
  H   H4612     1.0  0.70599  0.57693  0.93150  1.0000
  Fe  Fe403     1.0  0.94929  0.40592  0.77882  1.0000
  S   S803      1.0  0.94910  0.42615  0.75292  1.0000
  S   S804      1.0  0.93833  0.37303  0.82425  1.0000
  S   S805      1.0  0.92156  0.40470  0.79413  1.0000
  H   H4613     1.0  0.55704  0.48384  0.84481  1.0000
  H   H4614     1.0  0.89107  0.39499  0.78902  1.0000
  S   S806      1.0  0.78492  0.60814  0.96202  1.0000
  Fe  Fe404     1.0  0.79307  0.55733  0.96346  1.0000
  S   S807      1.0  0.81166  0.57444  0.94500  1.0000
  H   H4615     1.0  0.51713  0.60030  0.81779  1.0000
  H   H4616     1.0  0.86232  0.60791  0.94792  1.0000
  H   H4617     1.0  0.98509  0.38231  0.83505  1.0000
  Fe  Fe405     1.0  0.78625  0.59405  0.94013  1.0000
  S   S808      1.0  0.78182  0.60864  0.91250  1.0000
  C   C2693     1.0  0.78854  0.57036  0.86471  1.0000
  S   S809      1.0  0.76794  0.57594  0.95704  1.0000
  H   H4618     1.0  0.72094  0.57088  0.97341  1.0000
  H   H4619     1.0  0.74945  0.54078  0.78031  1.0000
  H   H4620     1.0  0.94514  0.54175  0.96344  1.0000
  C   C2694     1.0  0.94544  0.40101  0.73662  1.0000
  H   H4621     1.0  0.97093  0.53800  0.90936  1.0000
  Fe  Fe406     1.0  0.80862  0.58664  0.96865  1.0000
  H   H4622     1.0  0.51141  0.39366  0.94809  1.0000
  C   C2695     1.0  0.94028  0.41880  0.73849  1.0000
  C   C2696     1.0  0.86957  0.48134  0.73407  1.0000
  H   H4623     1.0  0.92739  0.33255  0.81693  1.0000
  C   C2697     1.0  0.70776  0.60050  0.95052  1.0000
  H   H4624     1.0  0.92404  0.59937  0.92740  1.0000
  H   H4625     1.0  0.79111  0.56531  0.87847  1.0000
  H   H4626     1.0  0.95457  0.39160  0.74438  1.0000
  H   H4627     1.0  0.86327  0.61775  0.96578  1.0000
  H   H4628     1.0  0.96015  0.33158  0.78238  1.0000
  H   H4629     1.0  0.79049  0.61775  0.87343  1.0000
  H   H4630     1.0  0.76358  0.57879  0.92236  1.0000
  H   H4631     1.0  0.67361  0.53440  0.92849  1.0000
  C   C2698     1.0  0.85712  0.41307  0.76599  1.0000
  C   C2699     1.0  0.92848  0.53360  0.93122  1.0000
  C   C2700     1.0  0.54432  0.63873  0.86325  1.0000
  C   C2701     1.0  0.95928  0.53754  0.92014  1.0000
  C   C2702     1.0  0.94360  0.53418  0.91735  1.0000
  H   H4632     1.0  0.73655  0.58571  0.78920  1.0000
  H   H4633     1.0  0.94321  0.53213  0.90447  1.0000
  C   C2703     1.0  0.93035  0.46398  0.85396  1.0000
  C   C2704     1.0  0.94285  0.45323  0.84287  1.0000
  C   C2705     1.0  0.93787  0.43975  0.83771  1.0000
  C   C2706     1.0  0.92034  0.43690  0.84364  1.0000
  C   C2707     1.0  0.90785  0.44762  0.85475  1.0000
  C   C2708     1.0  0.91282  0.46108  0.85993  1.0000
  H   H4634     1.0  0.95642  0.45540  0.83822  1.0000
  H   H4635     1.0  0.94760  0.43159  0.82915  1.0000
  H   H4636     1.0  0.89428  0.44544  0.85945  1.0000
  H   H4637     1.0  0.90313  0.46912  0.86863  1.0000
  C   C2709     1.0  0.83744  0.50108  0.92436  1.0000
  C   C2710     1.0  0.83286  0.51976  0.92146  1.0000
  C   C2711     1.0  0.81959  0.52819  0.93404  1.0000
  C   C2712     1.0  0.81127  0.51790  0.94967  1.0000
  C   C2713     1.0  0.81546  0.49926  0.95220  1.0000
  C   C2714     1.0  0.82838  0.49088  0.93949  1.0000
  H   H4638     1.0  0.83957  0.52772  0.90962  1.0000
  H   H4639     1.0  0.81616  0.54258  0.93184  1.0000
  H   H4640     1.0  0.80891  0.49127  0.96417  1.0000
  H   H4641     1.0  0.83177  0.47645  0.94167  1.0000
  C   C2715     1.0  0.89668  0.55173  0.79387  1.0000
  C   C2716     1.0  0.88098  0.56419  0.79829  1.0000
  C   C2717     1.0  0.87509  0.56699  0.81586  1.0000
  C   C2718     1.0  0.88442  0.55675  0.82917  1.0000
  C   C2719     1.0  0.90028  0.54454  0.82466  1.0000
  C   C2720     1.0  0.90662  0.54236  0.80694  1.0000
  H   H4642     1.0  0.87340  0.57167  0.78817  1.0000
  H   H4643     1.0  0.86306  0.57671  0.81926  1.0000
  H   H4644     1.0  0.90772  0.53681  0.83483  1.0000
  H   H4645     1.0  0.91901  0.53304  0.80348  1.0000
  C   C2721     1.0  0.59868  0.50232  0.96901  1.0000
  C   C2722     1.0  0.79590  0.61783  0.85896  1.0000
  H   H4646     1.0  0.91992  0.59225  0.96146  1.0000
  C   C2723     1.0  0.74790  0.55214  0.78670  1.0000
  C   C2724     1.0  0.50567  0.41962  0.96725  1.0000
  C   C2725     1.0  0.78234  0.59524  0.80750  1.0000
  C   C2726     1.0  0.79725  0.59590  0.79332  1.0000
  C   C2727     1.0  0.80835  0.58005  0.78875  1.0000
  C   C2728     1.0  0.80470  0.56349  0.79853  1.0000
  C   C2729     1.0  0.79016  0.56283  0.81305  1.0000
  C   C2730     1.0  0.77905  0.57864  0.81753  1.0000
  H   H4647     1.0  0.80000  0.60870  0.78559  1.0000
  H   H4648     1.0  0.81950  0.58069  0.77746  1.0000
  C   C2731     1.0  0.73286  0.60082  0.89662  1.0000
  C   C2732     1.0  0.73951  0.61648  0.88916  1.0000
  C   C2733     1.0  0.75440  0.61885  0.89426  1.0000
  C   C2734     1.0  0.76292  0.60546  0.90660  1.0000
  C   C2735     1.0  0.75664  0.58953  0.91354  1.0000
  C   C2736     1.0  0.74156  0.58728  0.90868  1.0000
  C   C2737     1.0  0.88981  0.60875  0.94950  1.0000
  H   H4649     1.0  0.50155  0.37771  0.96549  1.0000
  H   H4650     1.0  0.80670  0.58891  0.88277  1.0000
  H   H4651     1.0  0.73680  0.57494  0.91414  1.0000
  C   C2738     1.0  0.65511  0.55384  0.83149  1.0000
  C   C2739     1.0  0.67014  0.54480  0.82113  1.0000
  C   C2740     1.0  0.68699  0.54882  0.81870  1.0000
  C   C2741     1.0  0.68884  0.56231  0.82612  1.0000
  C   C2742     1.0  0.67372  0.57180  0.83603  1.0000
  C   C2743     1.0  0.65693  0.56729  0.83904  1.0000
  H   H4652     1.0  0.66877  0.53446  0.81520  1.0000
  H   H4653     1.0  0.69861  0.54146  0.81102  1.0000
  H   H4654     1.0  0.67495  0.58236  0.84165  1.0000
  H   H4655     1.0  0.64533  0.57448  0.84684  1.0000
  C   C2744     1.0  0.56574  0.61544  0.87774  1.0000
  H   H4656     1.0  0.75551  0.54898  0.74702  1.0000
  C   C2745     1.0  0.55262  0.60512  0.88516  1.0000
  H   H4657     1.0  0.75916  0.63120  0.88883  1.0000
  H   H4658     1.0  0.55584  0.59204  0.89350  1.0000
  Fe  Fe407     1.0  0.69975  0.63060  0.82923  1.0000
  H   H4659     1.0  0.78728  0.55005  0.82069  1.0000
  H   H4660     1.0  0.53827  0.47723  0.89221  1.0000
  H   H4661     1.0  0.77897  0.59546  0.84811  1.0000
  C   C2746     1.0  0.54170  0.52108  0.84007  1.0000
  C   C2747     1.0  0.52847  0.52312  0.85542  1.0000
  C   C2748     1.0  0.53220  0.52809  0.86963  1.0000
  C   C2749     1.0  0.54909  0.53140  0.86847  1.0000
  C   C2750     1.0  0.56230  0.52973  0.85301  1.0000
  C   C2751     1.0  0.55863  0.52443  0.83889  1.0000
  C   C2752     1.0  0.92851  0.43091  0.72828  1.0000
  C   C2753     1.0  0.91536  0.58403  0.95468  1.0000
  H   H4662     1.0  0.57540  0.53224  0.85206  1.0000
  H   H4663     1.0  0.56899  0.52283  0.82708  1.0000
  H   H4664     1.0  0.76794  0.57790  0.82871  1.0000
  C   C2754     1.0  0.63058  0.53486  0.93577  1.0000
  C   C2755     1.0  0.63898  0.52518  0.94993  1.0000
  C   C2756     1.0  0.85245  0.48962  0.73078  1.0000
  H   H4665     1.0  0.50874  0.47094  0.89255  1.0000
  H   H4666     1.0  0.73387  0.58279  0.76107  1.0000
  H   H4667     1.0  0.75042  0.60583  0.76099  1.0000
  H   H4668     1.0  0.84857  0.55488  0.95518  1.0000
  H   H4669     1.0  0.82862  0.60882  0.87001  1.0000
  N   N191      1.0  0.91499  0.48044  0.79153  1.0000
  C   C2757     1.0  0.93447  0.47251  0.79184  1.0000
  C   C2758     1.0  0.90976  0.49703  0.79931  1.0000
  C   C2759     1.0  0.91167  0.48552  0.77281  1.0000
  C   C2760     1.0  0.90410  0.46666  0.80219  1.0000
  C   C2761     1.0  0.94296  0.45649  0.78258  1.0000
  C   C2762     1.0  0.90882  0.49384  0.81956  1.0000
  C   C2763     1.0  0.92314  0.49815  0.75927  1.0000
  C   C2764     1.0  0.88357  0.47267  0.80409  1.0000
  H   H4670     1.0  0.94283  0.48280  0.78580  1.0000
  H   H4671     1.0  0.93642  0.46773  0.80584  1.0000
  H   H4672     1.0  0.89676  0.50540  0.79645  1.0000
  C   C2765     1.0  0.60500  0.63532  0.78873  1.0000
  H   H4673     1.0  0.91344  0.47347  0.76723  1.0000
  H   H4674     1.0  0.89746  0.49237  0.77285  1.0000
  H   H4675     1.0  0.90780  0.45478  0.79595  1.0000
  H   H4676     1.0  0.90729  0.46093  0.81565  1.0000
  H   H4677     1.0  0.94240  0.45986  0.76823  1.0000
  H   H4678     1.0  0.95735  0.45225  0.78332  1.0000
  H   H4679     1.0  0.93683  0.44472  0.78938  1.0000
  H   H4680     1.0  0.90433  0.50682  0.82388  1.0000
  H   H4681     1.0  0.89907  0.48549  0.82755  1.0000
  H   H4682     1.0  0.92217  0.48788  0.82289  1.0000
  H   H4683     1.0  0.92076  0.51116  0.76320  1.0000
  H   H4684     1.0  0.91920  0.50105  0.74615  1.0000
  H   H4685     1.0  0.93763  0.49206  0.75720  1.0000
  H   H4686     1.0  0.87929  0.47033  0.79270  1.0000
  H   H4687     1.0  0.87854  0.48687  0.80489  1.0000
  H   H4688     1.0  0.87691  0.46494  0.81678  1.0000
  N   N192      1.0  0.75579  0.56730  0.77397  1.0000
  C   C2766     1.0  0.75125  0.58250  0.78369  1.0000
  H   H4689     1.0  0.55114  0.44913  0.83801  1.0000
  C   C2767     1.0  0.77590  0.56239  0.76840  1.0000
  C   C2768     1.0  0.75687  0.60011  0.77267  1.0000
  S   S810      1.0  0.49713  0.63484  0.79399  1.0000
  C   C2769     1.0  0.78395  0.54554  0.76040  1.0000
  H   H4690     1.0  0.82110  0.60943  0.83237  1.0000
  H   H4691     1.0  0.59660  0.49038  0.96548  1.0000
  C   C2770     1.0  0.54780  0.47710  0.87921  1.0000
  H   H4692     1.0  0.78115  0.57343  0.75818  1.0000
  H   H4693     1.0  0.78245  0.56113  0.77960  1.0000
  H   H4694     1.0  0.77162  0.59851  0.76840  1.0000
  H   H4695     1.0  0.89206  0.40580  0.73050  1.0000
  H   H4696     1.0  0.56962  0.46212  0.85116  1.0000
  H   H4697     1.0  0.49931  0.60322  0.86427  1.0000
  H   H4698     1.0  0.77599  0.56644  0.86472  1.0000
  H   H4699     1.0  0.88964  0.50141  0.95673  1.0000
  H   H4700     1.0  0.97424  0.63724  0.97280  1.0000
  H   H4701     1.0  0.73285  0.62701  0.87987  1.0000
  H   H4702     1.0  0.53361  0.36931  0.96064  1.0000
  N   N193      1.0  0.84247  0.51375  0.85032  1.0000
  C   C2771     1.0  0.83830  0.52896  0.85999  1.0000
  C   C2772     1.0  0.85825  0.51666  0.83515  1.0000
  C   C2773     1.0  0.84718  0.49653  0.86351  1.0000
  C   C2774     1.0  0.82602  0.51407  0.84381  1.0000
  C   C2775     1.0  0.82347  0.52792  0.87713  1.0000
  C   C2776     1.0  0.85450  0.53274  0.81985  1.0000
  C   C2777     1.0  0.85906  0.48025  0.85599  1.0000
  C   C2778     1.0  0.82798  0.50102  0.83160  1.0000
  H   H4703     1.0  0.85055  0.53011  0.86385  1.0000
  H   H4704     1.0  0.83402  0.54197  0.85122  1.0000
  H   H4705     1.0  0.86391  0.50499  0.82874  1.0000
  H   H4706     1.0  0.86950  0.51842  0.84015  1.0000
  H   H4707     1.0  0.85454  0.49857  0.87281  1.0000
  H   H4708     1.0  0.83486  0.49220  0.87223  1.0000
  H   H4709     1.0  0.81496  0.51088  0.85530  1.0000
  H   H4710     1.0  0.82037  0.52778  0.83690  1.0000
  H   H4711     1.0  0.82663  0.51564  0.88729  1.0000
  H   H4712     1.0  0.82235  0.53936  0.88333  1.0000
  H   H4713     1.0  0.81018  0.52899  0.87425  1.0000
  H   H4714     1.0  0.84456  0.53126  0.81300  1.0000
  H   H4715     1.0  0.85014  0.54561  0.82429  1.0000
  H   H4716     1.0  0.86712  0.53341  0.80973  1.0000
  H   H4717     1.0  0.85404  0.47725  0.84554  1.0000
  H   H4718     1.0  0.85949  0.46828  0.86705  1.0000
  H   H4719     1.0  0.87311  0.48203  0.85089  1.0000
  H   H4720     1.0  0.82509  0.48794  0.83962  1.0000
  H   H4721     1.0  0.84122  0.49888  0.82253  1.0000
  H   H4722     1.0  0.81833  0.50684  0.82254  1.0000
  C   C2779     1.0  0.88767  0.42032  0.76042  1.0000
  C   C2780     1.0  0.88211  0.43617  0.77004  1.0000
  C   C2781     1.0  0.85340  0.42691  0.74892  1.0000
  H   H4723     1.0  0.87079  0.41016  0.79484  1.0000
  H   H4724     1.0  0.88793  0.42611  0.74608  1.0000
  H   H4725     1.0  0.90199  0.41429  0.76106  1.0000
  H   H4726     1.0  0.84957  0.41977  0.77728  1.0000
  H   H4727     1.0  0.88960  0.44676  0.76218  1.0000
  H   H4728     1.0  0.86762  0.44216  0.77145  1.0000
  H   H4729     1.0  0.88582  0.43222  0.78332  1.0000
  C   C2782     1.0  0.88866  0.57764  0.94809  1.0000
  H   H4730     1.0  0.51885  0.46646  0.85954  1.0000
  N   N194      1.0  0.61031  0.61307  0.81790  1.0000
  C   C2783     1.0  0.60970  0.61222  0.83729  1.0000
  C   C2784     1.0  0.62766  0.60182  0.80981  1.0000
  C   C2785     1.0  0.59546  0.60451  0.81730  1.0000
  H   H4731     1.0  0.74954  0.53246  0.81140  1.0000
  H   H4732     1.0  0.64996  0.52655  0.97171  1.0000
  H   H4733     1.0  0.64661  0.61852  0.80993  1.0000
  H   H4734     1.0  0.51241  0.42183  0.95288  1.0000
  H   H4735     1.0  0.59739  0.62120  0.84300  1.0000
  H   H4736     1.0  0.60894  0.59850  0.84532  1.0000
  H   H4737     1.0  0.62585  0.59616  0.79903  1.0000
  H   H4738     1.0  0.63188  0.58977  0.81989  1.0000
  H   H4739     1.0  0.59524  0.60445  0.80332  1.0000
  H   H4740     1.0  0.90452  0.33884  0.77144  1.0000
  H   H4741     1.0  0.54128  0.42862  0.90074  1.0000
  C   C2786     1.0  0.83150  0.59560  0.86635  1.0000
  H   H4742     1.0  0.83975  0.59609  0.85264  1.0000
  H   H4743     1.0  0.57246  0.62738  0.82067  1.0000
  H   H4744     1.0  0.77660  0.53458  0.76635  1.0000
  H   H4745     1.0  0.87129  0.55257  0.94253  1.0000
  H   H4746     1.0  0.63792  0.60731  0.83929  1.0000
  H   H4747     1.0  0.92478  0.57580  0.92874  1.0000
  H   H4748     1.0  0.86399  0.42560  0.73689  1.0000
  H   H4749     1.0  0.83988  0.58617  0.87553  1.0000
  N   N195      1.0  0.86404  0.51773  0.96640  1.0000
  H   H4750     1.0  0.85335  0.55452  0.93192  1.0000
  N   N196      1.0  0.68447  0.54327  0.88602  1.0000
  C   C2787     1.0  0.69854  0.55376  0.87492  1.0000
  C   C2788     1.0  0.66733  0.55661  0.89044  1.0000
  C   C2789     1.0  0.68179  0.53195  0.87458  1.0000
  C   C2790     1.0  0.69117  0.53178  0.90238  1.0000
  C   C2791     1.0  0.71673  0.54265  0.86715  1.0000
  C   C2792     1.0  0.66844  0.57045  0.90050  1.0000
  C   C2793     1.0  0.66675  0.52127  0.88235  1.0000
  C   C2794     1.0  0.67692  0.52557  0.91874  1.0000
  H   H4751     1.0  0.69353  0.56356  0.86351  1.0000
  H   H4752     1.0  0.70170  0.56188  0.88286  1.0000
  H   H4753     1.0  0.65621  0.55007  0.89864  1.0000
  H   H4754     1.0  0.66256  0.56419  0.87799  1.0000
  H   H4755     1.0  0.67908  0.54041  0.86158  1.0000
  H   H4756     1.0  0.69415  0.52184  0.87125  1.0000
  H   H4757     1.0  0.70098  0.51962  0.89900  1.0000
  H   H4758     1.0  0.69857  0.53919  0.90726  1.0000
  H   H4759     1.0  0.72249  0.53203  0.87751  1.0000
  H   H4760     1.0  0.71569  0.53684  0.85619  1.0000
  H   H4761     1.0  0.72643  0.55160  0.86110  1.0000
  H   H4762     1.0  0.65467  0.57767  0.90542  1.0000
  H   H4763     1.0  0.67463  0.56410  0.91227  1.0000
  H   H4764     1.0  0.67585  0.58069  0.89157  1.0000
  H   H4765     1.0  0.65342  0.52968  0.88634  1.0000
  H   H4766     1.0  0.67006  0.51013  0.89354  1.0000
  H   H4767     1.0  0.66544  0.51502  0.87180  1.0000
  H   H4768     1.0  0.68262  0.51212  0.92595  1.0000
  H   H4769     1.0  0.66452  0.52441  0.91559  1.0000
  H   H4770     1.0  0.79758  0.53985  0.76330  1.0000
  C   C2795     1.0  0.67944  0.59315  0.93494  1.0000
  C   C2796     1.0  0.81421  0.58880  0.86874  1.0000
  H   H4771     1.0  0.87260  0.52417  0.93754  1.0000
  H   H4772     1.0  0.95995  0.63253  0.96121  1.0000
  H   H4773     1.0  0.89844  0.59262  0.92022  1.0000
  H   H4774     1.0  0.77030  0.53930  0.80077  1.0000
  H   H4775     1.0  0.81855  0.57446  0.86811  1.0000
  C   C2797     1.0  0.49188  0.43539  0.77950  1.0000
  H   H4776     1.0  0.62230  0.61779  0.85598  1.0000
  H   H4777     1.0  0.61265  0.62408  0.78216  1.0000
  H   H4778     1.0  0.72938  0.59734  0.96467  1.0000
  H   H4779     1.0  0.87549  0.58991  0.92522  1.0000
  C   C2798     1.0  0.55585  0.46961  0.84987  1.0000
  H   H4780     1.0  0.91948  0.50596  0.79278  1.0000
  H   H4781     1.0  0.49429  0.39239  0.82460  1.0000
  C   C2799     1.0  0.88916  0.58367  0.92775  1.0000
  H   H4782     1.0  0.67733  0.58882  0.92352  1.0000
  C   C2800     1.0  0.92309  0.32677  0.80815  1.0000
  N   N197      1.0  0.70059  0.58351  0.95752  1.0000
  H   H4783     1.0  0.75540  0.58204  0.74678  1.0000
  H   H4784     1.0  0.52123  0.57899  0.80118  1.0000
  H   H4785     1.0  0.59062  0.63726  0.78842  1.0000
  C   C2801     1.0  0.94479  0.53972  0.95059  1.0000
  H   H4786     1.0  0.89633  0.56362  0.95047  1.0000
  H   H4787     1.0  0.91770  0.53560  0.95875  1.0000
  C   C2802     1.0  0.88513  0.39071  0.75830  1.0000
  H   H4788     1.0  0.89577  0.61262  0.93516  1.0000
  H   H4789     1.0  0.86851  0.49591  0.94035  1.0000
  C   C2803     1.0  0.64381  0.61106  0.80129  1.0000
  H   H4790     1.0  0.66650  0.59389  0.94473  1.0000
  H   H4791     1.0  0.61252  0.50327  0.96159  1.0000
  C   C2804     1.0  0.69448  0.57921  0.94284  1.0000
  H   H4792     1.0  0.50098  0.41613  0.80190  1.0000
  H   H4793     1.0  0.83200  0.58549  0.81823  1.0000
  H   H4794     1.0  0.76881  0.62490  0.85258  1.0000
  H   H4795     1.0  0.86604  0.54061  0.97574  1.0000
  H   H4796     1.0  0.84946  0.52496  0.94504  1.0000
  C   C2805     1.0  0.75557  0.54414  0.80380  1.0000
  H   H4797     1.0  0.82836  0.54040  0.97228  1.0000
  H   H4798     1.0  0.63404  0.48324  0.97323  1.0000
  C   C2806     1.0  0.57627  0.61285  0.82602  1.0000
  H   H4799     1.0  0.80206  0.60601  0.82756  1.0000
  H   H4800     1.0  0.87814  0.37936  0.76409  1.0000
  H   H4801     1.0  0.94103  0.58231  0.93619  1.0000
  Fe  Fe408     1.0  0.50954  0.51113  0.82375  1.0000
  C   C2807     1.0  0.88578  0.39436  0.73810  1.0000
  C   C2808     1.0  0.86941  0.48891  0.95425  1.0000
  C   C2809     1.0  0.87700  0.39936  0.78719  1.0000
  C   C2810     1.0  0.88711  0.58570  0.97646  1.0000
  H   H4802     1.0  0.68925  0.56665  0.94761  1.0000
  H   H4803     1.0  0.57736  0.47211  0.87141  1.0000
  C   C2811     1.0  0.60749  0.63226  0.80808  1.0000
  H   H4804     1.0  0.89520  0.61647  0.95614  1.0000
  C   C2812     1.0  0.74356  0.55951  0.74992  1.0000
  H   H4805     1.0  0.72775  0.56836  0.95085  1.0000
  C   C2813     1.0  0.52413  0.47563  0.86451  1.0000
  H   H4806     1.0  0.51030  0.61305  0.84277  1.0000
  H   H4807     1.0  0.57441  0.61021  0.84077  1.0000
  C   C2814     1.0  0.71606  0.56864  0.96233  1.0000
  C   C2815     1.0  0.78141  0.63000  0.84880  1.0000
  H   H4808     1.0  0.78622  0.63208  0.83411  1.0000
  C   C2816     1.0  0.87384  0.52712  0.97399  1.0000
  C   C2817     1.0  0.68574  0.58426  0.97391  1.0000
  H   H4809     1.0  0.55899  0.44070  0.87478  1.0000
  H   H4810     1.0  0.77792  0.64335  0.85233  1.0000
  H   H4811     1.0  0.51202  0.49361  0.88348  1.0000
  C   C2818     1.0  0.53515  0.61191  0.88216  1.0000
  C   C2819     1.0  0.92660  0.58566  0.93551  1.0000
  H   H4812     1.0  0.49830  0.55338  0.84271  1.0000
  N   N198      1.0  0.89526  0.58899  0.95669  1.0000
  H   H4813     1.0  0.52493  0.60405  0.88818  1.0000
  H   H4814     1.0  0.61009  0.64737  0.78054  1.0000
  C   C2820     1.0  0.56157  0.63226  0.86682  1.0000
  H   H4815     1.0  0.89185  0.45936  0.73034  1.0000
  C   C2821     1.0  0.74719  0.57380  0.75784  1.0000
  H   H4816     1.0  0.71828  0.59942  0.93816  1.0000
  N   N199      1.0  0.87646  0.40616  0.76761  1.0000
  H   H4817     1.0  0.87226  0.39620  0.73535  1.0000
  S   S811      1.0  0.84314  0.53619  0.74406  1.0000
  C   C2822     1.0  0.62725  0.55353  0.93209  1.0000
  H   H4818     1.0  0.59303  0.53081  0.95636  1.0000
  H   H4819     1.0  0.56207  0.46579  0.82256  1.0000
  H   H4820     1.0  0.68281  0.60650  0.92940  1.0000
  Fe  Fe409     1.0  0.97802  0.55409  0.96517  1.0000
  H   H4821     1.0  0.53627  0.39041  0.96234  1.0000
  H   H4822     1.0  0.61842  0.63882  0.80786  1.0000
  S   S812      1.0  0.72085  0.63238  0.84302  1.0000
  C   C2823     1.0  0.53418  0.44192  0.89452  1.0000
  H   H4823     1.0  0.89417  0.38251  0.73278  1.0000
  C   C2824     1.0  0.51984  0.57627  0.85146  1.0000
  C   C2825     1.0  0.92920  0.53627  0.94786  1.0000
  C   C2826     1.0  0.85828  0.54871  0.94455  1.0000
  H   H4824     1.0  0.52347  0.56275  0.84843  1.0000
  H   H4825     1.0  0.64205  0.51075  0.95249  1.0000
  H   H4826     1.0  0.75195  0.55367  0.81288  1.0000
  C   C2827     1.0  0.71599  0.60586  0.96355  1.0000
  H   H4827     1.0  0.57298  0.52220  0.96803  1.0000
  N   N200      1.0  0.54288  0.46734  0.86769  1.0000
  C   C2828     1.0  0.50974  0.48155  0.88039  1.0000
  N   N201      1.0  0.49707  0.40354  0.97215  1.0000
  H   H4828     1.0  0.49789  0.55196  0.86602  1.0000
  H   H4829     1.0  0.73312  0.55656  0.79089  1.0000
  H   H4830     1.0  0.52045  0.44087  0.89436  1.0000
  H   H4831     1.0  0.71046  0.54448  0.95752  1.0000
  H   H4832     1.0  0.54013  0.44108  0.86696  1.0000
  H   H4833     1.0  0.85064  0.40175  0.76711  1.0000
  H   H4834     1.0  0.62081  0.56109  0.92115  1.0000
  C   C2829     1.0  0.52726  0.38073  0.96744  1.0000
  H   H4835     1.0  0.53012  0.42630  0.96933  1.0000
  N   N202      1.0  0.50380  0.58761  0.84405  1.0000
  H   H4836     1.0  0.73921  0.56604  0.73708  1.0000
  H   H4837     1.0  0.53343  0.45078  0.90354  1.0000
  C   C2830     1.0  0.91012  0.33030  0.78258  1.0000
  H   H4838     1.0  0.87441  0.37108  0.79302  1.0000
  H   H4839     1.0  0.64197  0.62030  0.78842  1.0000
  S   S813      1.0  0.97963  0.54487  0.93989  1.0000
  H   H4840     1.0  0.59802  0.59009  0.82396  1.0000
  H   H4841     1.0  0.52198  0.52931  0.88161  1.0000
  H   H4842     1.0  0.57183  0.64000  0.86079  1.0000
  C   C2831     1.0  0.56665  0.47007  0.88351  1.0000
  C   C2832     1.0  0.58664  0.51902  0.96001  1.0000
  C   C2833     1.0  0.54470  0.44759  0.87538  1.0000
  H   H4843     1.0  0.54692  0.49145  0.87268  1.0000
  C   C2834     1.0  0.53714  0.58379  0.84499  1.0000
  C   C2835     1.0  0.86728  0.38385  0.79717  1.0000
  H   H4844     1.0  0.62744  0.63092  0.83405  1.0000
  H   H4845     1.0  0.53580  0.59611  0.84988  1.0000
  H   H4846     1.0  0.67084  0.61109  0.96142  1.0000
  C   C2836     1.0  0.64025  0.55277  0.95709  1.0000
  H   H4847     1.0  0.56826  0.47786  0.89265  1.0000
  C   C2837     1.0  0.51349  0.57500  0.81492  1.0000
  C   C2838     1.0  0.63228  0.56246  0.94263  1.0000
  H   H4848     1.0  0.89919  0.38546  0.76021  1.0000
  H   H4849     1.0  0.87443  0.57699  0.95453  1.0000
  H   H4850     1.0  0.71810  0.61976  0.95827  1.0000
  S   S814      1.0  0.88589  0.53837  0.73469  1.0000
  H   H4851     1.0  0.87933  0.47621  0.95327  1.0000
  C   C2839     1.0  0.95990  0.54042  0.93674  1.0000
  H   H4852     1.0  0.73240  0.55333  0.75884  1.0000
  S   S815      1.0  0.79635  0.52773  0.96677  1.0000
  H   H4853     1.0  0.50175  0.57023  0.81398  1.0000
  H   H4854     1.0  0.62969  0.57692  0.93977  1.0000
  C   C2840     1.0  0.91597  0.33785  0.79371  1.0000
  C   C2841     1.0  0.81175  0.59999  0.83655  1.0000
  H   H4855     1.0  0.89350  0.57166  0.92165  1.0000
  H   H4856     1.0  0.53869  0.47154  0.83101  1.0000
  C   C2842     1.0  0.82212  0.58236  0.83083  1.0000
  C   C2843     1.0  0.86942  0.61625  0.95181  1.0000
  C   C2844     1.0  0.62539  0.61745  0.84154  1.0000
  S   S816      1.0  0.52913  0.64297  0.81756  1.0000
  C   C2845     1.0  0.50742  0.59128  0.82392  1.0000
  H   H4857     1.0  0.51549  0.52046  0.85660  1.0000
  H   H4858     1.0  0.80725  0.62490  0.85515  1.0000
  H   H4859     1.0  0.85314  0.38688  0.79578  1.0000
  H   H4860     1.0  0.65603  0.60069  0.79831  1.0000
  H   H4861     1.0  0.85039  0.44074  0.75122  1.0000
  H   H4862     1.0  0.70725  0.60535  0.97702  1.0000
  H   H4863     1.0  0.85640  0.48525  0.96147  1.0000
  H   H4864     1.0  0.77567  0.59563  0.87107  1.0000
  C   C2846     1.0  0.64360  0.53411  0.96073  1.0000
  H   H4865     1.0  0.72384  0.54038  0.97370  1.0000
  S   S817      1.0  0.50190  0.48683  0.82073  1.0000
  C   C2847     1.0  0.55144  0.46354  0.83473  1.0000
  H   H4866     1.0  0.84523  0.50143  0.73591  1.0000
  H   H4867     1.0  0.79942  0.56363  0.85528  1.0000
  C   C2848     1.0  0.71216  0.54960  0.96864  1.0000
  H   H4868     1.0  0.56662  0.60644  0.82319  1.0000
  S   S818      1.0  0.96815  0.58303  0.96639  1.0000
  H   H4869     1.0  0.86697  0.62982  0.94326  1.0000
  H   H4870     1.0  0.81311  0.57515  0.82819  1.0000
  Fe  Fe410     1.0  0.85983  0.55715  0.73127  1.0000
  C   C2849     1.0  0.53101  0.62871  0.87117  1.0000
  H   H4871     1.0  0.84104  0.42538  0.74572  1.0000
  H   H4872     1.0  0.96284  0.32929  0.76000  1.0000
  N   N203      1.0  0.80218  0.59897  0.85582  1.0000
  H   H4873     1.0  0.58467  0.51651  0.94753  1.0000
  C   C2850     1.0  0.78580  0.59090  0.85966  1.0000
  H   H4874     1.0  0.54148  0.58622  0.83025  1.0000
  H   H4875     1.0  0.56868  0.45584  0.89044  1.0000
  H   H4876     1.0  0.52423  0.48789  0.85377  1.0000
  H   H4877     1.0  0.75252  0.61018  0.78127  1.0000
  H   H4878     1.0  0.92434  0.44465  0.72984  1.0000
  H   H4879     1.0  0.51663  0.57392  0.86635  1.0000
  H   H4880     1.0  0.83030  0.57356  0.84036  1.0000
  H   H4881     1.0  0.78521  0.54885  0.74567  1.0000
  C   C2851     1.0  0.87586  0.49977  0.96416  1.0000
  C   C2852     1.0  0.96304  0.32160  0.77385  1.0000
  C   C2853     1.0  0.67183  0.60203  0.97445  1.0000
  H   H4882     1.0  0.59556  0.64049  0.81533  1.0000
  S   S819      1.0  0.64628  0.56412  0.97025  1.0000
  S   S820      1.0  0.49571  0.52910  0.80234  1.0000
  H   H4883     1.0  0.83920  0.50831  0.97253  1.0000
  H   H4884     1.0  0.67821  0.57350  0.97607  1.0000
  H   H4885     1.0  0.50654  0.43470  0.77482  1.0000
  H   H4886     1.0  0.49512  0.59909  0.81901  1.0000
  H   H4887     1.0  0.49642  0.48534  0.87665  1.0000
  H   H4888     1.0  0.88653  0.52944  0.96443  1.0000
  C   C2854     1.0  0.49087  0.55854  0.85483  1.0000
  H   H4889     1.0  0.49287  0.45344  0.80494  1.0000
  H   H4890     1.0  0.49516  0.43190  0.96882  1.0000
  C   C2855     1.0  0.87868  0.46587  0.72771  1.0000
  C   C2856     1.0  0.96300  0.63051  0.97461  1.0000
  H   H4891     1.0  0.81024  0.62327  0.97750  1.0000
  H   H4892     1.0  0.87740  0.49092  0.97733  1.0000
  H   H4893     1.0  0.95769  0.96817  0.09908  1.0000
  H   H4894     1.0  0.92263  0.83582  0.14830  1.0000
  H   H4895     1.0  0.96894  0.93886  0.05519  1.0000
  S   S821      1.0  0.82928  0.67402  0.09874  1.0000
  H   H4896     1.0  0.88809  0.80479  0.14311  1.0000
  H   H4897     1.0  0.91478  0.83244  0.17229  1.0000
  H   H4898     1.0  0.85939  0.72513  0.19988  1.0000
  Fe  Fe411     1.0  0.93769  0.86567  0.10306  1.0000
  S   S822      1.0  0.96627  0.85254  0.10400  1.0000
  S   S823      1.0  0.91573  0.85016  0.10916  1.0000
  Fe  Fe412     1.0  0.94550  0.90331  0.09227  1.0000
  S   S824      1.0  0.97481  0.89294  0.09256  1.0000
  S   S825      1.0  0.93638  0.93352  0.08562  1.0000
  Fe  Fe413     1.0  0.97299  0.87236  0.07865  1.0000
  H   H4899     1.0  0.90336  0.67941  0.08268  1.0000
  Fe  Fe414     1.0  0.96538  0.87418  0.11799  1.0000
  N   N204      1.0  0.57234  0.97916  0.99693  1.0000
  S   S826      1.0  0.94425  0.88399  0.07655  1.0000
  S   S827      1.0  0.93623  0.88608  0.11895  1.0000
  Fe  Fe415     1.0  0.88523  0.74424  0.14049  1.0000
  S   S828      1.0  0.91483  0.73686  0.13943  1.0000
  S   S829      1.0  0.86508  0.75381  0.16392  1.0000
  Fe  Fe416     1.0  0.88890  0.73577  0.10391  1.0000
  S   S830      1.0  0.91888  0.72871  0.09985  1.0000
  S   S831      1.0  0.87816  0.73145  0.08174  1.0000
  Fe  Fe417     1.0  0.91407  0.71391  0.12815  1.0000
  H   H4900     1.0  0.57918  0.96361  0.03231  1.0000
  Fe  Fe418     1.0  0.91669  0.75254  0.11125  1.0000
  S   S832      1.0  0.93769  0.76951  0.10047  1.0000
  S   S833      1.0  0.88422  0.71964  0.13178  1.0000
  S   S834      1.0  0.88701  0.76130  0.11272  1.0000
  Fe  Fe419     1.0  0.93026  0.92631  0.21015  1.0000
  S   S835      1.0  0.90651  0.92624  0.19983  1.0000
  S   S836      1.0  0.95543  0.90527  0.20673  1.0000
  Fe  Fe420     1.0  0.90453  0.95604  0.19237  1.0000
  H   H4901     1.0  0.89199  0.71850  0.17256  1.0000
  H   H4902     1.0  0.92050  0.69506  0.17227  1.0000
  S   S837      1.0  0.92953  0.95576  0.20105  1.0000
  C   C2857     1.0  0.88614  0.80158  0.15795  1.0000
  N   N205      1.0  0.89933  0.80862  0.16375  1.0000
  H   H4903     1.0  0.88273  0.66662  0.05035  1.0000
  C   C2858     1.0  0.96015  0.69808  0.12437  1.0000
  H   H4904     1.0  0.84509  0.76940  0.19382  1.0000
  C   C2859     1.0  0.86993  0.89816  0.22212  1.0000
  H   H4905     1.0  0.95314  0.70784  0.13251  1.0000
  C   C2860     1.0  0.92187  0.82821  0.10527  1.0000
  C   C2861     1.0  0.90856  0.81831  0.10838  1.0000
  C   C2862     1.0  0.91323  0.80026  0.10698  1.0000
  C   C2863     1.0  0.93123  0.79214  0.10209  1.0000
  C   C2864     1.0  0.94450  0.80219  0.09843  1.0000
  C   C2865     1.0  0.93984  0.82015  0.10007  1.0000
  H   H4906     1.0  0.89461  0.82455  0.11213  1.0000
  H   H4907     1.0  0.90289  0.79268  0.10962  1.0000
  H   H4908     1.0  0.95843  0.79602  0.09454  1.0000
  H   H4909     1.0  0.95017  0.82768  0.09738  1.0000
  C   C2866     1.0  0.97171  0.87690  0.15957  1.0000
  H   H4910     1.0  0.57274  0.94678  0.02480  1.0000
  H   H4911     1.0  0.98052  0.72873  0.03518  1.0000
  C   C2867     1.0  0.96113  0.89458  0.18845  1.0000
  C   C2868     1.0  0.94872  0.89507  0.17834  1.0000
  C   C2869     1.0  0.95397  0.88600  0.16405  1.0000
  N   N206      1.0  0.97848  0.73544  0.06066  1.0000
  C   C2870     1.0  0.91365  0.70100  0.18414  1.0000
  H   H4912     1.0  0.93510  0.90226  0.18157  1.0000
  H   H4913     1.0  0.94433  0.88589  0.15657  1.0000
  C   C2871     1.0  0.91089  0.96022  0.03689  1.0000
  C   C2872     1.0  0.91221  0.94183  0.04379  1.0000
  C   C2873     1.0  0.91980  0.93352  0.05887  1.0000
  C   C2874     1.0  0.92633  0.94353  0.06700  1.0000
  C   C2875     1.0  0.92498  0.96194  0.06014  1.0000
  H   H4914     1.0  0.87226  0.66600  0.17682  1.0000
  H   H4915     1.0  0.90718  0.93401  0.03755  1.0000
  H   H4916     1.0  0.92047  0.91940  0.06425  1.0000
  H   H4917     1.0  0.56880  0.95565  0.98982  1.0000
  C   C2876     1.0  0.86829  0.88325  0.21666  1.0000
  H   H4918     1.0  0.91993  0.80659  0.13974  1.0000
  C   C2877     1.0  0.97075  0.71906  0.07038  1.0000
  H   H4919     1.0  0.88310  0.83533  0.16466  1.0000
  C   C2878     1.0  0.92292  0.78042  0.15669  1.0000
  C   C2879     1.0  0.86394  0.70436  0.18409  1.0000
  C   C2880     1.0  0.88142  0.76149  0.21254  1.0000
  C   C2881     1.0  0.86438  0.71567  0.08653  1.0000
  C   C2882     1.0  0.85540  0.70978  0.10396  1.0000
  C   C2883     1.0  0.84453  0.69720  0.10739  1.0000
  C   C2884     1.0  0.84285  0.69007  0.09354  1.0000
  H   H4920     1.0  0.85814  0.80302  0.15896  1.0000
  C   C2885     1.0  0.96378  0.93448  0.11997  1.0000
  H   H4921     1.0  0.85650  0.71522  0.11473  1.0000
  H   H4922     1.0  0.83742  0.69293  0.12087  1.0000
  H   H4923     1.0  0.91977  0.77359  0.17089  1.0000
  H   H4924     1.0  0.93016  0.96970  0.06629  1.0000
  H   H4925     1.0  0.95551  0.87908  0.02984  1.0000
  C   C2886     1.0  0.89186  0.66625  0.05909  1.0000
  H   H4926     1.0  0.89509  0.83245  0.14318  1.0000
  H   H4927     1.0  0.90308  0.67338  0.17578  1.0000
  H   H4928     1.0  0.89981  0.74590  0.17408  1.0000
  C   C2887     1.0  0.88965  0.75170  0.18418  1.0000
  H   H4929     1.0  0.58913  0.95282  0.99639  1.0000
  H   H4930     1.0  0.96822  0.91710  0.99373  1.0000
  H   H4931     1.0  0.97335  0.94351  0.11647  1.0000
  H   H4932     1.0  0.89171  0.97411  0.08579  1.0000
  H   H4933     1.0  0.90462  0.85734  0.20117  1.0000
  C   C2888     1.0  0.94655  0.93748  0.00274  1.0000
  C   C2889     1.0  0.87977  0.67466  0.16576  1.0000
  C   C2890     1.0  0.95685  0.71479  0.06231  1.0000
  H   H4934     1.0  0.98820  0.92332  0.04722  1.0000
  N   N207      1.0  0.88247  0.69425  0.18657  1.0000
  H   H4935     1.0  0.96405  0.66521  0.98187  1.0000
  H   H4936     1.0  0.94518  0.72600  0.06092  1.0000
  N   N208      1.0  0.94642  0.94142  0.13187  1.0000
  C   C2891     1.0  0.93409  0.92869  0.13481  1.0000
  H   H4937     1.0  0.83982  0.72185  0.19518  1.0000
  H   H4938     1.0  0.98534  0.66356  0.09460  1.0000
  C   C2892     1.0  0.94899  0.94199  0.14993  1.0000
  C   C2893     1.0  0.91461  0.93438  0.14474  1.0000
  S   S838      1.0  0.90186  0.97011  0.01762  1.0000
  H   H4939     1.0  0.95072  0.67314  0.00171  1.0000
  H   H4940     1.0  0.92419  0.88203  0.20996  1.0000
  H   H4941     1.0  0.93336  0.92612  0.12191  1.0000
  H   H4942     1.0  0.93933  0.91549  0.14262  1.0000
  H   H4943     1.0  0.94908  0.83474  0.20550  1.0000
  H   H4944     1.0  0.97714  0.91496  0.14060  1.0000
  C   C2894     1.0  0.97345  0.92725  0.04851  1.0000
  C   C2895     1.0  0.96220  0.95312  0.15037  1.0000
  H   H4945     1.0  0.92737  0.96661  0.13246  1.0000
  H   H4946     1.0  0.95273  0.92838  0.15801  1.0000
  H   H4947     1.0  0.90758  0.94728  0.13779  1.0000
  H   H4948     1.0  0.90698  0.92415  0.14537  1.0000
  H   H4949     1.0  0.91392  0.93499  0.15872  1.0000
  C   C2896     1.0  0.91690  0.87081  0.21459  1.0000
  H   H4950     1.0  0.91040  0.87785  0.18828  1.0000
  N   N209      1.0  0.97069  0.91810  0.02028  1.0000
  H   H4951     1.0  0.97535  0.94349  0.02193  1.0000
  C   C2897     1.0  0.98715  0.68554  0.10494  1.0000
  H   H4952     1.0  0.93653  0.92976  0.01150  1.0000
  H   H4953     1.0  0.91717  0.66489  0.10983  1.0000
  H   H4954     1.0  0.98667  0.75863  0.02468  1.0000
  H   H4955     1.0  0.96903  0.83830  0.20860  1.0000
  C   C2898     1.0  0.97808  0.69790  0.11577  1.0000
  H   H4956     1.0  0.85037  0.69075  0.06527  1.0000
  Fe  Fe421     1.0  0.89079  0.93122  0.22676  1.0000
  H   H4957     1.0  0.87294  0.97250  0.06583  1.0000
  C   C2899     1.0  0.89434  0.75346  0.19951  1.0000
  H   H4958     1.0  0.85363  0.77358  0.22031  1.0000
  C   C2900     1.0  0.95149  0.68537  0.12284  1.0000
  H   H4959     1.0  0.94008  0.89722  0.02024  1.0000
  H   H4960     1.0  0.96680  0.90530  0.12833  1.0000
  H   H4961     1.0  0.88183  0.67915  0.09588  1.0000
  C   C2901     1.0  0.87045  0.66818  0.21016  1.0000
  C   C2902     1.0  0.88572  0.65496  0.07772  1.0000
  C   C2903     1.0  0.96795  0.93289  0.03019  1.0000
  H   H4962     1.0  0.95305  0.75084  0.07176  1.0000
  H   H4963     1.0  0.87793  0.65566  0.20559  1.0000
  H   H4964     1.0  0.96410  0.77789  0.04157  1.0000
  N   N210      1.0  0.89683  0.65304  0.09122  1.0000
  H   H4965     1.0  0.87876  0.69002  0.21549  1.0000
  H   H4966     1.0  0.93610  0.94755  0.15816  1.0000
  H   H4967     1.0  0.89721  0.69273  0.15966  1.0000
  C   C2904     1.0  0.87184  0.75720  0.18217  1.0000
  H   H4968     1.0  0.92776  0.85845  0.19073  1.0000
  H   H4969     1.0  0.92163  0.83460  0.21813  1.0000
  H   H4970     1.0  0.97506  0.93619  0.99464  1.0000
  H   H4971     1.0  0.91147  0.80074  0.18718  1.0000
  H   H4972     1.0  0.90538  0.85226  0.15782  1.0000
  H   H4973     1.0  0.87438  0.97561  0.13201  1.0000
  H   H4974     1.0  0.88415  0.80799  0.20987  1.0000
  H   H4975     1.0  0.98713  0.91276  0.11814  1.0000
  H   H4976     1.0  0.95898  0.97445  0.11909  1.0000
  H   H4977     1.0  0.96125  0.93396  0.10692  1.0000
  S   S839      1.0  0.86526  0.84869  0.22173  1.0000
  C   C2905     1.0  0.93756  0.95954  0.12264  1.0000
  C   C2906     1.0  0.98243  0.74327  0.08906  1.0000
  H   H4978     1.0  0.96727  0.94775  0.16298  1.0000
  H   H4979     1.0  0.90307  0.87676  0.22076  1.0000
  H   H4980     1.0  0.93011  0.95805  0.11306  1.0000
  H   H4981     1.0  0.98487  0.70748  0.11734  1.0000
  H   H4982     1.0  0.97460  0.66801  0.99805  1.0000
  C   C2907     1.0  0.96599  0.92684  0.00229  1.0000
  H   H4983     1.0  0.94970  0.86677  0.22031  1.0000
  C   C2908     1.0  0.98898  0.73207  0.04257  1.0000
  C   C2909     1.0  0.86842  0.97449  0.12116  1.0000
  C   C2910     1.0  0.94984  0.97258  0.11157  1.0000
  H   H4984     1.0  0.95542  0.96733  0.15005  1.0000
  C   C2911     1.0  0.91503  0.86552  0.19781  1.0000
  C   C2912     1.0  0.91724  0.97029  0.04516  1.0000
  C   C2913     1.0  0.96283  0.66379  0.99641  1.0000
  H   H4985     1.0  0.85779  0.67290  0.20528  1.0000
  H   H4986     1.0  0.59742  0.97387  0.00585  1.0000
  H   H4987     1.0  0.94608  0.91226  0.03797  1.0000
  C   C2914     1.0  0.97862  0.88486  0.18433  1.0000
  H   H4988     1.0  0.90557  0.66047  0.05259  1.0000
  H   H4989     1.0  0.96286  0.89156  0.00825  1.0000
  H   H4990     1.0  0.97434  0.95216  0.13966  1.0000
  H   H4991     1.0  0.87154  0.66118  0.08263  1.0000
  H   H4992     1.0  0.88835  0.78679  0.16186  1.0000
  H   H4993     1.0  0.94443  0.95032  0.00699  1.0000
  C   C2915     1.0  0.91791  0.80096  0.15433  1.0000
  H   H4994     1.0  0.95359  0.93964  0.03291  1.0000
  C   C2916     1.0  0.86241  0.70881  0.07259  1.0000
  C   C2917     1.0  0.85890  0.76509  0.19528  1.0000
  H   H4995     1.0  0.86191  0.82283  0.16282  1.0000
  H   H4996     1.0  0.87809  0.96497  0.11347  1.0000
  H   H4997     1.0  0.96286  0.71049  0.04943  1.0000
  H   H4998     1.0  0.89606  0.67447  0.20582  1.0000
  H   H4999     1.0  0.96388  0.72005  0.08432  1.0000
  H   H5000     1.0  0.94551  0.97435  0.22613  1.0000
  C   C2918     1.0  0.91065  0.83763  0.15924  1.0000
  C   C2919     1.0  0.89613  0.82866  0.15751  1.0000
  H   H5001     1.0  0.88985  0.82743  0.19440  1.0000
  H   H5002     1.0  0.92833  0.80478  0.15893  1.0000
  C   C2920     1.0  0.85183  0.69592  0.07609  1.0000
  C   C2921     1.0  0.99029  0.90920  0.01783  1.0000
  H   H5003     1.0  0.86913  0.71348  0.05904  1.0000
  C   C2922     1.0  0.96812  0.77017  0.05429  1.0000
  C   C2923     1.0  0.89819  0.80270  0.18370  1.0000
  H   H5004     1.0  0.87039  0.68465  0.15799  1.0000
  S   S840      1.0  0.90433  0.97290  0.16482  1.0000
  H   H5005     1.0  0.96037  0.77794  0.06467  1.0000
  H   H5006     1.0  0.90809  0.74890  0.20113  1.0000
  H   H5007     1.0  0.91988  0.71247  0.18295  1.0000
  H   H5008     1.0  0.89473  0.66574  0.12347  1.0000
  C   C2924     1.0  0.97409  0.91583  0.12746  1.0000
  H   H5009     1.0  0.95610  0.75113  0.04881  1.0000
  H   H5010     1.0  0.86624  0.66504  0.22496  1.0000
  H   H5011     1.0  0.89103  0.68029  0.05966  1.0000
  H   H5012     1.0  0.94375  0.94098  0.98907  1.0000
  H   H5013     1.0  0.97730  0.75790  0.08665  1.0000
  H   H5014     1.0  0.89456  0.78938  0.18854  1.0000
  H   H5015     1.0  0.87143  0.91042  0.21245  1.0000
  H   H5016     1.0  0.86258  0.80232  0.17997  1.0000
  H   H5017     1.0  0.95616  0.85554  0.19450  1.0000
  C   C2925     1.0  0.89576  0.67130  0.09445  1.0000
  H   H5018     1.0  0.98242  0.77004  0.05291  1.0000
  S   S841      1.0  0.49053  0.96784  0.04647  1.0000
  C   C2926     1.0  0.57956  0.96281  0.98878  1.0000
  H   H5019     1.0  0.87128  0.81882  0.19325  1.0000
  S   S842      1.0  0.92911  0.68560  0.13381  1.0000
  H   H5020     1.0  0.91648  0.69134  0.19647  1.0000
  C   C2927     1.0  0.86615  0.80809  0.16551  1.0000
  H   H5021     1.0  0.91623  0.77568  0.14857  1.0000
  C   C2928     1.0  0.95910  0.90502  0.03129  1.0000
  H   H5022     1.0  0.93756  0.77630  0.15167  1.0000
  C   C2929     1.0  0.88505  0.81508  0.19569  1.0000
  H   H5023     1.0  0.85649  0.96834  0.12729  1.0000
  C   C2930     1.0  0.95520  0.84520  0.20700  1.0000
  H   H5024     1.0  0.98163  0.70691  0.07152  1.0000
  H   H5025     1.0  0.95150  0.70332  0.07163  1.0000
  C   C2931     1.0  0.89144  0.68383  0.17197  1.0000
  H   H5026     1.0  0.96549  0.89618  0.04230  1.0000
  C   C2932     1.0  0.95434  0.89283  0.02149  1.0000
  C   C2933     1.0  0.86707  0.98059  0.07633  1.0000
  C   C2934     1.0  0.85292  0.71472  0.19876  1.0000
  H   H5027     1.0  0.88866  0.66605  0.15653  1.0000
  C   C2935     1.0  0.98390  0.87615  0.16993  1.0000
  C   C2936     1.0  0.89334  0.70801  0.18488  1.0000
  H   H5028     1.0  0.98825  0.88424  0.19216  1.0000
  H   H5029     1.0  0.86694  0.97383  0.18196  1.0000
  S   S843      1.0  0.88612  0.96105  0.21814  1.0000
  H   H5030     1.0  0.88833  0.71507  0.19622  1.0000
  S   S844      1.0  0.97936  0.86628  0.14121  1.0000
  H   H5031     1.0  0.54836  0.96977  0.01247  1.0000
  C   C2937     1.0  0.96330  0.75147  0.05906  1.0000
  Fe  Fe422     1.0  0.83195  0.65323  0.08255  1.0000
  C   C2938     1.0  0.88232  0.68221  0.20475  1.0000
  C   C2939     1.0  0.86371  0.76747  0.21029  1.0000
  H   H5032     1.0  0.86863  0.88401  0.20273  1.0000
  C   C2940     1.0  0.96062  0.67280  0.11223  1.0000
  H   H5033     1.0  0.95390  0.66303  0.11093  1.0000
  H   H5034     1.0  0.90199  0.68578  0.11114  1.0000
  H   H5035     1.0  0.86652  0.66182  0.11686  1.0000
  C   C2941     1.0  0.97837  0.67310  0.10299  1.0000
  H   H5036     1.0  0.86475  0.71409  0.17105  1.0000
  H   H5037     1.0  0.92742  0.66021  0.00929  1.0000
  H   H5038     1.0  0.96698  0.91640  0.05748  1.0000
  H   H5039     1.0  0.85547  0.69553  0.18325  1.0000
  H   H5040     1.0  0.85005  0.70568  0.21195  1.0000
  H   H5041     1.0  0.86013  0.97197  0.08807  1.0000
  H   H5042     1.0  0.97136  0.73668  0.09727  1.0000
  C   C2942     1.0  0.55973  0.97445  0.01447  1.0000
  H   H5043     1.0  0.55761  0.95816  0.04127  1.0000
  C   C2943     1.0  0.56807  0.95989  0.02885  1.0000
  C   C2944     1.0  0.90289  0.67163  0.11071  1.0000
  C   C2945     1.0  0.94556  0.85371  0.22330  1.0000
  H   H5044     1.0  0.94112  0.65228  0.98118  1.0000
  H   H5045     1.0  0.92276  0.65484  0.07361  1.0000
  Fe  Fe423     1.0  0.91131  0.95873  0.22745  1.0000
  H   H5046     1.0  0.54847  0.97618  0.97812  1.0000
  Fe  Fe424     1.0  0.71799  0.74700  0.34285  1.0000
  S   S845      1.0  0.72776  0.76710  0.31911  1.0000
  S   S846      1.0  0.72241  0.74557  0.37018  1.0000
  Fe  Fe425     1.0  0.70430  0.72883  0.32102  1.0000
  S   S847      1.0  0.71319  0.74727  0.29528  1.0000
  C   C2946     1.0  0.51116  0.80404  0.35714  1.0000
  Fe  Fe426     1.0  0.73831  0.74408  0.30521  1.0000
  S   S848      1.0  0.76510  0.74113  0.28598  1.0000
  Fe  Fe427     1.0  0.70209  0.76884  0.31114  1.0000
  S   S849      1.0  0.68806  0.79538  0.29769  1.0000
  S   S850      1.0  0.73053  0.72354  0.32963  1.0000
  S   S851      1.0  0.69107  0.75079  0.33625  1.0000
  Fe  Fe428     1.0  0.61393  0.83088  0.36658  1.0000
  S   S852      1.0  0.62301  0.80452  0.38359  1.0000
  S   S853      1.0  0.63419  0.84549  0.34693  1.0000
  Fe  Fe429     1.0  0.57458  0.83113  0.38316  1.0000
  S   S854      1.0  0.58080  0.80481  0.40230  1.0000
  S   S855      1.0  0.54570  0.84599  0.38358  1.0000
  Fe  Fe430     1.0  0.60311  0.81554  0.40598  1.0000
  S   S856      1.0  0.61532  0.80975  0.43028  1.0000
  Fe  Fe431     1.0  0.60017  0.79630  0.37827  1.0000
  S   S857      1.0  0.60495  0.77005  0.36996  1.0000
  S   S858      1.0  0.59526  0.84267  0.38915  1.0000
  S   S859      1.0  0.59278  0.82180  0.35896  1.0000
  C   C2947     1.0  0.96343  0.88346  0.39826  1.0000
  H   H5047     1.0  0.74747  0.79182  0.29527  1.0000
  S   S860      1.0  0.66514  0.89290  0.44502  1.0000
  H   H5048     1.0  0.74692  0.78781  0.26678  1.0000
  H   H5049     1.0  0.55122  0.67892  0.30154  1.0000
  H   H5050     1.0  0.74489  0.73831  0.25761  1.0000
  C   C2948     1.0  0.76903  0.68625  0.26840  1.0000
  H   H5051     1.0  0.92272  0.91898  0.42714  1.0000
  H   H5052     1.0  0.49448  0.90130  0.42401  1.0000
  S   S861      1.0  0.88483  0.80459  0.25019  1.0000
  H   H5053     1.0  0.63480  0.71851  0.31914  1.0000
  Fe  Fe432     1.0  0.83481  0.80149  0.26785  1.0000
  S   S862      1.0  0.85728  0.77947  0.27611  1.0000
  S   S863      1.0  0.80626  0.80102  0.28278  1.0000
  Fe  Fe433     1.0  0.86915  0.80155  0.27838  1.0000
  S   S864      1.0  0.87838  0.79871  0.30391  1.0000
  Fe  Fe434     1.0  0.87066  0.78468  0.24700  1.0000
  C   C2949     1.0  0.63434  0.65875  0.32006  1.0000
  S   S865      1.0  0.84593  0.82334  0.27181  1.0000
  H   H5054     1.0  0.56693  0.67191  0.24594  1.0000
  Fe  Fe435     1.0  0.90857  0.86392  0.34268  1.0000
  S   S866      1.0  0.88646  0.88735  0.34788  1.0000
  S   S867      1.0  0.91275  0.85821  0.31511  1.0000
  Fe  Fe436     1.0  0.91984  0.85990  0.37799  1.0000
  S   S868      1.0  0.89857  0.88311  0.38564  1.0000
  S   S869      1.0  0.94031  0.84421  0.39482  1.0000
  Fe  Fe437     1.0  0.88078  0.87151  0.37574  1.0000
  S   S870      1.0  0.85231  0.87234  0.39074  1.0000
  Fe  Fe438     1.0  0.90627  0.89684  0.35706  1.0000
  S   S871      1.0  0.90600  0.92639  0.34864  1.0000
  S   S872      1.0  0.90139  0.84704  0.37010  1.0000
  S   S873      1.0  0.92903  0.87461  0.34990  1.0000
  H   H5055     1.0  0.82116  0.76736  0.36132  1.0000
  C   C2950     1.0  0.73969  0.80091  0.27025  1.0000
  Fe  Fe439     1.0  0.74640  0.81649  0.40463  1.0000
  S   S874      1.0  0.75962  0.84022  0.39474  1.0000
  S   S875      1.0  0.72519  0.81701  0.38992  1.0000
  Fe  Fe440     1.0  0.76799  0.79999  0.43391  1.0000
  S   S876      1.0  0.78313  0.82205  0.42581  1.0000
  H   H5056     1.0  0.89974  0.92152  0.31262  1.0000
  Fe  Fe441     1.0  0.75646  0.83992  0.42375  1.0000
  S   S877      1.0  0.74846  0.86355  0.43682  1.0000
  Fe  Fe442     1.0  0.78489  0.81998  0.39780  1.0000
  S   S878      1.0  0.81066  0.82041  0.37746  1.0000
  S   S879      1.0  0.74096  0.81800  0.43359  1.0000
  S   S880      1.0  0.77208  0.79607  0.40579  1.0000
  Fe  Fe443     1.0  0.53307  0.73626  0.34775  1.0000
  S   S881      1.0  0.53472  0.75040  0.31919  1.0000
  S   S882      1.0  0.53220  0.75184  0.36803  1.0000
  Fe  Fe444     1.0  0.52518  0.70312  0.34094  1.0000
  S   S883      1.0  0.52524  0.71494  0.31194  1.0000
  Fe  Fe445     1.0  0.54975  0.72392  0.31278  1.0000
  S   S884      1.0  0.57386  0.72182  0.29038  1.0000
  Fe  Fe446     1.0  0.51021  0.74025  0.32122  1.0000
  H   H5057     1.0  0.60593  0.72224  0.33019  1.0000
  S   S885      1.0  0.55065  0.71062  0.34133  1.0000
  S   S886      1.0  0.50766  0.72743  0.35021  1.0000
  H   H5058     1.0  0.97334  0.91882  0.37621  1.0000
  H   H5059     1.0  0.75640  0.83582  0.27191  1.0000
  H   H5060     1.0  0.51439  0.92235  0.37590  1.0000
  S   S887      1.0  0.68980  0.70641  0.32475  1.0000
  H   H5061     1.0  0.73591  0.66202  0.26651  1.0000
  H   H5062     1.0  0.65421  0.70170  0.31806  1.0000
  H   H5063     1.0  0.53942  0.65092  0.26741  1.0000
  C   C2951     1.0  0.91924  0.86218  0.24597  1.0000
  Fe  Fe447     1.0  0.64859  0.88761  0.47288  1.0000
  H   H5064     1.0  0.68731  0.67136  0.32343  1.0000
  H   H5065     1.0  0.93353  0.80518  0.46001  1.0000
  H   H5066     1.0  0.83768  0.85755  0.44455  1.0000
  H   H5067     1.0  0.54536  0.83877  0.32368  1.0000
  H   H5068     1.0  0.76865  0.81491  0.46327  1.0000
  C   C2952     1.0  0.59847  0.69565  0.27548  1.0000
  C   C2953     1.0  0.58526  0.69971  0.29032  1.0000
  H   H5069     1.0  0.83786  0.75227  0.31395  1.0000
  H   H5070     1.0  0.51783  0.81463  0.37675  1.0000
  H   H5071     1.0  0.60148  0.70616  0.26402  1.0000
  H   H5072     1.0  0.49464  0.86077  0.35400  1.0000
  C   C2954     1.0  0.93854  0.84707  0.41666  1.0000
  C   C2955     1.0  0.58140  0.68608  0.30506  1.0000
  H   H5073     1.0  0.67660  0.77933  0.36684  1.0000
  C   C2956     1.0  0.60782  0.67798  0.27542  1.0000
  C   C2957     1.0  0.92331  0.86114  0.44192  1.0000
  C   C2958     1.0  0.92389  0.85851  0.42486  1.0000
  H   H5074     1.0  0.63535  0.66114  0.30545  1.0000
  S   S888      1.0  0.77407  0.77897  0.45812  1.0000
  H   H5075     1.0  0.91305  0.86537  0.41805  1.0000
  C   C2959     1.0  0.92577  0.93419  0.34543  1.0000
  C   C2960     1.0  0.92474  0.95260  0.34260  1.0000
  H   H5076     1.0  0.81976  0.77069  0.31140  1.0000
  H   H5077     1.0  0.91189  0.96171  0.34256  1.0000
  H   H5078     1.0  0.94330  0.90826  0.34754  1.0000
  C   C2961     1.0  0.84086  0.85843  0.38598  1.0000
  C   C2962     1.0  0.84974  0.84590  0.37530  1.0000
  C   C2963     1.0  0.84035  0.83439  0.37242  1.0000
  C   C2964     1.0  0.82216  0.83532  0.38036  1.0000
  C   C2965     1.0  0.81326  0.84807  0.39072  1.0000
  C   C2966     1.0  0.82257  0.85964  0.39346  1.0000
  H   H5079     1.0  0.86385  0.84493  0.36945  1.0000
  H   H5080     1.0  0.84727  0.82456  0.36434  1.0000
  H   H5081     1.0  0.79912  0.84913  0.39653  1.0000
  H   H5082     1.0  0.81557  0.86954  0.40145  1.0000
  C   C2967     1.0  0.82674  0.82705  0.46815  1.0000
  H   H5083     1.0  0.91425  0.83033  0.47512  1.0000
  H   H5084     1.0  0.92157  0.89485  0.31328  1.0000
  H   H5085     1.0  0.74147  0.81105  0.25769  1.0000
  H   H5086     1.0  0.52285  0.79268  0.35836  1.0000
  C   C2968     1.0  0.77835  0.68987  0.28163  1.0000
  C   C2969     1.0  0.88736  0.81571  0.30688  1.0000
  C   C2970     1.0  0.89294  0.82898  0.29248  1.0000
  C   C2971     1.0  0.90073  0.84190  0.29522  1.0000
  C   C2972     1.0  0.90268  0.84186  0.31236  1.0000
  C   C2973     1.0  0.89649  0.82901  0.32685  1.0000
  C   C2974     1.0  0.88904  0.81585  0.32407  1.0000
  H   H5087     1.0  0.89144  0.82910  0.27924  1.0000
  H   H5088     1.0  0.90512  0.85209  0.28412  1.0000
  H   H5089     1.0  0.89789  0.82890  0.34012  1.0000
  H   H5090     1.0  0.88474  0.80564  0.33526  1.0000
  N   N211      1.0  0.92540  0.85629  0.22827  1.0000
  H   H5091     1.0  0.80461  0.86007  0.46041  1.0000
  C   C2975     1.0  0.86722  0.88140  0.25265  1.0000
  H   H5092     1.0  0.56469  0.96235  0.47610  1.0000
  H   H5093     1.0  0.69544  0.70660  0.26140  1.0000
  H   H5094     1.0  0.96709  0.91221  0.41066  1.0000
  H   H5095     1.0  0.86458  0.85409  0.25676  1.0000
  H   H5096     1.0  0.86694  0.88064  0.26654  1.0000
  C   C2976     1.0  0.93228  0.90753  0.42189  1.0000
  H   H5097     1.0  0.91708  0.88341  0.25969  1.0000
  C   C2977     1.0  0.68823  0.88466  0.44311  1.0000
  C   C2978     1.0  0.69822  0.89151  0.45100  1.0000
  C   C2979     1.0  0.71685  0.88534  0.44868  1.0000
  C   C2980     1.0  0.72543  0.87217  0.43864  1.0000
  C   C2981     1.0  0.71542  0.86540  0.43070  1.0000
  C   C2982     1.0  0.69686  0.87169  0.43287  1.0000
  H   H5098     1.0  0.90892  0.79825  0.45502  1.0000
  H   H5099     1.0  0.65263  0.68270  0.28889  1.0000
  H   H5100     1.0  0.72199  0.85542  0.42273  1.0000
  H   H5101     1.0  0.68923  0.86643  0.42665  1.0000
  H   H5102     1.0  0.77547  0.69222  0.25463  1.0000
  C   C2983     1.0  0.53744  0.84307  0.33576  1.0000
  C   C2984     1.0  0.54571  0.84156  0.34997  1.0000
  C   C2985     1.0  0.53564  0.84701  0.36568  1.0000
  C   C2986     1.0  0.51714  0.85373  0.36711  1.0000
  C   C2987     1.0  0.50889  0.85556  0.35276  1.0000
  H   H5103     1.0  0.55989  0.83634  0.34864  1.0000
  N   N212      1.0  0.49653  0.79857  0.35193  1.0000
  C   C2988     1.0  0.64652  0.76567  0.43881  1.0000
  C   C2989     1.0  0.60887  0.82548  0.44411  1.0000
  C   C2990     1.0  0.61853  0.82354  0.45732  1.0000
  H   H5104     1.0  0.77327  0.67165  0.26884  1.0000
  C   C2991     1.0  0.85917  0.82303  0.42284  1.0000
  C   C2992     1.0  0.58945  0.85207  0.45352  1.0000
  C   C2993     1.0  0.59441  0.83986  0.44211  1.0000
  H   H5105     1.0  0.62968  0.81240  0.45897  1.0000
  H   H5106     1.0  0.85990  0.83207  0.44577  1.0000
  C   C2994     1.0  0.93823  0.80197  0.47266  1.0000
  H   H5107     1.0  0.58685  0.84139  0.43201  1.0000
  C   C2995     1.0  0.58476  0.76517  0.36904  1.0000
  C   C2996     1.0  0.56838  0.77492  0.37661  1.0000
  C   C2997     1.0  0.55230  0.77064  0.37636  1.0000
  C   C2998     1.0  0.55252  0.75706  0.36791  1.0000
  C   C2999     1.0  0.56886  0.74765  0.35981  1.0000
  C   C3000     1.0  0.58501  0.75146  0.36068  1.0000
  H   H5108     1.0  0.56805  0.78553  0.38302  1.0000
  H   H5109     1.0  0.53970  0.77785  0.38278  1.0000
  H   H5110     1.0  0.56895  0.73719  0.35331  1.0000
  H   H5111     1.0  0.59765  0.74375  0.35498  1.0000
  C   C3001     1.0  0.77834  0.75608  0.28586  1.0000
  C   C3002     1.0  0.79118  0.76099  0.27056  1.0000
  C   C3003     1.0  0.80068  0.77411  0.26976  1.0000
  C   C3004     1.0  0.79727  0.78237  0.28427  1.0000
  C   C3005     1.0  0.78509  0.77682  0.29984  1.0000
  C   C3006     1.0  0.77576  0.76362  0.30070  1.0000
  H   H5112     1.0  0.79339  0.75507  0.25909  1.0000
  H   H5113     1.0  0.81007  0.77833  0.25768  1.0000
  H   H5114     1.0  0.78269  0.78293  0.31119  1.0000
  H   H5115     1.0  0.76644  0.75942  0.31280  1.0000
  C   C3007     1.0  0.69322  0.70678  0.28910  1.0000
  H   H5116     1.0  0.95440  0.88718  0.43241  1.0000
  C   C3008     1.0  0.67459  0.80948  0.31197  1.0000
  C   C3009     1.0  0.67001  0.80306  0.33038  1.0000
  C   C3010     1.0  0.65768  0.81409  0.34129  1.0000
  C   C3011     1.0  0.65039  0.83172  0.33383  1.0000
  C   C3012     1.0  0.65575  0.83837  0.31555  1.0000
  C   C3013     1.0  0.66759  0.82718  0.30459  1.0000
  H   H5117     1.0  0.67554  0.78945  0.33610  1.0000
  H   H5118     1.0  0.65387  0.80899  0.35544  1.0000
  H   H5119     1.0  0.65018  0.85200  0.30976  1.0000
  H   H5120     1.0  0.67111  0.83220  0.29034  1.0000
  C   C3014     1.0  0.72621  0.79718  0.38329  1.0000
  C   C3015     1.0  0.73416  0.78064  0.39241  1.0000
  C   C3016     1.0  0.73336  0.76483  0.38796  1.0000
  C   C3017     1.0  0.72492  0.76553  0.37416  1.0000
  C   C3018     1.0  0.71751  0.78211  0.36461  1.0000
  C   C3019     1.0  0.71795  0.79790  0.36934  1.0000
  H   H5121     1.0  0.74040  0.77998  0.40329  1.0000
  H   H5122     1.0  0.73905  0.75202  0.39541  1.0000
  H   H5123     1.0  0.71083  0.78273  0.35407  1.0000
  H   H5124     1.0  0.71166  0.81069  0.36236  1.0000
  H   H5125     1.0  0.97080  0.92019  0.34284  1.0000
  H   H5126     1.0  0.51931  0.87882  0.42454  1.0000
  H   H5127     1.0  0.92653  0.85284  0.25613  1.0000
  H   H5128     1.0  0.75093  0.79186  0.32159  1.0000
  C   C3020     1.0  0.50532  0.78980  0.33615  1.0000
  H   H5129     1.0  0.64370  0.77636  0.44644  1.0000
  N   N213      1.0  0.74890  0.69180  0.27151  1.0000
  H   H5130     1.0  0.50412  0.92565  0.41518  1.0000
  H   H5131     1.0  0.68492  0.75308  0.41316  1.0000
  H   H5132     1.0  0.70844  0.80855  0.47344  1.0000
  H   H5133     1.0  0.67850  0.76586  0.44541  1.0000
  C   C3021     1.0  0.51913  0.88946  0.39598  1.0000
  H   H5134     1.0  0.65421  0.76045  0.41262  1.0000
  Fe  Fe448     1.0  0.67901  0.64977  0.26168  1.0000
  C   C3022     1.0  0.73803  0.68640  0.30619  1.0000
  S   S889      1.0  0.93618  0.85676  0.47200  1.0000
  C   C3023     1.0  0.95793  0.92925  0.34283  1.0000
  C   C3024     1.0  0.53799  0.68391  0.27085  1.0000
  H   H5135     1.0  0.49694  0.89417  0.35514  1.0000
  H   H5136     1.0  0.63365  0.76127  0.44126  1.0000
  H   H5137     1.0  0.69502  0.74750  0.43877  1.0000
  N   N214      1.0  0.83221  0.83114  0.44807  1.0000
  C   C3025     1.0  0.81625  0.80120  0.32415  1.0000
  C   C3026     1.0  0.80555  0.81836  0.33079  1.0000
  H   H5138     1.0  0.83149  0.80716  0.34862  1.0000
  H   H5139     1.0  0.80664  0.79583  0.32011  1.0000
  H   H5140     1.0  0.82568  0.80533  0.31141  1.0000
  H   H5141     1.0  0.81085  0.78962  0.36360  1.0000
  H   H5142     1.0  0.81455  0.82721  0.33044  1.0000
  H   H5143     1.0  0.79629  0.82599  0.32172  1.0000
  H   H5144     1.0  0.79740  0.81548  0.34448  1.0000
  H   H5145     1.0  0.78499  0.78908  0.35614  1.0000
  N   N215      1.0  0.84632  0.87590  0.31966  1.0000
  C   C3027     1.0  0.86546  0.87708  0.31049  1.0000
  C   C3028     1.0  0.84569  0.85626  0.32467  1.0000
  C   C3029     1.0  0.84245  0.88314  0.33645  1.0000
  C   C3030     1.0  0.83409  0.88669  0.30716  1.0000
  C   C3031     1.0  0.86936  0.89595  0.30208  1.0000
  C   C3032     1.0  0.84617  0.84753  0.30913  1.0000
  C   C3033     1.0  0.82334  0.88434  0.34795  1.0000
  C   C3034     1.0  0.81467  0.88357  0.31189  1.0000
  H   H5146     1.0  0.87457  0.87053  0.32001  1.0000
  H   H5147     1.0  0.87028  0.86974  0.29942  1.0000
  H   H5148     1.0  0.83370  0.85343  0.33496  1.0000
  H   H5149     1.0  0.85707  0.84845  0.33122  1.0000
  H   H5150     1.0  0.85183  0.87502  0.34531  1.0000
  H   H5151     1.0  0.84485  0.89693  0.33334  1.0000
  H   H5152     1.0  0.83312  0.90123  0.30598  1.0000
  H   H5153     1.0  0.84002  0.88427  0.29337  1.0000
  H   H5154     1.0  0.88393  0.89457  0.29614  1.0000
  H   H5155     1.0  0.86226  0.90282  0.29098  1.0000
  H   H5156     1.0  0.86642  0.90448  0.31200  1.0000
  H   H5157     1.0  0.85717  0.85007  0.29751  1.0000
  H   H5158     1.0  0.84824  0.83283  0.31394  1.0000
  H   H5159     1.0  0.83335  0.85178  0.30449  1.0000
  H   H5160     1.0  0.82312  0.88858  0.36035  1.0000
  H   H5161     1.0  0.81891  0.87143  0.35233  1.0000
  H   H5162     1.0  0.81351  0.89477  0.34121  1.0000
  H   H5163     1.0  0.80496  0.89608  0.31428  1.0000
  H   H5164     1.0  0.81180  0.87290  0.32371  1.0000
  H   H5165     1.0  0.81167  0.88002  0.30042  1.0000
  N   N216      1.0  0.63125  0.77977  0.31479  1.0000
  C   C3035     1.0  0.64119  0.77397  0.32993  1.0000
  C   C3036     1.0  0.63323  0.79859  0.30548  1.0000
  C   C3037     1.0  0.63875  0.76776  0.30150  1.0000
  C   C3038     1.0  0.61186  0.77882  0.32241  1.0000
  C   C3039     1.0  0.64364  0.75396  0.33904  1.0000
  C   C3040     1.0  0.62263  0.81332  0.31591  1.0000
  C   C3041     1.0  0.65891  0.76634  0.29311  1.0000
  C   C3042     1.0  0.59933  0.78465  0.30892  1.0000
  H   H5166     1.0  0.65479  0.77711  0.32539  1.0000
  H   H5167     1.0  0.63434  0.78161  0.34066  1.0000
  H   H5168     1.0  0.62951  0.80230  0.29219  1.0000
  H   H5169     1.0  0.64751  0.79972  0.30238  1.0000
  H   H5170     1.0  0.63636  0.75401  0.30760  1.0000
  H   H5171     1.0  0.63162  0.77244  0.29018  1.0000
  H   H5172     1.0  0.61056  0.76493  0.32916  1.0000
  H   H5173     1.0  0.60596  0.78639  0.33334  1.0000
  H   H5174     1.0  0.60796  0.81511  0.31726  1.0000
  H   H5175     1.0  0.62583  0.81069  0.32929  1.0000
  H   H5176     1.0  0.62630  0.82627  0.30846  1.0000
  H   H5177     1.0  0.66307  0.75666  0.28412  1.0000
  H   H5178     1.0  0.66746  0.76142  0.30320  1.0000
  H   H5179     1.0  0.66181  0.77932  0.28483  1.0000
  H   H5180     1.0  0.59875  0.77308  0.30374  1.0000
  H   H5181     1.0  0.60321  0.79531  0.29748  1.0000
  H   H5182     1.0  0.58561  0.79034  0.31570  1.0000
  H   H5183     1.0  0.92217  0.82551  0.25823  1.0000
  H   H5184     1.0  0.85862  0.79264  0.35765  1.0000
  H   H5185     1.0  0.72642  0.68019  0.28779  1.0000
  C   C3043     1.0  0.85205  0.78412  0.35329  1.0000
  H   H5186     1.0  0.91384  0.91303  0.38564  1.0000
  H   H5187     1.0  0.73255  0.67627  0.31745  1.0000
  H   H5188     1.0  0.72811  0.69912  0.30679  1.0000
  C   C3044     1.0  0.70872  0.83296  0.31256  1.0000
  C   C3045     1.0  0.69372  0.69887  0.27494  1.0000
  C   C3046     1.0  0.51908  0.85027  0.33701  1.0000
  C   C3047     1.0  0.92900  0.92840  0.39364  1.0000
  C   C3048     1.0  0.91136  0.92353  0.39340  1.0000
  H   H5189     1.0  0.65618  0.75384  0.44410  1.0000
  H   H5190     1.0  0.71672  0.84067  0.31599  1.0000
  H   H5191     1.0  0.86296  0.77533  0.34563  1.0000
  C   C3049     1.0  0.82127  0.82282  0.44072  1.0000
  H   H5192     1.0  0.92390  0.89800  0.42225  1.0000
  C   C3050     1.0  0.59063  0.66843  0.30497  1.0000
  C   C3051     1.0  0.65255  0.77221  0.41857  1.0000
  H   H5193     1.0  0.80877  0.87570  0.43986  1.0000
  H   H5194     1.0  0.81943  0.75412  0.33230  1.0000
  H   H5195     1.0  0.69772  0.76993  0.40635  1.0000
  C   C3052     1.0  0.94792  0.89869  0.39295  1.0000
  H   H5196     1.0  0.53741  0.68178  0.25767  1.0000
  H   H5197     1.0  0.90343  0.91942  0.40697  1.0000
  C   C3053     1.0  0.96827  0.92899  0.38465  1.0000
  H   H5198     1.0  0.84710  0.80284  0.32914  1.0000
  H   H5199     1.0  0.51812  0.87587  0.39528  1.0000
  C   C3054     1.0  0.86939  0.89723  0.24012  1.0000
  H   H5200     1.0  0.92200  0.81130  0.24418  1.0000
  C   C3055     1.0  0.75038  0.72445  0.25543  1.0000
  H   H5201     1.0  0.66437  0.79216  0.43548  1.0000
  C   C3056     1.0  0.94240  0.92248  0.34549  1.0000
  C   C3057     1.0  0.68561  0.76599  0.41587  1.0000
  H   H5202     1.0  0.68825  0.65740  0.29833  1.0000
  H   H5203     1.0  0.65281  0.74529  0.33008  1.0000
  H   H5204     1.0  0.71215  0.82370  0.28832  1.0000
  H   H5205     1.0  0.64562  0.68951  0.35146  1.0000
  H   H5206     1.0  0.73138  0.80697  0.33052  1.0000
  C   C3058     1.0  0.69193  0.68104  0.27819  1.0000
  N   N217      1.0  0.73897  0.82052  0.29241  1.0000
  C   C3059     1.0  0.59906  0.71098  0.33303  1.0000
  H   H5207     1.0  0.52440  0.92792  0.39850  1.0000
  H   H5208     1.0  0.76360  0.81787  0.30114  1.0000
  H   H5209     1.0  0.96980  0.87664  0.38686  1.0000
  C   C3060     1.0  0.59917  0.85020  0.46669  1.0000
  C   C3061     1.0  0.60390  0.66437  0.29019  1.0000
  H   H5210     1.0  0.80674  0.82758  0.44581  1.0000
  H   H5211     1.0  0.72459  0.89072  0.45470  1.0000
  C   C3062     1.0  0.74244  0.71140  0.27193  1.0000
  H   H5212     1.0  0.74760  0.66638  0.29011  1.0000
  H   H5213     1.0  0.54852  0.70292  0.27968  1.0000
  H   H5214     1.0  0.56045  0.69803  0.25821  1.0000
  H   H5215     1.0  0.71750  0.80665  0.30660  1.0000
  C   C3063     1.0  0.95195  0.84087  0.44281  1.0000
  S   S890      1.0  0.69425  0.67118  0.25994  1.0000
  H   H5216     1.0  0.75290  0.80716  0.33355  1.0000
  H   H5217     1.0  0.95217  0.95919  0.28189  1.0000
  H   H5218     1.0  0.69161  0.90175  0.45869  1.0000
  H   H5219     1.0  0.96050  0.94124  0.37744  1.0000
  H   H5220     1.0  0.84515  0.77609  0.36554  1.0000
  C   C3064     1.0  0.74489  0.66899  0.25512  1.0000
  H   H5221     1.0  0.72760  0.71510  0.27360  1.0000
  H   H5222     1.0  0.51605  0.77816  0.33984  1.0000
  H   H5223     1.0  0.51129  0.66624  0.29419  1.0000
  H   H5224     1.0  0.70222  0.82508  0.32526  1.0000
  N   N218      1.0  0.64746  0.86796  0.40378  1.0000
  C   C3065     1.0  0.66699  0.86502  0.39454  1.0000
  C   C3066     1.0  0.64210  0.85002  0.40897  1.0000
  C   C3067     1.0  0.64582  0.87513  0.42021  1.0000
  C   C3068     1.0  0.63685  0.88132  0.39099  1.0000
  C   C3069     1.0  0.67590  0.88138  0.38975  1.0000
  C   C3070     1.0  0.64279  0.84145  0.39331  1.0000
  C   C3071     1.0  0.62966  0.87222  0.43558  1.0000
  C   C3072     1.0  0.61624  0.88465  0.39674  1.0000
  H   H5225     1.0  0.67515  0.85405  0.40294  1.0000
  H   H5226     1.0  0.66894  0.86068  0.38175  1.0000
  H   H5227     1.0  0.62833  0.85059  0.41712  1.0000
  H   H5228     1.0  0.65068  0.84035  0.41787  1.0000
  H   H5229     1.0  0.65773  0.86882  0.42641  1.0000
  H   H5230     1.0  0.64564  0.88974  0.41669  1.0000
  H   H5231     1.0  0.64030  0.89466  0.38843  1.0000
  H   H5232     1.0  0.64068  0.87801  0.37747  1.0000
  H   H5233     1.0  0.69033  0.87724  0.38380  1.0000
  H   H5234     1.0  0.67002  0.89225  0.37963  1.0000
  H   H5235     1.0  0.67537  0.88665  0.40161  1.0000
  H   H5236     1.0  0.65665  0.83736  0.38594  1.0000
  H   H5237     1.0  0.63722  0.82916  0.39868  1.0000
  H   H5238     1.0  0.63439  0.85028  0.38392  1.0000
  H   H5239     1.0  0.61667  0.87639  0.43133  1.0000
  H   H5240     1.0  0.62894  0.88011  0.44558  1.0000
  H   H5241     1.0  0.63155  0.85804  0.44257  1.0000
  H   H5242     1.0  0.61116  0.89523  0.40475  1.0000
  H   H5243     1.0  0.61093  0.87259  0.40418  1.0000
  H   H5244     1.0  0.61034  0.88904  0.38461  1.0000
  C   C3073     1.0  0.94022  0.95934  0.33994  1.0000
  H   H5245     1.0  0.93960  0.96595  0.30193  1.0000
  C   C3074     1.0  0.51805  0.65328  0.29043  1.0000
  H   H5246     1.0  0.84776  0.77767  0.31647  1.0000
  C   C3075     1.0  0.89663  0.93110  0.30034  1.0000
  H   H5247     1.0  0.95848  0.87343  0.40988  1.0000
  H   H5248     1.0  0.51757  0.89036  0.36216  1.0000
  H   H5249     1.0  0.82038  0.79737  0.43546  1.0000
  H   H5250     1.0  0.74830  0.84151  0.47664  1.0000
  S   S891      1.0  0.88800  0.76403  0.23124  1.0000
  H   H5251     1.0  0.72539  0.80002  0.27508  1.0000
  H   H5252     1.0  0.84543  0.76214  0.33723  1.0000
  H   H5253     1.0  0.79202  0.69201  0.27464  1.0000
  C   C3076     1.0  0.74569  0.80562  0.32388  1.0000
  H   H5254     1.0  0.63079  0.74940  0.34430  1.0000
  C   C3077     1.0  0.74299  0.68869  0.25603  1.0000
  N   N219      1.0  0.94200  0.91373  0.40299  1.0000
  C   C3078     1.0  0.73366  0.85510  0.28180  1.0000
  H   H5255     1.0  0.90475  0.86195  0.25139  1.0000
  C   C3079     1.0  0.78057  0.78765  0.47332  1.0000
  C   C3080     1.0  0.95687  0.94772  0.33996  1.0000
  C   C3081     1.0  0.67130  0.78705  0.39242  1.0000
  C   C3082     1.0  0.66655  0.79587  0.42075  1.0000
  C   C3083     1.0  0.67226  0.77341  0.38116  1.0000
  C   C3084     1.0  0.68195  0.80623  0.41447  1.0000
  H   H5256     1.0  0.66018  0.79854  0.38934  1.0000
  H   H5257     1.0  0.68375  0.79239  0.38687  1.0000
  H   H5258     1.0  0.76514  0.72233  0.25351  1.0000
  H   H5259     1.0  0.65406  0.80558  0.41814  1.0000
  H   H5260     1.0  0.64097  0.78211  0.41390  1.0000
  H   H5261     1.0  0.65893  0.77032  0.38267  1.0000
  H   H5262     1.0  0.68210  0.81439  0.40075  1.0000
  H   H5263     1.0  0.68000  0.81566  0.42337  1.0000
  H   H5264     1.0  0.69524  0.79729  0.41495  1.0000
  N   N220      1.0  0.63000  0.69192  0.32184  1.0000
  H   H5265     1.0  0.49937  0.77638  0.37446  1.0000
  C   C3085     1.0  0.62742  0.69761  0.30287  1.0000
  H   H5266     1.0  0.71882  0.85784  0.28457  1.0000
  C   C3086     1.0  0.61183  0.69249  0.33408  1.0000
  H   H5267     1.0  0.93502  0.89327  0.44876  1.0000
  C   C3087     1.0  0.64471  0.69653  0.28828  1.0000
  H   H5268     1.0  0.95189  0.84599  0.23479  1.0000
  H   H5269     1.0  0.62053  0.65744  0.32715  1.0000
  C   C3088     1.0  0.54709  0.69997  0.26725  1.0000
  H   H5270     1.0  0.85019  0.83169  0.47538  1.0000
  H   H5271     1.0  0.61978  0.71164  0.30024  1.0000
  H   H5272     1.0  0.61903  0.68955  0.30050  1.0000
  C   C3089     1.0  0.92676  0.82328  0.24436  1.0000
  H   H5273     1.0  0.95852  0.91793  0.24905  1.0000
  H   H5274     1.0  0.60445  0.68375  0.33107  1.0000
  C   C3090     1.0  0.50727  0.66629  0.34698  1.0000
  H   H5275     1.0  0.64102  0.70096  0.27496  1.0000
  H   H5276     1.0  0.50378  0.81387  0.31441  1.0000
  S   S892      1.0  0.84712  0.80496  0.23847  1.0000
  H   H5277     1.0  0.83224  0.85378  0.42588  1.0000
  S   S893      1.0  0.87175  0.91561  0.24709  1.0000
  H   H5278     1.0  0.85733  0.83649  0.41415  1.0000
  H   H5279     1.0  0.54085  0.87836  0.41030  1.0000
  H   H5280     1.0  0.83139  0.85062  0.47502  1.0000
  H   H5281     1.0  0.52802  0.89914  0.41556  1.0000
  H   H5282     1.0  0.59102  0.71338  0.32269  1.0000
  S   S894      1.0  0.90842  0.97744  0.24574  1.0000
  H   H5283     1.0  0.50916  0.85739  0.37941  1.0000
  C   C3091     1.0  0.94370  0.98113  0.23691  1.0000
  C   C3092     1.0  0.52704  0.88656  0.41264  1.0000
  H   H5284     1.0  0.96289  0.83414  0.44957  1.0000
  H   H5285     1.0  0.90443  0.82139  0.45673  1.0000
  H   H5286     1.0  0.73850  0.85745  0.29275  1.0000
  C   C3093     1.0  0.89918  0.80894  0.46123  1.0000
  H   H5287     1.0  0.96385  0.82925  0.41951  1.0000
  H   H5288     1.0  0.93864  0.91014  0.26085  1.0000
  H   H5289     1.0  0.82281  0.82727  0.42595  1.0000
  H   H5290     1.0  0.90398  0.84171  0.23508  1.0000
  C   C3094     1.0  0.61374  0.83590  0.46856  1.0000
  H   H5291     1.0  0.74659  0.72386  0.24309  1.0000
  C   C3095     1.0  0.64012  0.70323  0.34476  1.0000
  H   H5292     1.0  0.73776  0.86528  0.26980  1.0000
  S   S895      1.0  0.97634  0.95602  0.33695  1.0000
  C   C3096     1.0  0.85201  0.82381  0.44276  1.0000
  H   H5293     1.0  0.95656  0.93463  0.27181  1.0000
  H   H5294     1.0  0.88516  0.92784  0.29705  1.0000
  S   S896      1.0  0.65413  0.65905  0.25015  1.0000
  H   H5295     1.0  0.50221  0.80039  0.38654  1.0000
  C   C3097     1.0  0.50596  0.81086  0.37476  1.0000
  H   H5296     1.0  0.75059  0.69497  0.24301  1.0000
  H   H5297     1.0  0.68222  0.76092  0.38420  1.0000
  H   H5298     1.0  0.64982  0.75185  0.35074  1.0000
  C   C3098     1.0  0.83895  0.79625  0.34154  1.0000
  C   C3099     1.0  0.79584  0.77761  0.35278  1.0000
  C   C3100     1.0  0.92153  0.88102  0.24584  1.0000
  C   C3101     1.0  0.91259  0.93021  0.28427  1.0000
  C   C3102     1.0  0.49303  0.89774  0.38232  1.0000
  H   H5299     1.0  0.69435  0.72059  0.28650  1.0000
  N   N221      1.0  0.82630  0.78737  0.33713  1.0000
  C   C3103     1.0  0.81414  0.78030  0.35426  1.0000
  H   H5300     1.0  0.79534  0.77508  0.33987  1.0000
  Fe  Fe449     1.0  0.86056  0.82458  0.24330  1.0000
  C   C3104     1.0  0.95246  0.83811  0.42579  1.0000
  C   C3105     1.0  0.82776  0.76203  0.32117  1.0000
  H   H5301     1.0  0.93661  0.89203  0.39451  1.0000
  H   H5302     1.0  0.87382  0.81748  0.42061  1.0000
  N   N222      1.0  0.66918  0.78005  0.41235  1.0000
  H   H5303     1.0  0.92046  0.96012  0.28392  1.0000
  H   H5304     1.0  0.90859  0.94129  0.27317  1.0000
  C   C3106     1.0  0.94395  0.95444  0.29513  1.0000
  H   H5305     1.0  0.73587  0.83630  0.26618  1.0000
  H   H5306     1.0  0.52541  0.80608  0.32079  1.0000
  H   H5307     1.0  0.75888  0.66141  0.25424  1.0000
  H   H5308     1.0  0.79228  0.76585  0.36311  1.0000
  H   H5309     1.0  0.93893  0.94334  0.25982  1.0000
  H   H5310     1.0  0.77956  0.67837  0.29308  1.0000
  H   H5311     1.0  0.58986  0.71145  0.34621  1.0000
  C   C3107     1.0  0.77637  0.80604  0.47270  1.0000
  H   H5312     1.0  0.57121  0.68908  0.31654  1.0000
  C   C3108     1.0  0.83765  0.77243  0.32806  1.0000
  C   C3109     1.0  0.94990  0.91499  0.26255  1.0000
  C   C3110     1.0  0.74177  0.83643  0.27744  1.0000
  H   H5313     1.0  0.93516  0.93300  0.37941  1.0000
  H   H5314     1.0  0.61283  0.68667  0.34828  1.0000
  H   H5315     1.0  0.92531  0.94040  0.39975  1.0000
  H   H5316     1.0  0.90288  0.93548  0.38650  1.0000
  H   H5317     1.0  0.76230  0.80395  0.27885  1.0000
  C   C3111     1.0  0.93740  0.85249  0.45087  1.0000
  H   H5318     1.0  0.70103  0.76850  0.43428  1.0000
  H   H5319     1.0  0.97441  0.88797  0.40096  1.0000
  H   H5320     1.0  0.91793  0.94880  0.30662  1.0000
  C   C3112     1.0  0.64081  0.67311  0.32538  1.0000
  C   C3113     1.0  0.54334  0.66942  0.30093  1.0000
  H   H5321     1.0  0.95139  0.90370  0.37827  1.0000
  C   C3114     1.0  0.68990  0.76209  0.43469  1.0000
  H   H5322     1.0  0.93921  0.97356  0.33811  1.0000
  C   C3115     1.0  0.94380  0.89857  0.43611  1.0000
  H   H5323     1.0  0.65502  0.67254  0.31841  1.0000
  C   C3116     1.0  0.69104  0.69684  0.30660  1.0000
  H   H5324     1.0  0.74063  0.66868  0.24289  1.0000
  H   H5325     1.0  0.91195  0.87006  0.44815  1.0000
  N   N223      1.0  0.54643  0.66684  0.28206  1.0000
  C   C3117     1.0  0.68905  0.67909  0.30988  1.0000
  C   C3118     1.0  0.95733  0.92180  0.40313  1.0000
  H   H5326     1.0  0.95224  0.93305  0.41038  1.0000
  H   H5327     1.0  0.85596  0.81019  0.45077  1.0000
  H   H5328     1.0  0.52377  0.68848  0.27722  1.0000
  H   H5329     1.0  0.94160  0.81992  0.24094  1.0000
  C   C3119     1.0  0.74023  0.68055  0.28848  1.0000
  H   H5330     1.0  0.64121  0.66843  0.33981  1.0000
  H   H5331     1.0  0.50050  0.68960  0.32691  1.0000
  H   H5332     1.0  0.64898  0.71188  0.34527  1.0000
  C   C3120     1.0  0.80932  0.86127  0.44579  1.0000
  H   H5333     1.0  0.91299  0.89161  0.23766  1.0000
  H   H5334     1.0  0.82997  0.81238  0.47350  1.0000
  C   C3121     1.0  0.51368  0.80192  0.31905  1.0000
  C   C3122     1.0  0.53816  0.65188  0.28148  1.0000
  H   H5335     1.0  0.95070  0.79154  0.47125  1.0000
  N   N224      1.0  0.93019  0.93141  0.28762  1.0000
  H   H5336     1.0  0.94498  0.88737  0.30753  1.0000
  H   H5337     1.0  0.93259  0.89497  0.29030  1.0000
  H   H5338     1.0  0.81581  0.79773  0.45894  1.0000
  H   H5339     1.0  0.72866  0.69513  0.25613  1.0000
  H   H5340     1.0  0.85300  0.81424  0.41843  1.0000
  C   C3123     1.0  0.50397  0.89892  0.36295  1.0000
  H   H5341     1.0  0.74514  0.71475  0.28360  1.0000
  C   C3124     1.0  0.94390  0.93205  0.27030  1.0000
  H   H5342     1.0  0.57811  0.86305  0.45212  1.0000
  C   C3125     1.0  0.93362  0.89762  0.30296  1.0000
  C   C3126     1.0  0.74782  0.80403  0.28470  1.0000
  H   H5343     1.0  0.52922  0.67584  0.30572  1.0000
  C   C3127     1.0  0.63996  0.70433  0.32507  1.0000
  H   H5344     1.0  0.53872  0.71211  0.26052  1.0000
  H   H5345     1.0  0.83825  0.79545  0.44581  1.0000
  C   C3128     1.0  0.82876  0.85100  0.44069  1.0000
  S   S897      1.0  0.52149  0.67522  0.35445  1.0000
  H   H5346     1.0  0.98015  0.93288  0.38645  1.0000
  H   H5347     1.0  0.71206  0.84722  0.46899  1.0000
  H   H5348     1.0  0.50085  0.74139  0.28546  1.0000
  H   H5349     1.0  0.72967  0.79344  0.47274  1.0000
  H   H5350     1.0  0.95226  0.94356  0.30328  1.0000
  H   H5351     1.0  0.49513  0.82297  0.37440  1.0000
  C   C3129     1.0  0.93671  0.91641  0.30213  1.0000
  H   H5352     1.0  0.91354  0.91791  0.27960  1.0000
  H   H5353     1.0  0.95125  0.91526  0.30134  1.0000
  H   H5354     1.0  0.92982  0.91951  0.31542  1.0000
  H   H5355     1.0  0.95819  0.90419  0.27083  1.0000
  H   H5356     1.0  0.61779  0.67489  0.26383  1.0000
  H   H5357     1.0  0.73455  0.82263  0.47108  1.0000
  H   H5358     1.0  0.58711  0.65782  0.25160  1.0000
  H   H5359     1.0  0.77180  0.70220  0.28672  1.0000
  H   H5360     1.0  0.57300  0.67250  0.27623  1.0000
  C   C3130     1.0  0.68947  0.67119  0.29573  1.0000
  C   C3131     1.0  0.71932  0.82039  0.29955  1.0000
  N   N225      1.0  0.50134  0.90235  0.39527  1.0000
  C   C3132     1.0  0.92718  0.94896  0.29333  1.0000
  H   H5361     1.0  0.94981  0.90837  0.43919  1.0000
  C   C3133     1.0  0.86589  0.86638  0.24713  1.0000
  H   H5362     1.0  0.62661  0.70818  0.35240  1.0000
  H   H5363     1.0  0.58756  0.65793  0.31641  1.0000
  H   H5364     1.0  0.75073  0.68765  0.30870  1.0000
  C   C3134     1.0  0.49863  0.67617  0.33310  1.0000
  C   C3135     1.0  0.56636  0.66223  0.27498  1.0000
  S   S898      1.0  0.50911  0.85135  0.31912  1.0000
  H   H5365     1.0  0.69768  0.84265  0.30682  1.0000
  H   H5366     1.0  0.65322  0.70546  0.28885  1.0000
  H   H5367     1.0  0.74564  0.83286  0.31093  1.0000
  C   C3136     1.0  0.74885  0.81999  0.30662  1.0000
  H   H5368     1.0  0.81196  0.83088  0.47255  1.0000
  C   C3137     1.0  0.54802  0.65242  0.31510  1.0000
  H   H5369     1.0  0.52959  0.89349  0.38417  1.0000
  H   H5370     1.0  0.49600  0.78399  0.33214  1.0000
  C   C3138     1.0  0.57224  0.65994  0.25541  1.0000
  S   S899      1.0  0.91482  0.92922  0.23761  1.0000
  H   H5371     1.0  0.51645  0.81481  0.34663  1.0000
  H   H5372     1.0  0.88686  0.81210  0.45578  1.0000
  H   H5373     1.0  0.79986  0.85713  0.44020  1.0000
  H   H5374     1.0  0.51864  0.79427  0.30817  1.0000
  H   H5375     1.0  0.49177  0.93035  0.38408  1.0000
  H   H5376     1.0  0.89199  0.94478  0.30311  1.0000
  H   H5377     1.0  0.54688  0.65640  0.32788  1.0000
  S   S900      1.0  0.61955  0.90067  0.47596  1.0000
  H   H5378     1.0  0.50407  0.94470  0.39794  1.0000
  C   C3139     1.0  0.82415  0.80221  0.44569  1.0000
  H   H5379     1.0  0.94216  0.81384  0.47430  1.0000
  C   C3140     1.0  0.86636  0.86734  0.22912  1.0000
  H   H5380     1.0  0.51062  0.65126  0.28118  1.0000
  H   H5381     1.0  0.57265  0.64955  0.28302  1.0000
  C   C3141     1.0  0.50393  0.92134  0.38840  1.0000
  C   C3142     1.0  0.50958  0.93007  0.40083  1.0000
  H   H5382     1.0  0.93567  0.88251  0.24122  1.0000
  C   C3143     1.0  0.91889  0.83928  0.23079  1.0000
  H   H5383     1.0  0.50492  0.91288  0.35618  1.0000
  H   H5384     1.0  0.73060  0.86110  0.47711  1.0000
  Fe  Fe450     1.0  0.64367  0.86589  0.51076  1.0000
  H   H5385     1.0  0.64204  0.88560  0.60503  1.0000
  S   S901      1.0  0.65631  0.84461  0.53179  1.0000
  C   C3144     1.0  0.59097  0.92795  0.58606  1.0000
  Fe  Fe451     1.0  0.68666  0.85589  0.61442  1.0000
  S   S902      1.0  0.70051  0.86912  0.62723  1.0000
  S   S903      1.0  0.68600  0.87043  0.58589  1.0000
  Fe  Fe452     1.0  0.68043  0.82720  0.64836  1.0000
  S   S904      1.0  0.69454  0.83797  0.66327  1.0000
  S   S905      1.0  0.66503  0.80512  0.66143  1.0000
  Fe  Fe453     1.0  0.67910  0.86471  0.65176  1.0000
  S   S906      1.0  0.66141  0.88516  0.66770  1.0000
  Fe  Fe454     1.0  0.71467  0.84122  0.63719  1.0000
  S   S907      1.0  0.74468  0.83784  0.63275  1.0000
  S   S908      1.0  0.66390  0.85384  0.63810  1.0000
  S   S909      1.0  0.70191  0.82814  0.62317  1.0000
  C   C3145     1.0  0.61656  0.89193  0.59588  1.0000
  H   H5386     1.0  0.63629  0.86677  0.70299  1.0000
  H   H5387     1.0  0.96225  0.65107  0.55831  1.0000
  H   H5388     1.0  0.81625  0.74083  0.59408  1.0000
  H   H5389     1.0  0.86059  0.75402  0.59947  1.0000
  H   H5390     1.0  0.69348  0.81547  0.50725  1.0000
  C   C3146     1.0  0.83658  0.74431  0.61437  1.0000
  S   S910      1.0  0.86902  0.66622  0.58809  1.0000
  H   H5391     1.0  0.77397  0.81355  0.54806  1.0000
  Fe  Fe455     1.0  0.84728  0.76694  0.54434  1.0000
  S   S911      1.0  0.84496  0.77950  0.56745  1.0000
  S   S912      1.0  0.87091  0.74401  0.54029  1.0000
  Fe  Fe456     1.0  0.81722  0.79582  0.52985  1.0000
  S   S913      1.0  0.81296  0.81040  0.55190  1.0000
  S   S914      1.0  0.79970  0.81150  0.51016  1.0000
  Fe  Fe457     1.0  0.84294  0.80530  0.54723  1.0000
  S   S915      1.0  0.85710  0.82805  0.54219  1.0000
  Fe  Fe458     1.0  0.81525  0.78332  0.56972  1.0000
  S   S916      1.0  0.79500  0.77598  0.59482  1.0000
  S   S917      1.0  0.84714  0.79268  0.52385  1.0000
  S   S918      1.0  0.81764  0.76874  0.54803  1.0000
  C   C3147     1.0  0.64356  0.94130  0.53015  1.0000
  S   S919      1.0  0.95513  0.81454  0.50566  1.0000
  H   H5392     1.0  0.96049  0.70654  0.56316  1.0000
  C   C3148     1.0  0.89761  0.80114  0.51198  1.0000
  H   H5393     1.0  0.74835  0.86511  0.54723  1.0000
  H   H5394     1.0  0.65702  0.90053  0.58183  1.0000
  C   C3149     1.0  0.85092  0.70029  0.61677  1.0000
  Fe  Fe459     1.0  0.95385  0.82554  0.52932  1.0000
  S   S920      1.0  0.93588  0.81502  0.55487  1.0000
  C   C3150     1.0  0.93678  0.74924  0.56275  1.0000
  S   S921      1.0  0.95255  0.85380  0.51408  1.0000
  H   H5395     1.0  0.70672  0.82140  0.56770  1.0000
  H   H5396     1.0  0.98717  0.76728  0.56189  1.0000
  H   H5397     1.0  0.69145  0.84459  0.70563  1.0000
  C   C3151     1.0  0.66569  0.77793  0.71998  1.0000
  N   N226      1.0  0.66466  0.93879  0.63036  1.0000
  C   C3152     1.0  0.98925  0.65494  0.54607  1.0000
  H   H5398     1.0  0.61429  0.97237  0.66629  1.0000
  C   C3153     1.0  0.71670  0.82441  0.57356  1.0000
  C   C3154     1.0  0.67988  0.78603  0.70946  1.0000
  H   H5399     1.0  0.65575  0.91453  0.56016  1.0000
  H   H5400     1.0  0.76788  0.82608  0.57496  1.0000
  H   H5401     1.0  0.83522  0.72377  0.59171  1.0000
  H   H5402     1.0  0.76075  0.83305  0.52859  1.0000
  C   C3155     1.0  0.97149  0.66426  0.59291  1.0000
  H   H5403     1.0  0.64373  0.88768  0.56586  1.0000
  H   H5404     1.0  0.83893  0.74649  0.62682  1.0000
  H   H5405     1.0  0.72984  0.84204  0.59103  1.0000
  H   H5406     1.0  0.64264  0.92306  0.51459  1.0000
  H   H5407     1.0  0.60710  0.88385  0.59541  1.0000
  H   H5408     1.0  0.85502  0.73961  0.58880  1.0000
  C   C3156     1.0  0.81085  0.71429  0.60322  1.0000
  H   H5409     1.0  0.84565  0.68926  0.61500  1.0000
  C   C3157     1.0  0.87888  0.82394  0.54616  1.0000
  C   C3158     1.0  0.88964  0.83648  0.53730  1.0000
  C   C3159     1.0  0.90726  0.83350  0.53962  1.0000
  C   C3160     1.0  0.91400  0.81832  0.55146  1.0000
  C   C3161     1.0  0.90321  0.80582  0.56055  1.0000
  C   C3162     1.0  0.88575  0.80846  0.55765  1.0000
  H   H5410     1.0  0.88436  0.84853  0.52849  1.0000
  H   H5411     1.0  0.91547  0.84322  0.53257  1.0000
  H   H5412     1.0  0.90837  0.79406  0.56974  1.0000
  H   H5413     1.0  0.87749  0.79877  0.56457  1.0000
  C   C3163     1.0  0.79215  0.80172  0.49663  1.0000
  C   C3164     1.0  0.79619  0.78328  0.49750  1.0000
  N   N227      1.0  0.71536  0.82965  0.49453  1.0000
  H   H5414     1.0  0.89092  0.85280  0.48746  1.0000
  C   C3165     1.0  0.67636  0.93901  0.64264  1.0000
  H   H5415     1.0  0.87989  0.83682  0.50375  1.0000
  H   H5416     1.0  0.80393  0.77447  0.50699  1.0000
  C   C3166     1.0  0.73845  0.84996  0.48540  1.0000
  H   H5417     1.0  0.70442  0.79671  0.53145  1.0000
  H   H5418     1.0  0.64028  0.87000  0.59257  1.0000
  C   C3167     1.0  0.86965  0.68780  0.57471  1.0000
  C   C3168     1.0  0.85388  0.69885  0.56991  1.0000
  C   C3169     1.0  0.85398  0.71627  0.55963  1.0000
  C   C3170     1.0  0.86997  0.72257  0.55378  1.0000
  C   C3171     1.0  0.88578  0.71139  0.55827  1.0000
  C   C3172     1.0  0.88557  0.69422  0.56896  1.0000
  H   H5419     1.0  0.84153  0.69396  0.57424  1.0000
  H   H5420     1.0  0.84177  0.72471  0.55599  1.0000
  H   H5421     1.0  0.89821  0.71610  0.55358  1.0000
  H   H5422     1.0  0.89773  0.68605  0.57283  1.0000
  H   H5423     1.0  0.86491  0.73074  0.60857  1.0000
  C   C3173     1.0  0.62129  0.88230  0.55939  1.0000
  S   S922      1.0  0.65122  0.89267  0.49872  1.0000
  H   H5424     1.0  0.89483  0.78818  0.48410  1.0000
  H   H5425     1.0  0.72418  0.81143  0.57988  1.0000
  H   H5426     1.0  0.72020  0.84786  0.55307  1.0000
  C   C3174     1.0  0.72633  0.83915  0.50051  1.0000
  S   S923      1.0  0.61396  0.87681  0.51652  1.0000
  H   H5427     1.0  0.80068  0.72427  0.63437  1.0000
  H   H5428     1.0  0.82852  0.75719  0.60830  1.0000
  H   H5429     1.0  0.69824  0.93040  0.60604  1.0000
  H   H5430     1.0  0.72491  0.86140  0.57430  1.0000
  N   N228      1.0  0.74417  0.83945  0.56405  1.0000
  H   H5431     1.0  0.79659  0.71980  0.60857  1.0000
  H   H5432     1.0  0.85727  0.70725  0.60361  1.0000
  C   C3175     1.0  0.73599  0.85033  0.57840  1.0000
  H   H5433     1.0  0.76847  0.84938  0.55027  1.0000
  H   H5434     1.0  0.62042  0.93188  0.64219  1.0000
  C   C3176     1.0  0.66557  0.79464  0.68390  1.0000
  C   C3177     1.0  0.65147  0.78635  0.69437  1.0000
  H   H5435     1.0  0.97562  0.69121  0.58672  1.0000
  C   C3178     1.0  0.63048  0.89542  0.56336  1.0000
  H   H5436     1.0  0.67450  0.85385  0.72236  1.0000
  C   C3179     1.0  0.67974  0.79451  0.69153  1.0000
  H   H5437     1.0  0.64052  0.78632  0.68851  1.0000
  C   C3180     1.0  0.70334  0.82109  0.51084  1.0000
  H   H5438     1.0  0.69081  0.80058  0.68350  1.0000
  C   C3181     1.0  0.75834  0.82070  0.62194  1.0000
  C   C3182     1.0  0.75215  0.80549  0.62244  1.0000
  C   C3183     1.0  0.76355  0.79177  0.61417  1.0000
  C   C3184     1.0  0.78095  0.79348  0.60482  1.0000
  C   C3185     1.0  0.78702  0.80884  0.60401  1.0000
  C   C3186     1.0  0.77586  0.82223  0.61287  1.0000
  H   H5439     1.0  0.73875  0.80408  0.62961  1.0000
  H   H5440     1.0  0.75882  0.77987  0.61492  1.0000
  H   H5441     1.0  0.80047  0.81020  0.59696  1.0000
  H   H5442     1.0  0.78075  0.83391  0.61257  1.0000
  C   C3187     1.0  0.67123  0.89618  0.67815  1.0000
  C   C3188     1.0  0.66046  0.91014  0.68641  1.0000
  C   C3189     1.0  0.66813  0.92006  0.69371  1.0000
  C   C3190     1.0  0.68656  0.91572  0.69325  1.0000
  C   C3191     1.0  0.69721  0.90140  0.68549  1.0000
  C   C3192     1.0  0.68962  0.89177  0.67778  1.0000
  H   H5443     1.0  0.64619  0.91357  0.68680  1.0000
  H   H5444     1.0  0.65979  0.93100  0.69973  1.0000
  H   H5445     1.0  0.71146  0.89793  0.68518  1.0000
  H   H5446     1.0  0.69803  0.88103  0.67145  1.0000
  C   C3193     1.0  0.66495  0.85163  0.54666  1.0000
  C   C3194     1.0  0.67145  0.86744  0.54156  1.0000
  C   C3195     1.0  0.67830  0.87276  0.55361  1.0000
  C   C3196     1.0  0.67830  0.86256  0.57097  1.0000
  C   C3197     1.0  0.67196  0.84666  0.57606  1.0000
  C   C3198     1.0  0.66550  0.84111  0.56383  1.0000
  H   H5447     1.0  0.67122  0.87557  0.52832  1.0000
  H   H5448     1.0  0.68319  0.88509  0.54960  1.0000
  H   H5449     1.0  0.67193  0.83870  0.58943  1.0000
  H   H5450     1.0  0.66053  0.82882  0.56783  1.0000
  C   C3199     1.0  0.75634  0.84726  0.52952  1.0000
  C   C3200     1.0  0.72896  0.83523  0.55864  1.0000
  H   H5451     1.0  0.82659  0.70367  0.63626  1.0000
  H   H5452     1.0  0.70894  0.83218  0.58387  1.0000
  C   C3201     1.0  0.72790  0.81597  0.48443  1.0000
  H   H5453     1.0  0.73391  0.82758  0.54781  1.0000
  H   H5454     1.0  0.60465  0.92321  0.55986  1.0000
  N   N229      1.0  0.82641  0.72949  0.61841  1.0000
  H   H5455     1.0  0.68015  0.95359  0.66076  1.0000
  N   N230      1.0  0.62032  0.90490  0.57836  1.0000
  N   N231      1.0  0.94826  0.73217  0.57082  1.0000
  C   C3202     1.0  0.67236  0.92304  0.62127  1.0000
  H   H5456     1.0  0.76642  0.85444  0.51983  1.0000
  H   H5457     1.0  0.74915  0.81601  0.58483  1.0000
  H   H5458     1.0  0.49915  0.66695  0.66345  1.0000
  C   C3203     1.0  0.85527  0.74168  0.60205  1.0000
  H   H5459     1.0  0.81147  0.71196  0.58980  1.0000
  H   H5460     1.0  0.71757  0.84834  0.50927  1.0000
  S   S924      1.0  0.69172  0.97906  0.68805  1.0000
  H   H5461     1.0  0.90469  0.80519  0.52032  1.0000
  H   H5462     1.0  0.75415  0.80374  0.55668  1.0000
  C   C3204     1.0  0.80845  0.73510  0.63023  1.0000
  H   H5463     1.0  0.69449  0.83564  0.47940  1.0000
  S   S925      1.0  0.64458  0.96245  0.55193  1.0000
  H   H5464     1.0  0.71495  0.81298  0.53485  1.0000
  H   H5465     1.0  0.86190  0.69355  0.62411  1.0000
  H   H5466     1.0  0.84256  0.71505  0.63804  1.0000
  Fe  Fe460     1.0  0.61466  0.87323  0.48909  1.0000
  C   C3205     1.0  0.63037  0.91821  0.57990  1.0000
  H   H5467     1.0  0.81810  0.72993  0.65539  1.0000
  C   C3206     1.0  0.74888  0.85895  0.58360  1.0000
  H   H5468     1.0  0.75370  0.86967  0.57270  1.0000
  H   H5469     1.0  0.74155  0.86523  0.59519  1.0000
  H   H5470     1.0  0.76048  0.84906  0.58788  1.0000
  C   C3207     1.0  0.69207  0.85918  0.48909  1.0000
  H   H5471     1.0  0.59772  0.93862  0.58612  1.0000
  S   S926      1.0  0.94906  0.67124  0.59063  1.0000
  C   C3208     1.0  0.61532  0.96037  0.54027  1.0000
  C   C3209     1.0  0.53687  0.98033  0.51198  1.0000
  S   S927      1.0  0.69668  0.92753  0.70261  1.0000
  H   H5472     1.0  0.65288  0.96707  0.62323  1.0000
  H   H5473     1.0  0.69466  0.83130  0.51842  1.0000
  C   C3210     1.0  0.76446  0.80864  0.56020  1.0000
  C   C3211     1.0  0.88843  0.83904  0.49021  1.0000
  H   H5474     1.0  0.67794  0.92611  0.65243  1.0000
  C   C3212     1.0  0.63288  0.87871  0.60216  1.0000
  C   C3213     1.0  0.69285  0.91875  0.61454  1.0000
  H   H5475     1.0  0.59240  0.95654  0.53276  1.0000
  H   H5476     1.0  0.69026  0.93985  0.63549  1.0000
  H   H5477     1.0  0.95027  0.76030  0.53558  1.0000
  H   H5478     1.0  0.62660  0.93136  0.57104  1.0000
  H   H5479     1.0  0.62817  0.86970  0.61489  1.0000
  Fe  Fe461     1.0  0.95605  0.84237  0.48985  1.0000
  H   H5480     1.0  0.53698  0.97332  0.54090  1.0000
  C   C3214     1.0  0.96151  0.73552  0.57973  1.0000
  H   H5481     1.0  0.64814  0.92467  0.65321  1.0000
  C   C3215     1.0  0.95364  0.74737  0.59374  1.0000
  H   H5482     1.0  0.98172  0.78511  0.53253  1.0000
  N   N232      1.0  0.95631  0.85426  0.57596  1.0000
  C   C3216     1.0  0.95265  0.83576  0.58446  1.0000
  C   C3217     1.0  0.94117  0.86725  0.58476  1.0000
  C   C3218     1.0  0.97367  0.85510  0.58010  1.0000
  C   C3219     1.0  0.95765  0.85737  0.55606  1.0000
  C   C3220     1.0  0.96752  0.81995  0.57912  1.0000
  C   C3221     1.0  0.92226  0.86696  0.58284  1.0000
  C   C3222     1.0  0.92458  0.79495  0.48919  1.0000
  C   C3223     1.0  0.95408  0.87704  0.54576  1.0000
  H   H5483     1.0  0.94988  0.83360  0.59932  1.0000
  H   H5484     1.0  0.94039  0.83408  0.58110  1.0000
  H   H5485     1.0  0.94294  0.88123  0.57983  1.0000
  H   H5486     1.0  0.94094  0.86465  0.59934  1.0000
  H   H5487     1.0  0.97282  0.85176  0.59482  1.0000
  C   C3224     1.0  0.98176  0.67723  0.58953  1.0000
  H   H5488     1.0  0.97108  0.85074  0.54950  1.0000
  H   H5489     1.0  0.94789  0.85093  0.55333  1.0000
  H   H5490     1.0  0.96205  0.80753  0.58369  1.0000
  H   H5491     1.0  0.97225  0.82170  0.56448  1.0000
  H   H5492     1.0  0.97900  0.81766  0.58566  1.0000
  H   H5493     1.0  0.91265  0.87887  0.58698  1.0000
  H   H5494     1.0  0.92165  0.86732  0.56892  1.0000
  H   H5495     1.0  0.91742  0.85506  0.59173  1.0000
  H   H5496     1.0  0.68328  0.86663  0.47955  1.0000
  C   C3225     1.0  0.98015  0.87286  0.57274  1.0000
  C   C3226     1.0  0.63766  0.83102  0.70737  1.0000
  H   H5497     1.0  0.68300  0.95772  0.59258  1.0000
  H   H5498     1.0  0.95578  0.88709  0.55225  1.0000
  H   H5499     1.0  0.94056  0.88084  0.54249  1.0000
  H   H5500     1.0  0.65645  0.92389  0.57806  1.0000
  H   H5501     1.0  0.88707  0.66482  0.54162  1.0000
  H   H5502     1.0  0.54382  0.95424  0.53009  1.0000
  H   H5503     1.0  0.73920  0.80852  0.49115  1.0000
  H   H5504     1.0  0.65213  0.83758  0.67927  1.0000
  Fe  Fe462     1.0  0.98478  0.81107  0.50208  1.0000
  C   C3227     1.0  0.53490  0.96754  0.53043  1.0000
  C   C3228     1.0  0.67902  0.84239  0.71565  1.0000
  H   H5505     1.0  0.66618  0.92473  0.60962  1.0000
  C   C3229     1.0  0.67857  0.96291  0.60513  1.0000
  C   C3230     1.0  0.93606  0.72149  0.58513  1.0000
  C   C3231     1.0  0.71287  0.80679  0.52465  1.0000
  H   H5506     1.0  0.95853  0.76465  0.55303  1.0000
  H   H5507     1.0  0.91115  0.77270  0.51865  1.0000
  S   S928      1.0  0.98355  0.81999  0.52711  1.0000
  H   H5508     1.0  0.63793  0.92081  0.62705  1.0000
  H   H5509     1.0  0.63337  0.90533  0.55071  1.0000
  H   H5510     1.0  0.92792  0.74628  0.55547  1.0000
  C   C3232     1.0  0.85382  0.65855  0.54776  1.0000
  H   H5511     1.0  0.97596  0.73903  0.53966  1.0000
  H   H5512     1.0  0.60972  0.89917  0.60690  1.0000
  H   H5513     1.0  0.66508  0.85157  0.69395  1.0000
  C   C3233     1.0  0.89437  0.80275  0.48172  1.0000
  S   S929      1.0  0.59273  0.86580  0.48068  1.0000
  C   C3234     1.0  0.89746  0.78109  0.51946  1.0000
  H   H5514     1.0  0.62660  0.92096  0.59364  1.0000
  S   S930      1.0  0.60520  0.92786  0.51372  1.0000
  H   H5515     1.0  0.69622  0.90845  0.60630  1.0000
  H   H5516     1.0  0.65783  0.93688  0.52957  1.0000
  H   H5517     1.0  0.81530  0.70119  0.61174  1.0000
  C   C3235     1.0  0.75466  0.85064  0.54832  1.0000
  H   H5518     1.0  0.72593  0.79921  0.51868  1.0000
  H   H5519     1.0  0.92709  0.75594  0.57320  1.0000
  H   H5520     1.0  0.87992  0.80838  0.48641  1.0000
  C   C3236     1.0  0.64658  0.93628  0.64184  1.0000
  C   C3237     1.0  0.83540  0.83585  0.47811  1.0000
  H   H5521     1.0  0.97200  0.74192  0.56998  1.0000
  H   H5522     1.0  0.86451  0.65078  0.52229  1.0000
  H   H5523     1.0  0.66783  0.96753  0.64443  1.0000
  H   H5524     1.0  0.53165  0.97463  0.50342  1.0000
  C   C3238     1.0  0.66181  0.95606  0.61686  1.0000
  H   H5525     1.0  0.71410  0.79322  0.49357  1.0000
  C   C3239     1.0  0.95788  0.72105  0.55688  1.0000
  H   H5526     1.0  0.65741  0.95243  0.66342  1.0000
  H   H5527     1.0  0.63966  0.94808  0.64793  1.0000
  H   H5528     1.0  0.58674  0.92072  0.59992  1.0000
  H   H5529     1.0  0.88340  0.80822  0.51500  1.0000
  C   C3240     1.0  0.92234  0.71508  0.57868  1.0000
  C   C3241     1.0  0.97626  0.72475  0.54577  1.0000
  C   C3242     1.0  0.60255  0.91513  0.57373  1.0000
  H   H5530     1.0  0.62964  0.94483  0.62153  1.0000
  H   H5531     1.0  0.70013  0.86844  0.48987  1.0000
  H   H5532     1.0  0.55200  0.95071  0.49643  1.0000
  H   H5533     1.0  0.81242  0.75344  0.64495  1.0000
  H   H5534     1.0  0.61831  0.87152  0.57113  1.0000
  Fe  Fe463     1.0  0.62137  0.90332  0.50289  1.0000
  H   H5535     1.0  0.74622  0.85598  0.49129  1.0000
  C   C3243     1.0  0.94657  0.76324  0.54919  1.0000
  H   H5536     1.0  0.60905  0.88923  0.55406  1.0000
  H   H5537     1.0  0.68993  0.95993  0.61185  1.0000
  H   H5538     1.0  0.59396  0.90590  0.57390  1.0000
  C   C3244     1.0  0.75633  0.82277  0.57183  1.0000
  C   C3245     1.0  0.82276  0.72766  0.60125  1.0000
  C   C3246     1.0  0.90666  0.82581  0.48870  1.0000
  C   C3247     1.0  0.78206  0.81302  0.48436  1.0000
  C   C3248     1.0  0.66983  0.95412  0.65327  1.0000
  H   H5539     1.0  0.69985  0.91294  0.62588  1.0000
  H   H5540     1.0  0.93763  0.77666  0.54877  1.0000
  H   H5541     1.0  0.92408  0.78131  0.48818  1.0000
  C   C3249     1.0  0.63823  0.83875  0.68724  1.0000
  H   H5542     1.0  0.80003  0.74673  0.62284  1.0000
  H   H5543     1.0  0.77236  0.79685  0.56790  1.0000
  H   H5544     1.0  0.94407  0.70938  0.59246  1.0000
  S   S931      1.0  0.65361  0.96716  0.71048  1.0000
  H   H5545     1.0  0.67519  0.97774  0.60151  1.0000
  H   H5546     1.0  0.65423  0.95490  0.60730  1.0000
  H   H5547     1.0  0.62117  0.83428  0.47880  1.0000
  C   C3250     1.0  0.65104  0.91376  0.57476  1.0000
  C   C3251     1.0  0.63497  0.93343  0.52169  1.0000
  C   C3252     1.0  0.61650  0.93876  0.52272  1.0000
  H   H5548     1.0  0.57551  0.94312  0.48971  1.0000
  H   H5549     1.0  0.64397  0.81659  0.70872  1.0000
  C   C3253     1.0  0.80890  0.74015  0.64766  1.0000
  H   H5550     1.0  0.74343  0.85272  0.52503  1.0000
  C   C3254     1.0  0.83626  0.71227  0.62824  1.0000
  C   C3255     1.0  0.65139  0.77824  0.71244  1.0000
  N   N233      1.0  0.64637  0.83999  0.71657  1.0000
  H   H5551     1.0  0.57856  0.93480  0.58097  1.0000
  Fe  Fe464     1.0  0.98269  0.84715  0.50973  1.0000
  H   H5552     1.0  0.83061  0.83148  0.49273  1.0000
  H   H5553     1.0  0.98491  0.84500  0.57456  1.0000
  H   H5554     1.0  0.94931  0.72238  0.54724  1.0000
  C   C3256     1.0  0.63312  0.93328  0.63231  1.0000
  H   H5555     1.0  0.88949  0.77601  0.51295  1.0000
  H   H5556     1.0  0.63056  0.87571  0.54873  1.0000
  H   H5557     1.0  0.94490  0.74089  0.60570  1.0000
  C   C3257     1.0  0.63375  0.95462  0.53961  1.0000
  H   H5558     1.0  0.91694  0.66589  0.52796  1.0000
  H   H5559     1.0  0.66911  0.91050  0.63055  1.0000
  C   C3258     1.0  0.60672  0.95244  0.53180  1.0000
  H   H5560     1.0  0.96907  0.72263  0.58632  1.0000
  S   S932      1.0  0.98616  0.83802  0.48409  1.0000
  H   H5561     1.0  0.57091  0.95818  0.51399  1.0000
  H   H5562     1.0  0.79524  0.74133  0.65627  1.0000
  C   C3259     1.0  0.56893  0.96685  0.50085  1.0000
  C   C3260     1.0  0.66520  0.84051  0.70594  1.0000
  S   S933      1.0  0.60900  0.98220  0.63013  1.0000
  H   H5563     1.0  0.92879  0.70672  0.56856  1.0000
  H   H5564     1.0  0.96488  0.74953  0.59846  1.0000
  H   H5565     1.0  0.73533  0.82939  0.50892  1.0000
  H   H5566     1.0  0.91211  0.72639  0.57353  1.0000
  H   H5567     1.0  0.91415  0.82815  0.49779  1.0000
  H   H5568     1.0  0.60766  0.97060  0.54762  1.0000
  H   H5569     1.0  0.85726  0.67194  0.54241  1.0000
  H   H5570     1.0  0.92803  0.72930  0.59538  1.0000
  H   H5571     1.0  0.67119  0.82801  0.70073  1.0000
  H   H5572     1.0  0.91507  0.70650  0.59024  1.0000
  Fe  Fe465     1.0  0.68307  0.95521  0.70754  1.0000
  H   H5573     1.0  0.94637  0.76076  0.58804  1.0000
  H   H5574     1.0  0.89091  0.77928  0.53386  1.0000
  C   C3261     1.0  0.62230  0.98216  0.65881  1.0000
  H   H5575     1.0  0.97040  0.88431  0.57755  1.0000
  H   H5576     1.0  0.93096  0.79298  0.50078  1.0000
  H   H5577     1.0  0.85484  0.65424  0.56199  1.0000
  H   H5578     1.0  0.98903  0.65986  0.55811  1.0000
  H   H5579     1.0  0.52091  0.96540  0.53467  1.0000
  H   H5580     1.0  0.63096  0.85283  0.68457  1.0000
  H   H5581     1.0  0.69105  0.78571  0.71517  1.0000
  H   H5582     1.0  0.58236  0.96974  0.49387  1.0000
  S   S934      1.0  0.92002  0.65189  0.57258  1.0000
  H   H5583     1.0  0.68302  0.85588  0.50211  1.0000
  H   H5584     1.0  0.98415  0.66694  0.53640  1.0000
  H   H5585     1.0  0.62326  0.83152  0.71374  1.0000
  C   C3262     1.0  0.79028  0.77624  0.48592  1.0000
  H   H5586     1.0  0.96362  0.87828  0.53265  1.0000
  N   N234      1.0  0.90589  0.80630  0.49240  1.0000
  H   H5587     1.0  0.88890  0.66380  0.51904  1.0000
  H   H5588     1.0  0.63160  0.83086  0.68213  1.0000
  C   C3263     1.0  0.89266  0.65583  0.53186  1.0000
  H   H5589     1.0  0.98392  0.87567  0.55793  1.0000
  Fe  Fe466     1.0  0.93320  0.64996  0.59501  1.0000
  H   H5590     1.0  0.88102  0.83875  0.48019  1.0000
  C   C3264     1.0  0.91321  0.65301  0.52886  1.0000
  C   C3265     1.0  0.70381  0.84247  0.48226  1.0000
  C   C3266     1.0  0.49683  0.65311  0.66865  1.0000
  H   H5591     1.0  0.62081  0.85860  0.72152  1.0000
  C   C3267     1.0  0.63539  0.85862  0.71683  1.0000
  S   S935      1.0  0.64367  0.85987  0.48444  1.0000
  H   H5592     1.0  0.77886  0.82729  0.48366  1.0000
  H   H5593     1.0  0.98671  0.71976  0.55399  1.0000
  H   H5594     1.0  0.98060  0.71736  0.53470  1.0000
  H   H5595     1.0  0.64047  0.77189  0.72039  1.0000
  C   C3268     1.0  0.71926  0.80212  0.48099  1.0000
  H   H5596     1.0  0.83954  0.66019  0.54726  1.0000
  H   H5597     1.0  0.65068  0.87736  0.71882  1.0000
  H   H5598     1.0  0.68284  0.82989  0.72536  1.0000
  H   H5599     1.0  0.79352  0.76199  0.48649  1.0000
  C   C3269     1.0  0.56473  0.95533  0.49012  1.0000
  C   C3270     1.0  0.64040  0.86977  0.72744  1.0000
  H   H5600     1.0  0.49578  0.64971  0.68327  1.0000
  C   C3271     1.0  0.63914  0.90669  0.78986  1.0000
  H   H5601     1.0  0.61722  0.66762  0.83062  1.0000
  H   H5602     1.0  0.56680  0.78914  0.76485  1.0000
  Fe  Fe467     1.0  0.64053  0.76386  0.76191  1.0000
  S   S936      1.0  0.63887  0.77068  0.78822  1.0000
  H   H5603     1.0  0.53938  0.78320  0.83040  1.0000
  Fe  Fe468     1.0  0.60348  0.75460  0.77380  1.0000
  S   S937      1.0  0.59925  0.76053  0.80091  1.0000
  S   S938      1.0  0.57925  0.74900  0.76802  1.0000
  Fe  Fe469     1.0  0.61074  0.78462  0.78620  1.0000
  S   S939      1.0  0.59597  0.81237  0.78921  1.0000
  Fe  Fe470     1.0  0.62769  0.74576  0.80025  1.0000
  S   S940      1.0  0.63593  0.72685  0.82492  1.0000
  S   S941      1.0  0.61316  0.77975  0.75898  1.0000
  S   S942      1.0  0.63119  0.73790  0.77408  1.0000
  Fe  Fe471     1.0  0.59778  0.88282  0.83449  1.0000
  S   S943      1.0  0.58125  0.88806  0.86115  1.0000
  S   S944      1.0  0.61942  0.85828  0.83021  1.0000
  Fe  Fe472     1.0  0.57870  0.91661  0.81390  1.0000
  S   S945      1.0  0.55965  0.92453  0.83836  1.0000
  S   S946      1.0  0.58110  0.93091  0.78507  1.0000
  Fe  Fe473     1.0  0.58417  0.91659  0.85044  1.0000
  S   S947      1.0  0.58458  0.93686  0.86588  1.0000
  Fe  Fe474     1.0  0.55785  0.89558  0.84754  1.0000
  S   S948      1.0  0.53384  0.88398  0.86409  1.0000
  S   S949      1.0  0.60326  0.91056  0.82530  1.0000
  S   S950      1.0  0.57412  0.88853  0.82176  1.0000
  H   H5604     1.0  0.54180  0.76448  0.78611  1.0000
  C   C3272     1.0  0.53992  0.80906  0.87415  1.0000
  C   C3273     1.0  0.52995  0.77359  0.79240  1.0000
  C   C3274     1.0  0.51927  0.80067  0.80482  1.0000
  C   C3275     1.0  0.72563  0.72043  0.76854  1.0000
  S   S951      1.0  0.64713  0.94474  0.89821  1.0000
  Fe  Fe475     1.0  0.53731  0.66942  0.80722  1.0000
  S   S952      1.0  0.56669  0.67023  0.79909  1.0000
  H   H5605     1.0  0.65225  0.95779  0.85602  1.0000
  C   C3276     1.0  0.51123  0.74032  0.83404  1.0000
  H   H5606     1.0  0.53791  0.81469  0.88616  1.0000
  H   H5607     1.0  0.55494  0.80303  0.74827  1.0000
  H   H5608     1.0  0.63071  0.81905  0.76082  1.0000
  H   H5609     1.0  0.56223  0.77627  0.79386  1.0000
  C   C3277     1.0  0.60396  0.66986  0.83983  1.0000
  C   C3278     1.0  0.60188  0.93745  0.87589  1.0000
  C   C3279     1.0  0.61852  0.92565  0.87388  1.0000
  C   C3280     1.0  0.63228  0.92770  0.88110  1.0000
  C   C3281     1.0  0.62945  0.94156  0.89025  1.0000
  H   H5610     1.0  0.56189  0.80590  0.82875  1.0000
  C   C3282     1.0  0.59898  0.95094  0.88544  1.0000
  H   H5611     1.0  0.62085  0.91516  0.86659  1.0000
  H   H5612     1.0  0.64520  0.91870  0.87940  1.0000
  H   H5613     1.0  0.64497  0.86185  0.73971  1.0000
  C   C3283     1.0  0.54890  0.77502  0.82118  1.0000
  C   C3284     1.0  0.52131  0.88083  0.83562  1.0000
  H   H5614     1.0  0.53040  0.88917  0.82704  1.0000
  C   C3285     1.0  0.59653  0.94514  0.77822  1.0000
  C   C3286     1.0  0.60391  0.95016  0.76001  1.0000
  C   C3287     1.0  0.61743  0.96019  0.75444  1.0000
  C   C3288     1.0  0.54711  0.68573  0.86589  1.0000
  C   C3289     1.0  0.61531  0.96129  0.78518  1.0000
  C   C3290     1.0  0.60210  0.95092  0.79078  1.0000
  H   H5615     1.0  0.59946  0.94592  0.75023  1.0000
  H   H5616     1.0  0.59816  0.71709  0.86095  1.0000
  C   C3291     1.0  0.60513  0.82486  0.79864  1.0000
  C   C3292     1.0  0.59915  0.84340  0.79552  1.0000
  C   C3293     1.0  0.60438  0.85372  0.80443  1.0000
  C   C3294     1.0  0.61521  0.84561  0.81693  1.0000
  C   C3295     1.0  0.62209  0.82713  0.81932  1.0000
  C   C3296     1.0  0.61712  0.81673  0.81010  1.0000
  H   H5617     1.0  0.59009  0.84980  0.78647  1.0000
  H   H5618     1.0  0.59977  0.86796  0.80177  1.0000
  H   H5619     1.0  0.63073  0.82076  0.82877  1.0000
  H   H5620     1.0  0.62188  0.80240  0.81249  1.0000
  C   C3297     1.0  0.57614  0.72692  0.77579  1.0000
  C   C3298     1.0  0.59060  0.71274  0.77864  1.0000
  C   C3299     1.0  0.58771  0.69523  0.78520  1.0000
  C   C3300     1.0  0.57031  0.69195  0.78941  1.0000
  C   C3301     1.0  0.55586  0.70615  0.78660  1.0000
  C   C3302     1.0  0.55881  0.72357  0.77956  1.0000
  H   H5621     1.0  0.60401  0.71524  0.77562  1.0000
  H   H5622     1.0  0.59893  0.68426  0.78724  1.0000
  H   H5623     1.0  0.54240  0.70373  0.78986  1.0000
  H   H5624     1.0  0.54760  0.73448  0.77731  1.0000
  C   C3303     1.0  0.61267  0.95299  0.89257  1.0000
  H   H5625     1.0  0.54021  0.84100  0.82293  1.0000
  H   H5626     1.0  0.53652  0.69279  0.85816  1.0000
  C   C3304     1.0  0.66699  0.67082  0.81808  1.0000
  C   C3305     1.0  0.66806  0.67757  0.83236  1.0000
  C   C3306     1.0  0.65785  0.69451  0.83488  1.0000
  C   C3307     1.0  0.64674  0.70478  0.82303  1.0000
  C   C3308     1.0  0.64510  0.69762  0.80928  1.0000
  C   C3309     1.0  0.65525  0.68076  0.80677  1.0000
  H   H5627     1.0  0.67703  0.66995  0.84119  1.0000
  H   H5628     1.0  0.65905  0.69993  0.84565  1.0000
  H   H5629     1.0  0.63621  0.70517  0.80041  1.0000
  H   H5630     1.0  0.65424  0.67551  0.79581  1.0000
  C   C3310     1.0  0.59729  0.71038  0.85058  1.0000
  H   H5631     1.0  0.65710  0.98028  0.82607  1.0000
  N   N235      1.0  0.56099  0.82815  0.85116  1.0000
  C   C3311     1.0  0.56424  0.83423  0.86645  1.0000
  C   C3312     1.0  0.56112  0.84381  0.83550  1.0000
  C   C3313     1.0  0.58172  0.84114  0.86275  1.0000
  H   H5632     1.0  0.55293  0.84506  0.87074  1.0000
  H   H5633     1.0  0.56483  0.82318  0.87840  1.0000
  H   H5634     1.0  0.53221  0.83555  0.85895  1.0000
  H   H5635     1.0  0.55297  0.85623  0.83990  1.0000
  H   H5636     1.0  0.57486  0.84641  0.83008  1.0000
  H   H5637     1.0  0.58817  0.81730  0.83889  1.0000
  H   H5638     1.0  0.58316  0.84414  0.87520  1.0000
  H   H5639     1.0  0.59380  0.83117  0.85849  1.0000
  H   H5640     1.0  0.58145  0.85379  0.85265  1.0000
  N   N236      1.0  0.53490  0.79041  0.79350  1.0000
  C   C3314     1.0  0.52270  0.81711  0.80948  1.0000
  Fe  Fe476     1.0  0.65754  0.97761  0.73286  1.0000
  H   H5641     1.0  0.55702  0.79702  0.80043  1.0000
  C   C3315     1.0  0.62685  0.96410  0.83604  1.0000
  H   H5642     1.0  0.58606  0.95993  0.88726  1.0000
  H   H5643     1.0  0.56199  0.77144  0.82531  1.0000
  H   H5644     1.0  0.71840  0.66769  0.78384  1.0000
  H   H5645     1.0  0.56328  0.83221  0.81234  1.0000
  S   S953      1.0  0.52142  0.68059  0.83117  1.0000
  C   C3316     1.0  0.64688  0.82863  0.73504  1.0000
  H   H5646     1.0  0.55456  0.85547  0.80954  1.0000
  C   C3317     1.0  0.55432  0.84261  0.81938  1.0000
  C   C3318     1.0  0.51045  0.87431  0.82824  1.0000
  H   H5647     1.0  0.54989  0.78157  0.75862  1.0000
  H   H5648     1.0  0.72515  0.68679  0.78598  1.0000
  H   H5649     1.0  0.67197  0.88707  0.77864  1.0000
  H   H5650     1.0  0.62936  0.87564  0.77465  1.0000
  H   H5651     1.0  0.65510  0.95078  0.82804  1.0000
  N   N237      1.0  0.57542  0.69460  0.84355  1.0000
  H   H5652     1.0  0.53923  0.81877  0.84645  1.0000
  C   C3319     1.0  0.57075  0.72518  0.82147  1.0000
  H   H5653     1.0  0.66211  0.88263  0.74532  1.0000
  H   H5654     1.0  0.52673  0.80799  0.76969  1.0000
  H   H5655     1.0  0.50182  0.78347  0.78938  1.0000
  H   H5656     1.0  0.63392  0.89479  0.79845  1.0000
  H   H5657     1.0  0.70800  0.69108  0.76060  1.0000
  H   H5658     1.0  0.59835  0.65772  0.84231  1.0000
  S   S954      1.0  0.51611  0.68066  0.79060  1.0000
  H   H5659     1.0  0.62111  0.81961  0.74269  1.0000
  S   S955      1.0  0.66655  0.76709  0.74229  1.0000
  S   S956      1.0  0.50549  0.76865  0.85005  1.0000
  C   C3320     1.0  0.51957  0.90643  0.90308  1.0000
  H   H5660     1.0  0.70592  0.67905  0.80121  1.0000
  C   C3321     1.0  0.57198  0.79985  0.83709  1.0000
  C   C3322     1.0  0.62120  0.88937  0.77234  1.0000
  H   H5661     1.0  0.52075  0.91386  0.91269  1.0000
  H   H5662     1.0  0.54397  0.81381  0.77614  1.0000
  C   C3323     1.0  0.58965  0.96607  0.96912  1.0000
  H   H5663     1.0  0.51250  0.76283  0.78267  1.0000
  C   C3324     1.0  0.49864  0.86346  0.83927  1.0000
  H   H5664     1.0  0.56820  0.78780  0.84673  1.0000
  C   C3325     1.0  0.65661  0.91914  0.76111  1.0000
  H   H5665     1.0  0.67193  0.73319  0.76808  1.0000
  C   C3326     1.0  0.58033  0.70219  0.85690  1.0000
  H   H5666     1.0  0.61404  0.96373  0.83279  1.0000
  H   H5667     1.0  0.62619  0.95645  0.85000  1.0000
  H   H5668     1.0  0.51669  0.88058  0.90209  1.0000
  H   H5669     1.0  0.65575  0.92355  0.79377  1.0000
  H   H5670     1.0  0.59734  0.72054  0.83805  1.0000
  H   H5671     1.0  0.61283  0.89263  0.78515  1.0000
  N   N238      1.0  0.64758  0.90370  0.77116  1.0000
  C   C3327     1.0  0.67702  0.71865  0.76851  1.0000
  H   H5672     1.0  0.62011  0.84014  0.74953  1.0000
  H   H5673     1.0  0.56902  0.71267  0.86179  1.0000
  H   H5674     1.0  0.51020  0.82340  0.81778  1.0000
  C   C3328     1.0  0.63268  0.90346  0.76257  1.0000
  H   H5675     1.0  0.55115  0.79730  0.87430  1.0000
  H   H5676     1.0  0.59610  0.94753  0.80481  1.0000
  C   C3329     1.0  0.56524  0.67998  0.85350  1.0000
  C   C3330     1.0  0.55136  0.78516  0.80151  1.0000
  H   H5677     1.0  0.62825  0.87950  0.73213  1.0000
  H   H5678     1.0  0.62736  0.91804  0.78962  1.0000
  C   C3331     1.0  0.55348  0.79321  0.76116  1.0000
  C   C3332     1.0  0.66101  0.88624  0.77265  1.0000
  H   H5679     1.0  0.58725  0.68227  0.82071  1.0000
  H   H5680     1.0  0.72473  0.71829  0.78306  1.0000
  H   H5681     1.0  0.52624  0.82740  0.79745  1.0000
  H   H5682     1.0  0.57964  0.80393  0.85947  1.0000
  C   C3333     1.0  0.62323  0.96569  0.76704  1.0000
  H   H5683     1.0  0.50764  0.80567  0.79812  1.0000
  C   C3334     1.0  0.65139  0.91071  0.80011  1.0000
  H   H5684     1.0  0.64366  0.91201  0.81375  1.0000
  C   C3335     1.0  0.70090  0.69265  0.77440  1.0000
  H   H5685     1.0  0.49214  0.66748  0.76698  1.0000
  C   C3336     1.0  0.49870  0.75466  0.84018  1.0000
  H   H5686     1.0  0.51796  0.78299  0.76836  1.0000
  H   H5687     1.0  0.58456  0.79481  0.82803  1.0000
  H   H5688     1.0  0.66413  0.72064  0.74672  1.0000
  H   H5689     1.0  0.60620  0.67130  0.85260  1.0000
  C   C3337     1.0  0.65953  0.92328  0.74057  1.0000
  H   H5690     1.0  0.65510  0.87524  0.78233  1.0000
  H   H5691     1.0  0.49645  0.89216  0.88714  1.0000
  C   C3338     1.0  0.53905  0.80215  0.77527  1.0000
  C   C3339     1.0  0.57585  0.81254  0.84690  1.0000
  C   C3340     1.0  0.52027  0.87661  0.85409  1.0000
  C   C3341     1.0  0.54271  0.82344  0.85690  1.0000
  H   H5692     1.0  0.68122  0.73360  0.81169  1.0000
  S   S957      1.0  0.64053  0.97776  0.76061  1.0000
  Fe  Fe477     1.0  0.64479  0.97184  0.90425  1.0000
  H   H5693     1.0  0.60004  0.69632  0.82342  1.0000
  H   H5694     1.0  0.60975  0.70004  0.84885  1.0000
  H   H5695     1.0  0.50470  0.89149  0.94594  1.0000
  H   H5696     1.0  0.69073  0.74315  0.78924  1.0000
  H   H5697     1.0  0.64666  0.92898  0.73603  1.0000
  C   C3342     1.0  0.70748  0.72326  0.76323  1.0000
  N   N239      1.0  0.69432  0.71221  0.77521  1.0000
  H   H5698     1.0  0.66991  0.91722  0.76454  1.0000
  H   H5699     1.0  0.51124  0.87763  0.81395  1.0000
  H   H5700     1.0  0.68937  0.68580  0.77770  1.0000
  H   H5701     1.0  0.56140  0.73321  0.81263  1.0000
  H   H5702     1.0  0.66318  0.89975  0.80185  1.0000
  H   H5703     1.0  0.65421  0.83350  0.74239  1.0000
  H   H5704     1.0  0.55910  0.70267  0.82352  1.0000
  H   H5705     1.0  0.57130  0.73397  0.83010  1.0000
  H   H5706     1.0  0.51591  0.71827  0.82105  1.0000
  H   H5707     1.0  0.54808  0.69410  0.87473  1.0000
  H   H5708     1.0  0.68229  0.70188  0.74840  1.0000
  C   C3343     1.0  0.69011  0.71442  0.79431  1.0000
  H   H5709     1.0  0.73108  0.73280  0.76283  1.0000
  H   H5710     1.0  0.66837  0.73832  0.79507  1.0000
  C   C3344     1.0  0.67062  0.87968  0.75521  1.0000
  H   H5711     1.0  0.51038  0.91499  0.89432  1.0000
  H   H5712     1.0  0.71094  0.72056  0.74951  1.0000
  H   H5713     1.0  0.58253  0.69178  0.86909  1.0000
  C   C3345     1.0  0.56329  0.70867  0.83269  1.0000
  C   C3346     1.0  0.59158  0.68648  0.83103  1.0000
  H   H5714     1.0  0.73540  0.70919  0.76324  1.0000
  H   H5715     1.0  0.67465  0.86487  0.75830  1.0000
  H   H5716     1.0  0.62332  0.91668  0.76146  1.0000
  H   H5717     1.0  0.58396  0.72180  0.81265  1.0000
  H   H5718     1.0  0.72043  0.98040  0.88734  1.0000
  H   H5719     1.0  0.52552  0.76581  0.80598  1.0000
  H   H5720     1.0  0.51438  0.79182  0.81758  1.0000
  Fe  Fe478     1.0  0.50627  0.65500  0.80342  1.0000
  H   H5721     1.0  0.53306  0.90374  0.89432  1.0000
  H   H5722     1.0  0.54452  0.76233  0.82310  1.0000
  H   H5723     1.0  0.56260  0.67324  0.84395  1.0000
  H   H5724     1.0  0.64857  0.93184  0.76511  1.0000
  H   H5725     1.0  0.70195  0.70941  0.80059  1.0000
  C   C3347     1.0  0.71336  0.68118  0.78710  1.0000
  H   H5726     1.0  0.55070  0.71419  0.84141  1.0000
  H   H5727     1.0  0.64284  0.97667  0.86680  1.0000
  Fe  Fe479     1.0  0.51130  0.65512  0.84004  1.0000
  H   H5728     1.0  0.53318  0.81346  0.81748  1.0000
  H   H5729     1.0  0.52754  0.80427  0.87528  1.0000
  C   C3348     1.0  0.62852  0.82697  0.74747  1.0000
  H   H5730     1.0  0.68284  0.88532  0.74893  1.0000
  H   H5731     1.0  0.63761  0.90158  0.74863  1.0000
  H   H5732     1.0  0.57332  0.66942  0.86224  1.0000
  H   H5733     1.0  0.52366  0.88087  0.92121  1.0000
  H   H5734     1.0  0.52497  0.73801  0.83536  1.0000
  H   H5735     1.0  0.50994  0.85413  0.91341  1.0000
  H   H5736     1.0  0.68630  0.72443  0.73914  1.0000
  H   H5737     1.0  0.49916  0.86445  0.94198  1.0000
  H   H5738     1.0  0.61944  0.96579  0.79493  1.0000
  S   S958      1.0  0.68068  0.65062  0.81300  1.0000
  C   C3349     1.0  0.51468  0.77621  0.78255  1.0000
  H   H5739     1.0  0.61012  0.96329  0.90007  1.0000
  H   H5740     1.0  0.54253  0.67360  0.87463  1.0000
  H   H5741     1.0  0.62319  0.96381  0.74041  1.0000
  H   H5742     1.0  0.58087  0.97474  0.96001  1.0000
  H   H5743     1.0  0.64352  0.95989  0.80968  1.0000
  H   H5744     1.0  0.66640  0.71189  0.77779  1.0000
  H   H5745     1.0  0.60154  0.97184  0.96737  1.0000
  H   H5746     1.0  0.68046  0.70599  0.80255  1.0000
  H   H5747     1.0  0.61169  0.88960  0.76407  1.0000
  C   C3350     1.0  0.49537  0.85822  0.91864  1.0000
  C   C3351     1.0  0.68222  0.73358  0.79743  1.0000
  H   H5748     1.0  0.66781  0.93362  0.73516  1.0000
  C   C3352     1.0  0.67783  0.71606  0.74961  1.0000
  H   H5749     1.0  0.70140  0.73783  0.76108  1.0000
  Fe  Fe480     1.0  0.49959  0.69024  0.81547  1.0000
  C   C3353     1.0  0.50606  0.72902  0.82611  1.0000
  H   H5750     1.0  0.66682  0.91170  0.73449  1.0000
  C   C3354     1.0  0.64208  0.95334  0.82400  1.0000
  H   H5751     1.0  0.63888  0.94010  0.82544  1.0000
  C   C3355     1.0  0.50838  0.86588  0.86507  1.0000
  C   C3356     1.0  0.51395  0.88846  0.91253  1.0000
  C   C3357     1.0  0.65172  0.97217  0.85477  1.0000
  H   H5752     1.0  0.61530  0.98223  0.86248  1.0000
  H   H5753     1.0  0.50773  0.86232  0.87929  1.0000
  H   H5754     1.0  0.59020  0.97840  0.85483  1.0000
  N   N240      1.0  0.49500  0.88975  0.92324  1.0000
  S   S959      1.0  0.68649  0.96397  0.73117  1.0000
  H   H5755     1.0  0.49573  0.91252  0.93343  1.0000
  H   H5756     1.0  0.65457  0.81481  0.73409  1.0000
  H   H5757     1.0  0.54121  0.65158  0.85457  1.0000
  H   H5758     1.0  0.59462  0.95309  0.96476  1.0000
  H   H5759     1.0  0.66543  0.97338  0.85479  1.0000
  S   S960      1.0  0.64743  0.97719  0.92997  1.0000
  C   C3358     1.0  0.49760  0.85933  0.85772  1.0000
  C   C3359     1.0  0.49380  0.89852  0.93849  1.0000
  C   C3360     1.0  0.49133  0.87123  0.93133  1.0000
  H   H5760     1.0  0.49063  0.84579  0.92627  1.0000
