data_image0
_chemical_formula_structural       FeCFeHSFeHS3FeHSHC2H2CSCNC6H3C3H2CHC2H3SH3CH2SH2CH2FeSCFeS2Fe2S3H2FeS2FeS2FeSFeS4C6H4C2H6C6H4C3HC3H6C5H9CHCH4CH5CH2CHC2HCHCH5CSHC2HCH2C3FeH2NH4CH2CHC2HCNC5HCH16CHCH6C2HC2H4CSH2NH6CH2NC7H14NCH3CHCH3CH3CHCSHCH2NH5CH3CH3C2H3SC3HSFe3HSHS3H5CHCHC2NHSH9CH2C2HSH3CH3NC2SH3C2HC2HCHNCHSHCHFeHC4HNC4H2SH6CHC2HCHCH2CHC3H4C2FeC2HC2FeCH3CH4SH9SCH2CH3C2H3NHCSHCHSHCHC3H2CH2CSCHCHFeH3CHSH3CSH2C4H2FeH2C2HSHCSNHSFeHSH2FeHCH3CH4SH2FeHC2SH3NCH4C2SCHCFeC3H4SH2C2HCHCH3NFeS2FeS2FeSFeS3HCHFeCSCFeSHSFeSHFeS2FeSFeS3FeS2FeS2FeSFeS2H2SFeSFeS2Fe2S3C5H2C6H4C6H3SH4C7H4C6HCH3C2H5C6H4C6H4C2H2C7H4C3H3CNH8CS2HNC8H13CHCHC3HCH2C2H7CNFeC2H6CH4CH3CHCH5CH3SC2HNC8H8CH2SH8NC7H17CHCNFeHC2HCHCHCH4C2HSH3CH2CH2CH3CH5NCNH3NHC2H3NH5C2H5CH2SCH3C2HC2H5CHSFeH8CH7CH7SC2H6C4H8CHC2H3SHFeHSC2H2C2H10FeS2FeS2FeSFeS3FeS2FeSFeSFeS3H5FeSCSHFeSFeS2FeSFeS3FeS2FeS2FeSFeS3H2C6H4SHCHC6H4C6H4C6H3C6H4C3H2C2H3C6H4CHCFeH3C7H3CNC2H2C4H4CH2CH3CHC2H4CSHCHCH4CH7SHNHCH4CSC2H4NH9NC8H12CH4CHCNC8H22CH7CH2CH2CSH3C2HNH2C2H4FeCH8C3NC8H20NC3H2CH4CH2SH6CHC3H3C3H2CHFeH6C2H2C2H2CHCHC2H3NC4H2CH9CH2CHCH3C5HCH3SH3CH4CH2SH3NH2SCHCH2CS2Fe2S2FeS3C3HC6H6NC2SHC2H2SH2C2H3SFe2SHC2H2CHCH4Fe2HCHCH2CHCH3NH2CHSHC3SH6CH5C2H3NH3CHSH2FeHCHC2NHSHSH2C4H2CFeH2CH4SCH2C2H7CH3CH2CH6Fe2S2FeS2FeSFeS3H2C4H2CH2SHC6H8CH5C6H4CHC2H4CH2C2H3C2HC2H2CHCHCH4CSCHCH2CHCH2CH4NH3CNHNC3HCH2C4H5C2H17FeS2FeS2FeHFeS3H6SFeS2FeS2FeSFeS4C6H6C4H4C6H4CH3CH7C6H4C6H7C2HCH3CHC3H3CH2CH2NCSC2H2NCH2CHNCHC3H2C2HC2H8SC3HCHCNC8H20C7HSH4NH2NH2CHFeHCH5CH2NC4HCHCH12CH4CH3CHCH6C3H4NCHCHCH5SH8CH2CSC3H2CHSHC2HSHFeH4C3H2CFeS2FeS2FeSHFeS2Fe2S3CSHSHFeSFeSHFeH2FeS2H2FeS3FeH2FeSCFeSCSHNHCSC7H4C6HCFeNC6H4C6H5C2HC3H5C3H3SC3H3C2NHSH2C2H2CH7CH2CHSHCH2SH3CH2CH2FeHCH2SCHCSCHNHCHFeHCHC2HCSH3NC8H20NC8H20CH6C2SH4CH4CH2CSCH2CH2CH4SH2CH3SFeS2FeS2FeSFeHS2FeS2FeS2HFeCS2H2SH5C2H4C6H4C6H6C5H4C4H5CH6C2HCH2SC2H3CH2C2HNSH3CH2CSH3SCHCH2CFeH4CNC8H2NH9C2H2CH2CHFeSCH4CH3C2H2CHSH2C2H2C3HC2H7SH3CH4CH2C2HNCH3CH3CH2C4FeS2FeSHFeSFeS3H3FeSHSCFeSHFeS2FeSFeS4C6H4SCSH2C5H2C2FeC3H2NH2CNC6H4C6H4C2H2C2HFeH3CHCH3CHNCHSH4CH7CH2CH3C2HC2SH3CH2SH4C3H3C3H2CH4CHC5H4NH4NC8H20NC8H16C2HCFeC2H7C2HCH5CSH3CH6CH3SC2H4CSHFeS2FeS2FeSFeS4H2SHC2H3NH4CHC6H5C2H3C6H4FeHC3HCH2CH3FeH3CHCHC2HCH3C2FeH9CH2C3H5CH2CH2CNSNH5CH7S2HNCHCH8CH2C2H3CHCH2CSH3CHC3H5CHCSCSFeSFe2SFeHSCHS2CSFeH2SH9CHSH2C2FeC7H6C2SH15CFeHCH2NSHCH2CH3NC4HC4H8S2HCH7CSHCH3C2H2CHFeCH2CH2CH2CH3CS2FeS2FeS2FeSFeS3FeHSH2CHFeSH2SFeSFeSH2FeS2FeSFeSFeS3FeS2FeS2FeSFeHS2FeSHC3NC2H3C7H4C6H4C6H9C3HNH2C6H4C9H4C6H4C3H6C4H10CH3C2HCH3CH2CH2C2H8CH6CHC4H3C3H2SCH4CH3CH5C2SCH2NC8H10CH4CH7CH2CH12CH2C2HNH4NCH4CH2C2H2CHNC9H3CH3CH13CHCH3SCH2C2HC2H2C2HCH4CNCHC4H2CSHCH3C3HCH2CH3SCHCH2CH7NH2CH3NFeHCH4CSHCHCH2CNH3C5H5CHSH3SC4HCH3CFeH5CH4C2HFeCH5C3HN2H2C2HCH3C2HCHFeSFeS2FeSFeS4FeS2FeS2FeCFeHS2FeSHCSFeSFeSHSFeS2FeSFeS3FeSFeS2FeS2FeS2FeHSFe2S3C2H3CSHC6H4C6H4C3HC2H2C2HC2H2CHCH3C6H4C6H3C7H4CHC3H4CHSC6H4C6H7C2HCHCH3CH2FeCH2CH2CSH2C2H4CHNC5H5SH3NC8H20NC8H20CH3CH2CH2CH8NC4HC3H12SFeH10FeCHCHCH2CH2CH4FeHNHNHCH2NC4HC3H9CH6C2H4SHCS2HCSHCH9CHCH3CH2NH2CH3NCHSCHNHC2HCHCH2C2H4CH2C3H2CH8CHCHCH2SH3CH2CH3SHCH4FeSHSHFeSFeS2FeSFeCS2H2FeS2FeSH2SHFeNSFeHSHCFeHS2FeS2CFeSHSH3C3HCH2C6H4C6H4C6H4C6H4C2H3C3HSH2SH3SCH2CH3C2HSH2NH2CH2CH2C2H3CHFeH6CH2CNC6HCH4C2SH10CHSNC8H2FeH5C3H2FeHSH3CHCH2CHCHCH2CH12C2H3CHCHNCHCSHS2NH11CFeH6SHSH2C2FeHNC2HCH7CHFeH3FeS2FeS2FeHFeHS2H3CFeS2FeS2FeSFeS3C6H4C3HCH2C2H5C7H4CHSC2HC3NHCH2C2H2CH2CH3CH2NC8H20SH4NHCSCH2C2H7C2H2CHCH2C3H11CH2CFeH3CH2C2HCH5CHCH4CNC3H2C2H2CH2C2H3CH2NC3HC2HCH5C2H2NC3HC4HNCHCH7CH2CH5CH2C2H4CHCHCHCHSH6CH6
_chemical_formula_sum              "Fe216 C1512 H2592 S432 N108"
_cell_length_a       74.492
_cell_length_b       76.9608
_cell_length_c       45.4229
_cell_angle_alpha    84.3717
_cell_angle_beta     87.8181
_cell_angle_gamma    111.811

_space_group_name_H-M_alt    "P 1"
_space_group_IT_number       1

loop_
  _space_group_symop_operation_xyz
  'x, y, z'

loop_
  _atom_site_type_symbol
  _atom_site_label
  _atom_site_symmetry_multiplicity
  _atom_site_fract_x
  _atom_site_fract_y
  _atom_site_fract_z
  _atom_site_occupancy
  Fe  Fe1       1.0  0.22608  0.23430  0.07932  1.0000
  C   C1        1.0  0.27972  0.06747  0.48220  1.0000
  Fe  Fe2       1.0  0.25784  0.21834  0.07230  1.0000
  H   H1        1.0  0.43824  0.11796  0.08060  1.0000
  S   S1        1.0  0.26785  0.19551  0.05847  1.0000
  Fe  Fe3       1.0  0.25678  0.24155  0.12361  1.0000
  H   H2        1.0  0.46251  0.12835  0.01829  1.0000
  S   S2        1.0  0.23534  0.21466  0.10982  1.0000
  S   S3        1.0  0.24656  0.23541  0.04098  1.0000
  S   S4        1.0  0.29339  0.15367  0.36909  1.0000
  Fe  Fe4       1.0  0.24934  0.23002  0.39268  1.0000
  H   H3        1.0  0.41058  0.09474  0.06162  1.0000
  S   S5        1.0  0.25307  0.20526  0.41943  1.0000
  H   H4        1.0  0.36202  0.03556  0.32760  1.0000
  C   C2        1.0  0.39558  0.17801  0.34487  1.0000
  C   C3        1.0  0.38127  0.16945  0.32167  1.0000
  H   H5        1.0  0.43570  0.13935  0.00034  1.0000
  H   H6        1.0  0.40240  0.14265  0.07131  1.0000
  C   C4        1.0  0.22958  0.09414  0.47707  1.0000
  S   S6        1.0  0.22030  0.22963  0.38019  1.0000
  C   C5        1.0  0.25568  0.25221  0.25474  1.0000
  N   N1        1.0  0.40521  0.16551  0.35912  1.0000
  C   C6        1.0  0.26590  0.19236  0.40515  1.0000
  C   C7        1.0  0.27054  0.17967  0.42472  1.0000
  C   C8        1.0  0.27989  0.16846  0.41396  1.0000
  C   C9        1.0  0.28405  0.16937  0.38345  1.0000
  C   C10       1.0  0.27977  0.18235  0.36391  1.0000
  C   C11       1.0  0.27111  0.19412  0.37484  1.0000
  H   H7        1.0  0.26682  0.17851  0.44829  1.0000
  H   H8        1.0  0.28336  0.15874  0.42919  1.0000
  H   H9        1.0  0.26822  0.20437  0.35998  1.0000
  C   C12       1.0  0.28029  0.19843  0.02322  1.0000
  C   C13       1.0  0.29082  0.18705  0.01782  1.0000
  C   C14       1.0  0.47262  0.06062  0.22676  1.0000
  H   H10       1.0  0.24124  0.10342  0.41776  1.0000
  H   H11       1.0  0.29166  0.17698  0.03556  1.0000
  C   C15       1.0  0.33415  0.23134  0.42393  1.0000
  H   H12       1.0  0.33184  0.02081  0.31965  1.0000
  C   C16       1.0  0.40723  0.14808  0.04765  1.0000
  C   C17       1.0  0.23495  0.24043  0.20520  1.0000
  H   H13       1.0  0.22686  0.23577  0.18626  1.0000
  H   H14       1.0  0.44455  0.01966  0.21220  1.0000
  H   H15       1.0  0.36451  0.24387  0.01563  1.0000
  S   S7        1.0  0.26840  0.24818  0.16857  1.0000
  H   H16       1.0  0.34102  0.04762  0.45884  1.0000
  H   H17       1.0  0.04548  0.25203  0.00600  1.0000
  H   H18       1.0  0.25538  0.14214  0.46860  1.0000
  C   C18       1.0  0.32439  0.21314  0.40945  1.0000
  H   H19       1.0  0.38619  0.12844  0.41725  1.0000
  H   H20       1.0  0.22536  0.14352  0.00842  1.0000
  S   S8        1.0  0.27989  0.24359  0.08844  1.0000
  H   H21       1.0  0.40645  0.19167  0.33400  1.0000
  H   H22       1.0  0.32939  0.05845  0.36383  1.0000
  C   C19       1.0  0.27926  0.21137  0.00015  1.0000
  H   H23       1.0  0.36305  0.05793  0.33930  1.0000
  H   H24       1.0  0.38598  0.12381  0.03405  1.0000
  Fe  Fe5       1.0  0.31473  0.11938  0.45433  1.0000
  S   S9        1.0  0.30670  0.11169  0.40887  1.0000
  C   C20       1.0  0.40174  0.13187  0.02820  1.0000
  Fe  Fe6       1.0  0.34844  0.15631  0.42947  1.0000
  S   S10       1.0  0.34325  0.15120  0.38224  1.0000
  S   S11       1.0  0.37287  0.18078  0.44454  1.0000
  Fe  Fe7       1.0  0.31177  0.14251  0.39787  1.0000
  Fe  Fe8       1.0  0.33885  0.12106  0.39734  1.0000
  S   S12       1.0  0.35293  0.10230  0.37904  1.0000
  S   S13       1.0  0.31730  0.14954  0.44423  1.0000
  S   S14       1.0  0.34650  0.12686  0.44371  1.0000
  H   H25       1.0  0.27095  0.21997  0.00388  1.0000
  H   H26       1.0  0.25878  0.09253  0.41880  1.0000
  Fe  Fe9       1.0  0.43225  0.07289  0.22329  1.0000
  S   S15       1.0  0.41275  0.04708  0.20482  1.0000
  S   S16       1.0  0.46197  0.07628  0.23740  1.0000
  Fe  Fe10      1.0  0.40026  0.08833  0.23256  1.0000
  S   S17       1.0  0.37838  0.06357  0.21469  1.0000
  S   S18       1.0  0.39039  0.11102  0.24770  1.0000
  Fe  Fe11      1.0  0.39138  0.04601  0.24167  1.0000
  S   S19       1.0  0.37479  0.01995  0.27320  1.0000
  Fe  Fe12      1.0  0.40166  0.06700  0.17895  1.0000
  S   S20       1.0  0.38979  0.06306  0.13360  1.0000
  S   S21       1.0  0.41150  0.07037  0.26210  1.0000
  S   S22       1.0  0.42287  0.09327  0.19474  1.0000
  S   S23       1.0  0.43463  0.06885  0.00917  1.0000
  C   C21       1.0  0.40263  0.06219  0.10058  1.0000
  C   C22       1.0  0.39215  0.05586  0.07607  1.0000
  C   C23       1.0  0.40180  0.05694  0.04829  1.0000
  C   C24       1.0  0.42208  0.06462  0.04468  1.0000
  C   C25       1.0  0.43258  0.07050  0.06937  1.0000
  C   C26       1.0  0.42292  0.06920  0.09729  1.0000
  H   H27       1.0  0.37646  0.05040  0.07846  1.0000
  H   H28       1.0  0.39355  0.05228  0.02954  1.0000
  H   H29       1.0  0.44827  0.07642  0.06678  1.0000
  H   H30       1.0  0.43114  0.07419  0.11596  1.0000
  C   C27       1.0  0.48241  0.05340  0.24739  1.0000
  C   C28       1.0  0.23539  0.24460  0.25800  1.0000
  H   H31       1.0  0.21656  0.17638  0.33340  1.0000
  H   H32       1.0  0.38889  0.16819  0.30100  1.0000
  H   H33       1.0  0.32422  0.20081  0.42459  1.0000
  H   H34       1.0  0.39906  0.14492  0.32738  1.0000
  H   H35       1.0  0.24370  0.13406  0.42045  1.0000
  H   H36       1.0  0.19662  0.18270  0.32270  1.0000
  C   C29       1.0  0.38126  0.10986  0.28469  1.0000
  C   C30       1.0  0.38681  0.10045  0.30836  1.0000
  C   C31       1.0  0.37830  0.09863  0.33725  1.0000
  C   C32       1.0  0.36440  0.10643  0.34285  1.0000
  C   C33       1.0  0.35937  0.11648  0.31942  1.0000
  C   C34       1.0  0.36785  0.11825  0.29046  1.0000
  H   H37       1.0  0.39741  0.09426  0.30426  1.0000
  H   H38       1.0  0.38239  0.09096  0.35530  1.0000
  H   H39       1.0  0.34854  0.12241  0.32344  1.0000
  H   H40       1.0  0.36359  0.12568  0.27228  1.0000
  C   C35       1.0  0.37776  0.20427  0.42929  1.0000
  C   C36       1.0  0.38781  0.21916  0.44538  1.0000
  C   C37       1.0  0.39269  0.23806  0.43327  1.0000
  H   H41       1.0  0.33272  0.21336  0.38853  1.0000
  C   C38       1.0  0.37813  0.22728  0.38840  1.0000
  C   C39       1.0  0.37270  0.20840  0.40088  1.0000
  C   C40       1.0  0.30536  0.01608  0.29891  1.0000
  H   H42       1.0  0.32887  0.22793  0.44769  1.0000
  H   H43       1.0  0.37452  0.23037  0.36616  1.0000
  H   H44       1.0  0.36498  0.19707  0.38827  1.0000
  H   H45       1.0  0.28323  0.18331  0.34032  1.0000
  H   H46       1.0  0.37813  0.14188  0.37088  1.0000
  H   H47       1.0  0.21841  0.20064  0.33096  1.0000
  C   C41       1.0  0.42276  0.17755  0.37338  1.0000
  C   C42       1.0  0.41164  0.15539  0.33668  1.0000
  C   C43       1.0  0.41855  0.18739  0.39933  1.0000
  C   C44       1.0  0.42610  0.16809  0.31084  1.0000
  C   C45       1.0  0.18609  0.24669  0.07966  1.0000
  H   H48       1.0  0.43285  0.18891  0.35671  1.0000
  H   H49       1.0  0.41903  0.14657  0.34746  1.0000
  H   H50       1.0  0.21911  0.18309  0.22944  1.0000
  H   H51       1.0  0.43251  0.19666  0.40694  1.0000
  H   H52       1.0  0.41051  0.17715  0.41874  1.0000
  H   H53       1.0  0.41047  0.19650  0.39267  1.0000
  H   H54       1.0  0.44129  0.17072  0.31603  1.0000
  H   H55       1.0  0.42480  0.18187  0.30532  1.0000
  H   H56       1.0  0.42324  0.16099  0.29036  1.0000
  C   C46       1.0  0.32422  0.04704  0.34927  1.0000
  H   H57       1.0  0.42391  0.01456  0.19223  1.0000
  C   C47       1.0  0.31037  0.24671  0.41221  1.0000
  H   H58       1.0  0.26560  0.11646  0.40364  1.0000
  H   H59       1.0  0.09905  0.23223  0.08401  1.0000
  H   H60       1.0  0.09043  0.21504  0.04884  1.0000
  H   H61       1.0  0.21903  0.15625  0.26940  1.0000
  C   C48       1.0  0.38369  0.09259  0.01334  1.0000
  H   H62       1.0  0.20940  0.23316  0.23531  1.0000
  H   H63       1.0  0.28372  0.07393  0.45944  1.0000
  H   H64       1.0  0.37886  0.08583  0.03649  1.0000
  H   H65       1.0  0.34987  0.23397  0.42390  1.0000
  H   H66       1.0  0.41045  0.14530  0.41322  1.0000
  C   C49       1.0  0.23858  0.15659  0.00593  1.0000
  H   H67       1.0  0.30922  0.21081  0.40494  1.0000
  H   H68       1.0  0.32188  0.02035  0.45023  1.0000
  C   C50       1.0  0.39807  0.13766  0.40063  1.0000
  H   H69       1.0  0.34175  0.23789  0.03620  1.0000
  C   C51       1.0  0.39065  0.15105  0.38184  1.0000
  C   C52       1.0  0.30710  0.01733  0.46004  1.0000
  H   H70       1.0  0.21879  0.15004  0.30897  1.0000
  C   C53       1.0  0.43291  0.00782  0.20416  1.0000
  H   H71       1.0  0.11572  0.21115  0.06680  1.0000
  C   C54       1.0  0.33538  0.05301  0.47729  1.0000
  H   H72       1.0  0.48275  0.05698  0.26986  1.0000
  H   H73       1.0  0.45306  0.01251  0.16557  1.0000
  H   H74       1.0  0.37342  0.17888  0.31550  1.0000
  H   H75       1.0  0.33314  0.07367  0.44266  1.0000
  H   H76       1.0  0.23217  0.12922  0.48769  1.0000
  C   C55       1.0  0.23275  0.07545  0.48370  1.0000
  S   S24       1.0  0.22238  0.24032  0.29320  1.0000
  H   H77       1.0  0.09503  0.21319  0.01140  1.0000
  C   C56       1.0  0.18366  0.24715  0.11021  1.0000
  C   C57       1.0  0.22813  0.15602  0.28793  1.0000
  H   H78       1.0  0.30624  0.23826  0.46170  1.0000
  C   C58       1.0  0.25522  0.24733  0.20227  1.0000
  H   H79       1.0  0.45625  0.01150  0.25128  1.0000
  H   H80       1.0  0.40306  0.13824  0.00466  1.0000
  C   C59       1.0  0.26304  0.11224  0.45215  1.0000
  C   C60       1.0  0.10081  0.24680  0.07595  1.0000
  C   C61       1.0  0.33819  0.25135  0.37720  1.0000
  Fe  Fe13      1.0  0.23612  0.24649  0.33708  1.0000
  H   H81       1.0  0.48309  0.04224  0.16618  1.0000
  H   H82       1.0  0.40179  0.12809  0.38703  1.0000
  N   N2        1.0  0.33132  0.24861  0.40969  1.0000
  H   H83       1.0  0.22182  0.09308  0.45667  1.0000
  H   H84       1.0  0.18954  0.23932  0.12546  1.0000
  H   H85       1.0  0.28628  0.24136  0.44496  1.0000
  H   H86       1.0  0.38214  0.05672  0.31612  1.0000
  C   C62       1.0  0.22510  0.23901  0.23300  1.0000
  H   H87       1.0  0.43273  0.01346  0.28202  1.0000
  H   H88       1.0  0.40040  0.24942  0.44586  1.0000
  C   C63       1.0  0.40559  0.10483  0.00941  1.0000
  H   H89       1.0  0.23492  0.14574  0.28381  1.0000
  C   C64       1.0  0.48263  0.04507  0.18900  1.0000
  C   C65       1.0  0.38808  0.24218  0.40455  1.0000
  H   H90       1.0  0.31008  0.05617  0.45673  1.0000
  C   C66       1.0  0.29828  0.23630  0.44155  1.0000
  N   N3        1.0  0.33512  0.04745  0.29373  1.0000
  C   C67       1.0  0.32959  0.05283  0.26348  1.0000
  C   C68       1.0  0.32755  0.02619  0.29873  1.0000
  C   C69       1.0  0.35693  0.05503  0.29255  1.0000
  C   C70       1.0  0.32691  0.05609  0.31658  1.0000
  C   C71       1.0  0.33716  0.07414  0.25241  1.0000
  H   H91       1.0  0.36602  0.01857  0.21192  1.0000
  C   C72       1.0  0.36613  0.05083  0.32081  1.0000
  H   H92       1.0  0.39931  0.15735  0.04092  1.0000
  H   H93       1.0  0.33465  0.04593  0.24621  1.0000
  H   H94       1.0  0.31356  0.04775  0.26302  1.0000
  H   H95       1.0  0.39186  0.21606  0.46732  1.0000
  H   H96       1.0  0.37478  0.10071  0.00586  1.0000
  H   H97       1.0  0.36282  0.04973  0.27418  1.0000
  H   H98       1.0  0.36301  0.07053  0.28729  1.0000
  H   H99       1.0  0.33612  0.07134  0.31612  1.0000
  H   H100      1.0  0.31237  0.05571  0.31082  1.0000
  H   H101      1.0  0.35294  0.07992  0.24587  1.0000
  H   H102      1.0  0.33008  0.07630  0.23205  1.0000
  H   H103      1.0  0.33389  0.08252  0.26882  1.0000
  H   H104      1.0  0.27082  0.10326  0.46104  1.0000
  H   H105      1.0  0.08645  0.24810  0.07721  1.0000
  H   H106      1.0  0.37025  0.15547  0.33034  1.0000
  H   H107      1.0  0.23418  0.16830  0.01130  1.0000
  C   C73       1.0  0.42358  0.11810  0.08532  1.0000
  H   H108      1.0  0.46530  0.06199  0.18144  1.0000
  C   C74       1.0  0.12865  0.22432  0.06119  1.0000
  H   H109      1.0  0.29954  0.02379  0.44446  1.0000
  H   H110      1.0  0.41608  0.02485  0.27751  1.0000
  H   H111      1.0  0.23993  0.19280  0.20382  1.0000
  H   H112      1.0  0.32884  0.23950  0.36571  1.0000
  H   H113      1.0  0.31668  0.24674  0.04236  1.0000
  H   H114      1.0  0.29108  0.22101  0.43991  1.0000
  C   C75       1.0  0.42497  0.01870  0.26520  1.0000
  C   C76       1.0  0.47252  0.05621  0.19761  1.0000
  H   H115      1.0  0.41802  0.10970  0.10741  1.0000
  C   C77       1.0  0.44700  0.11899  0.01850  1.0000
  C   C78       1.0  0.09360  0.22324  0.02658  1.0000
  H   H116      1.0  0.38433  0.15789  0.39756  1.0000
  H   H117      1.0  0.07349  0.23813  0.03141  1.0000
  H   H118      1.0  0.43529  0.03048  0.24968  1.0000
  H   H119      1.0  0.30250  0.23867  0.39442  1.0000
  C   C79       1.0  0.12889  0.23442  0.03009  1.0000
  S   S25       1.0  0.19650  0.23174  0.06567  1.0000
  H   H120      1.0  0.35112  0.05404  0.99335  1.0000
  H   H121      1.0  0.23728  0.17236  0.22827  1.0000
  N   N4        1.0  0.41295  0.11908  0.03115  1.0000
  H   H122      1.0  0.13025  0.23385  0.07855  1.0000
  H   H123      1.0  0.33214  0.03768  0.35447  1.0000
  H   H124      1.0  0.41300  0.09464  0.01095  1.0000
  H   H125      1.0  0.33424  0.02071  0.28125  1.0000
  H   H126      1.0  0.38074  0.08108  0.99911  1.0000
  H   H127      1.0  0.22941  0.14395  0.43961  1.0000
  C   C80       1.0  0.43409  0.13051  0.02199  1.0000
  H   H128      1.0  0.38733  0.18215  0.36201  1.0000
  H   H129      1.0  0.14148  0.22023  0.06180  1.0000
  N   N5        1.0  0.24075  0.19274  0.28123  1.0000
  C   C81       1.0  0.25315  0.20850  0.29768  1.0000
  C   C82       1.0  0.21994  0.19064  0.28752  1.0000
  C   C83       1.0  0.24665  0.19880  0.24854  1.0000
  C   C84       1.0  0.24434  0.17514  0.29161  1.0000
  C   C85       1.0  0.27532  0.21501  0.29118  1.0000
  C   C86       1.0  0.21268  0.18733  0.32065  1.0000
  C   C87       1.0  0.23478  0.18573  0.22683  1.0000
  H   H130      1.0  0.24942  0.22113  0.29323  1.0000
  H   H131      1.0  0.25013  0.20449  0.32201  1.0000
  H   H132      1.0  0.20965  0.17904  0.27688  1.0000
  H   H133      1.0  0.21774  0.20344  0.27755  1.0000
  H   H134      1.0  0.24606  0.21290  0.24217  1.0000
  H   H135      1.0  0.26193  0.20046  0.24317  1.0000
  H   H136      1.0  0.25804  0.17548  0.28034  1.0000
  H   H137      1.0  0.24656  0.17457  0.31579  1.0000
  H   H138      1.0  0.28021  0.22343  0.26904  1.0000
  H   H139      1.0  0.28273  0.22446  0.30767  1.0000
  H   H140      1.0  0.28029  0.20307  0.29296  1.0000
  H   H141      1.0  0.43141  0.16924  0.38148  1.0000
  H   H142      1.0  0.06220  0.21390  0.02580  1.0000
  H   H143      1.0  0.24390  0.07437  0.46795  1.0000
  N   N6        1.0  0.11213  0.24048  0.02429  1.0000
  C   C88       1.0  0.25640  0.10570  0.42179  1.0000
  H   H144      1.0  0.44079  0.14067  0.03788  1.0000
  H   H145      1.0  0.27440  0.12665  0.44757  1.0000
  H   H146      1.0  0.07503  0.23075  0.99507  1.0000
  C   C89       1.0  0.35851  0.00473  0.22410  1.0000
  H   H147      1.0  0.42287  0.15711  0.04496  1.0000
  C   C90       1.0  0.40960  0.10872  0.06215  1.0000
  H   H148      1.0  0.34305  0.23632  0.99657  1.0000
  H   H149      1.0  0.34866  0.06295  0.48595  1.0000
  H   H150      1.0  0.42487  0.13267  0.08750  1.0000
  C   C91       1.0  0.26828  0.04808  0.48849  1.0000
  H   H151      1.0  0.39457  0.10553  0.07174  1.0000
  H   H152      1.0  0.26354  0.03968  0.47045  1.0000
  H   H153      1.0  0.21958  0.11926  0.43769  1.0000
  C   C92       1.0  0.32456  0.06496  0.46314  1.0000
  H   H154      1.0  0.44391  0.10740  0.03681  1.0000
  C   C93       1.0  0.23321  0.13125  0.43999  1.0000
  S   S26       1.0  0.26446  0.24448  0.34827  1.0000
  H   H155      1.0  0.14285  0.24676  0.02723  1.0000
  C   C94       1.0  0.24234  0.12893  0.46923  1.0000
  H   H156      1.0  0.24875  0.15555  0.02265  1.0000
  H   H157      1.0  0.25521  0.13254  0.00392  1.0000
  N   N7        1.0  0.24763  0.11185  0.47506  1.0000
  H   H158      1.0  0.35311  0.25130  0.37454  1.0000
  H   H159      1.0  0.29735  0.02204  0.31331  1.0000
  H   H160      1.0  0.30056  0.01641  0.27610  1.0000
  H   H161      1.0  0.35504  0.02837  0.47440  1.0000
  H   H162      1.0  0.30858  0.03923  0.35628  1.0000
  C   C95       1.0  0.07520  0.22698  0.01927  1.0000
  H   H163      1.0  0.13009  0.22501  0.01360  1.0000
  H   H164      1.0  0.21899  0.06345  0.48157  1.0000
  H   H165      1.0  0.40176  0.00819  0.23680  1.0000
  C   C96       1.0  0.34995  0.24465  0.01455  1.0000
  H   H166      1.0  0.32308  0.07501  0.47810  1.0000
  H   H167      1.0  0.33440  0.00626  0.48495  1.0000
  H   H168      1.0  0.44516  0.11289  0.99712  1.0000
  C   C97       1.0  0.26552  0.25338  0.22707  1.0000
  C   C98       1.0  0.11529  0.24969  0.99254  1.0000
  H   H169      1.0  0.33177  0.03167  0.99170  1.0000
  H   H170      1.0  0.34160  0.25316  0.46997  1.0000
  H   H171      1.0  0.31727  0.24351  0.99128  1.0000
  S   S27       1.0  0.02047  0.22994  0.79716  1.0000
  C   C99       1.0  0.00631  0.22400  0.76655  1.0000
  C   C100      1.0  0.00450  0.22005  0.71376  1.0000
  C   C101      1.0  0.01540  0.22445  0.73862  1.0000
  H   H172      1.0  0.01164  0.22053  0.69232  1.0000
  S   S28       1.0  0.00300  0.21357  0.88416  1.0000
  Fe  Fe14      1.0  0.01036  0.23143  0.58376  1.0000
  Fe  Fe15      1.0  0.00781  0.23319  0.84161  1.0000
  Fe  Fe16      1.0  0.01606  0.24000  0.90657  1.0000
  H   H173      1.0  0.03095  0.22823  0.73618  1.0000
  S   S29       1.0  0.98921  0.20262  0.60433  1.0000
  H   H174      1.0  0.04905  0.23800  0.62583  1.0000
  S   S30       1.0  0.00321  0.24681  0.61901  1.0000
  S   S31       1.0  0.04161  0.24245  0.56320  1.0000
  S   S32       1.0  0.03218  0.24256  0.94911  1.0000
  H   H175      1.0  0.22133  0.10338  0.93950  1.0000
  H   H176      1.0  0.21883  0.09432  0.49468  1.0000
  H   H177      1.0  0.22871  0.04245  0.82002  1.0000
  H   H178      1.0  0.22180  0.04432  0.76597  1.0000
  H   H179      1.0  0.36311  0.25061  0.86821  1.0000
  C   C102      1.0  0.06263  0.24643  0.61315  1.0000
  H   H180      1.0  0.32763  0.05356  0.98992  1.0000
  C   C103      1.0  0.26353  0.13816  0.98196  1.0000
  H   H181      1.0  0.39738  0.22705  0.66076  1.0000
  C   C104      1.0  0.42127  0.01018  0.81056  1.0000
  C   C105      1.0  0.25562  0.11233  0.50524  1.0000
  N   N8        1.0  0.32958  0.24859  0.83381  1.0000
  H   H182      1.0  0.26807  0.14236  0.51250  1.0000
  S   S33       1.0  0.30059  0.10273  0.49892  1.0000
  H   H183      1.0  0.22848  0.12266  0.91122  1.0000
  H   H184      1.0  0.44428  0.24182  0.69356  1.0000
  H   H185      1.0  0.11437  0.23925  0.97671  1.0000
  H   H186      1.0  0.42197  0.23095  0.73435  1.0000
  H   H187      1.0  0.37503  0.00651  0.66921  1.0000
  H   H188      1.0  0.31541  0.24632  0.79248  1.0000
  H   H189      1.0  0.23302  0.06668  0.74413  1.0000
  H   H190      1.0  0.23657  0.04672  0.73200  1.0000
  H   H191      1.0  0.44671  0.22909  0.64879  1.0000
  C   C106      1.0  0.39993  0.23990  0.67172  1.0000
  H   H192      1.0  0.22059  0.01802  0.83351  1.0000
  H   H193      1.0  0.28581  0.00802  0.96360  1.0000
  C   C107      1.0  0.43409  0.24344  0.67719  1.0000
  C   C108      1.0  0.23512  0.05348  0.75196  1.0000
  H   H194      1.0  0.22656  0.12145  0.97781  1.0000
  S   S34       1.0  0.22961  0.00795  0.67592  1.0000
  H   H195      1.0  0.40441  0.25161  0.65309  1.0000
  H   H196      1.0  0.40700  0.00451  0.80250  1.0000
  H   H197      1.0  0.25607  0.10871  0.97357  1.0000
  C   C109      1.0  0.28600  0.07839  0.50541  1.0000
  H   H198      1.0  0.34838  0.23228  0.89575  1.0000
  H   H199      1.0  0.23666  0.07337  0.50675  1.0000
  H   H200      1.0  0.30015  0.01022  0.50747  1.0000
  N   N9        1.0  0.32385  0.03751  0.50153  1.0000
  C   C110      1.0  0.27941  0.06103  0.87637  1.0000
  C   C111      1.0  0.39172  0.24799  0.80498  1.0000
  S   S35       1.0  0.26483  0.00988  0.60679  1.0000
  H   H201      1.0  0.27715  0.12531  0.95064  1.0000
  H   H202      1.0  0.37397  0.22585  0.70339  1.0000
  H   H203      1.0  0.29132  0.02996  0.76553  1.0000
  C   C112      1.0  0.26903  0.12195  0.97271  1.0000
  C   C113      1.0  0.08000  0.25270  0.62742  1.0000
  H   H204      1.0  0.25799  0.17891  0.91577  1.0000
  C   C114      1.0  0.34816  0.24375  0.87905  1.0000
  C   C115      1.0  0.24257  0.02606  0.79661  1.0000
  H   H205      1.0  0.30515  0.24767  0.86225  1.0000
  C   C116      1.0  0.30688  0.03371  0.55410  1.0000
  H   H206      1.0  0.33089  0.05812  0.53309  1.0000
  N   N10       1.0  0.41568  0.24314  0.69290  1.0000
  C   C117      1.0  0.38312  0.10178  0.89760  1.0000
  H   H207      1.0  0.47195  0.09577  0.87602  1.0000
  S   S36       1.0  0.31047  0.20414  0.93064  1.0000
  H   H208      1.0  0.23932  0.16682  0.96027  1.0000
  C   C118      1.0  0.40957  0.22898  0.72040  1.0000
  H   H209      1.0  0.42593  0.23214  0.63488  1.0000
  Fe  Fe17      1.0  0.34593  0.15961  0.90467  1.0000
  H   H210      1.0  0.28845  0.22674  0.83256  1.0000
  C   C119      1.0  0.33675  0.02803  0.51440  1.0000
  C   C120      1.0  0.31798  0.04683  0.52592  1.0000
  C   C121      1.0  0.26152  0.08089  0.88639  1.0000
  C   C122      1.0  0.43740  0.01010  0.79353  1.0000
  H   H211      1.0  0.24369  0.03336  0.84245  1.0000
  N   N11       1.0  0.25921  0.04216  0.77948  1.0000
  C   C123      1.0  0.23360  0.03058  0.82461  1.0000
  C   C124      1.0  0.37209  0.13033  0.91741  1.0000
  C   C125      1.0  0.42681  0.10774  0.80884  1.0000
  C   C126      1.0  0.33756  0.04686  0.98277  1.0000
  H   H212      1.0  0.46648  0.10792  0.82438  1.0000
  H   H213      1.0  0.39261  0.09886  0.94126  1.0000
  S   S37       1.0  0.36604  0.14864  0.93012  1.0000
  H   H214      1.0  0.45580  0.07267  0.87051  1.0000
  H   H215      1.0  0.47220  0.03035  0.83979  1.0000
  H   H216      1.0  0.34901  0.03835  0.52459  1.0000
  H   H217      1.0  0.30198  0.04203  0.56890  1.0000
  H   H218      1.0  0.35223  0.03453  0.89885  1.0000
  H   H219      1.0  0.36945  0.23481  0.66786  1.0000
  C   C127      1.0  0.28856  0.21283  0.97195  1.0000
  H   H220      1.0  0.41624  0.10029  0.82811  1.0000
  C   C128      1.0  0.31827  0.23714  0.81070  1.0000
  C   C129      1.0  0.37456  0.11146  0.87870  1.0000
  H   H221      1.0  0.26453  0.16738  0.88742  1.0000
  C   C130      1.0  0.38063  0.12061  0.93639  1.0000
  H   H222      1.0  0.32840  0.02253  0.88650  1.0000
  C   C131      1.0  0.27858  0.09719  0.88060  1.0000
  H   H223      1.0  0.27925  0.03716  0.80977  1.0000
  H   H224      1.0  0.22244  0.13716  0.94996  1.0000
  C   C132      1.0  0.42491  0.06790  0.83644  1.0000
  H   H225      1.0  0.45473  0.05688  0.76640  1.0000
  C   C133      1.0  0.34213  0.04938  0.94889  1.0000
  C   C134      1.0  0.45578  0.01751  0.80412  1.0000
  C   C135      1.0  0.36315  0.22142  0.79504  1.0000
  H   H226      1.0  0.26079  0.10061  0.51014  1.0000
  H   H227      1.0  0.39347  0.20471  0.69608  1.0000
  H   H228      1.0  0.43865  0.06889  0.76006  1.0000
  H   H229      1.0  0.36258  0.13305  0.87369  1.0000
  C   C136      1.0  0.42343  0.01740  0.83813  1.0000
  C   C137      1.0  0.23275  0.11753  0.93250  1.0000
  Fe  Fe18      1.0  0.30570  0.14526  0.88365  1.0000
  C   C138      1.0  0.26326  0.03940  0.51797  1.0000
  C   C139      1.0  0.28053  0.06982  0.53484  1.0000
  H   H230      1.0  0.43215  0.04817  0.78755  1.0000
  C   C140      1.0  0.33348  0.23501  0.85659  1.0000
  C   C141      1.0  0.26194  0.06283  0.88452  1.0000
  Fe  Fe19      1.0  0.41884  0.05645  0.96979  1.0000
  C   C142      1.0  0.31664  0.06180  0.93478  1.0000
  H   H231      1.0  0.41351  0.20249  0.71519  1.0000
  H   H232      1.0  0.28462  0.13462  0.49208  1.0000
  H   H233      1.0  0.46833  0.01771  0.79106  1.0000
  C   C143      1.0  0.45794  0.02472  0.83168  1.0000
  H   H234      1.0  0.34292  0.08604  0.94228  1.0000
  H   H235      1.0  0.31725  0.01736  0.93873  1.0000
  H   H236      1.0  0.28407  0.03037  0.95428  1.0000
  H   H237      1.0  0.47800  0.08441  0.84691  1.0000
  S   S38       1.0  0.31645  0.15288  0.92796  1.0000
  H   H238      1.0  0.27913  0.01692  0.73696  1.0000
  H   H239      1.0  0.30009  0.02743  0.98167  1.0000
  H   H240      1.0  0.41906  0.11291  0.79180  1.0000
  H   H241      1.0  0.24883  0.05038  0.88960  1.0000
  H   H242      1.0  0.44857  0.10425  0.78003  1.0000
  H   H243      1.0  0.32871  0.01675  0.53262  1.0000
  H   H244      1.0  0.24635  0.11523  0.92839  1.0000
  H   H245      1.0  0.42329  0.21413  0.66546  1.0000
  H   H246      1.0  0.26807  0.14381  0.92051  1.0000
  S   S39       1.0  0.44527  0.03331  0.88375  1.0000
  C   C144      1.0  0.26527  0.03511  0.75241  1.0000
  H   H247      1.0  0.29379  0.07903  0.78883  1.0000
  H   H248      1.0  0.27080  0.05455  0.81856  1.0000
  C   C145      1.0  0.46573  0.08637  0.85885  1.0000
  H   H249      1.0  0.31986  0.22575  0.87002  1.0000
  H   H250      1.0  0.27912  0.12785  0.53096  1.0000
  H   H251      1.0  0.32708  0.23032  0.79956  1.0000
  C   C146      1.0  0.29631  0.07738  0.86992  1.0000
  C   C147      1.0  0.27679  0.02224  0.75807  1.0000
  H   H252      1.0  0.37914  0.22143  0.83352  1.0000
  H   H253      1.0  0.34651  0.04113  0.86289  1.0000
  H   H254      1.0  0.30985  0.07621  0.86317  1.0000
  N   N12       1.0  0.32561  0.04759  0.92977  1.0000
  H   H255      1.0  0.32269  0.05283  0.88275  1.0000
  C   C148      1.0  0.43588  0.09491  0.79539  1.0000
  S   S40       1.0  0.39314  0.03647  0.90052  1.0000
  H   H256      1.0  0.46747  0.08471  0.79078  1.0000
  C   C149      1.0  0.38598  0.10625  0.92662  1.0000
  H   H257      1.0  0.30917  0.10772  0.86769  1.0000
  S   S41       1.0  0.27768  0.11968  0.88325  1.0000
  H   H258      1.0  0.24406  0.11012  0.52317  1.0000
  C   C150      1.0  0.45372  0.07368  0.80157  1.0000
  H   H259      1.0  0.39874  0.23143  0.73536  1.0000
  C   C151      1.0  0.33367  0.05139  0.89771  1.0000
  C   C152      1.0  0.29420  0.06510  0.78518  1.0000
  C   C153      1.0  0.33032  0.08271  0.92864  1.0000
  H   H260      1.0  0.26883  0.00976  0.77434  1.0000
  H   H261      1.0  0.24703  0.01418  0.80403  1.0000
  C   C154      1.0  0.45511  0.09547  0.83769  1.0000
  H   H262      1.0  0.42532  0.08639  0.78079  1.0000
  H   H263      1.0  0.35472  0.06288  0.94243  1.0000
  C   C155      1.0  0.34049  0.03638  0.88632  1.0000
  S   S42       1.0  0.43067  0.06953  0.92300  1.0000
  C   C156      1.0  0.23296  0.13058  0.95649  1.0000
  H   H264      1.0  0.29365  0.02206  0.54900  1.0000
  C   C157      1.0  0.37984  0.23776  0.68537  1.0000
  H   H265      1.0  0.39099  0.19979  0.73492  1.0000
  Fe  Fe20      1.0  0.26177  0.00773  0.87752  1.0000
  H   H266      1.0  0.25236  0.02696  0.74105  1.0000
  H   H267      1.0  0.42124  0.07343  0.85662  1.0000
  H   H268      1.0  0.26536  0.04397  0.56389  1.0000
  C   C158      1.0  0.36894  0.12557  0.88860  1.0000
  H   H269      1.0  0.34640  0.06498  0.89351  1.0000
  S   S43       1.0  0.38880  0.05480  0.96204  1.0000
  H   H270      1.0  0.35050  0.22599  0.75455  1.0000
  H   H271      1.0  0.42870  0.05584  0.84532  1.0000
  H   H272      1.0  0.43819  0.12034  0.81594  1.0000
  C   C159      1.0  0.26471  0.15434  0.93209  1.0000
  S   S44       1.0  0.34547  0.19827  0.80419  1.0000
  H   H273      1.0  0.26529  0.06962  0.75519  1.0000
  H   H274      1.0  0.30691  0.06363  0.79560  1.0000
  C   C160      1.0  0.27280  0.13046  0.50999  1.0000
  C   C161      1.0  0.25628  0.16486  0.90935  1.0000
  C   C162      1.0  0.31034  0.02783  0.93484  1.0000
  C   C163      1.0  0.44178  0.02463  0.84886  1.0000
  H   H275      1.0  0.27919  0.16458  0.93661  1.0000
  H   H276      1.0  0.07961  0.24911  0.65114  1.0000
  Fe  Fe21      1.0  0.33772  0.18102  0.85005  1.0000
  H   H277      1.0  0.39542  0.04733  0.83646  1.0000
  H   H278      1.0  0.30832  0.05400  0.51780  1.0000
  C   C164      1.0  0.36203  0.23207  0.76869  1.0000
  C   C165      1.0  0.29436  0.02345  0.96023  1.0000
  H   H279      1.0  0.24799  0.08223  0.89267  1.0000
  S   S45       1.0  0.35107  0.19042  0.89210  1.0000
  H   H280      1.0  0.40723  0.05464  0.80018  1.0000
  C   C166      1.0  0.40163  0.20792  0.71594  1.0000
  S   S46       1.0  0.24984  0.01478  0.52486  1.0000
  N   N13       1.0  0.25227  0.14570  0.96078  1.0000
  H   H281      1.0  0.37231  0.10808  0.85622  1.0000
  S   S47       1.0  0.28135  0.03893  0.87401  1.0000
  Fe  Fe22      1.0  0.39992  0.06524  0.91464  1.0000
  H   H282      1.0  0.28520  0.07819  0.55294  1.0000
  S   S48       1.0  0.30728  0.17455  0.86881  1.0000
  H   H283      1.0  0.34814  0.03850  0.94500  1.0000
  H   H284      1.0  0.33884  0.22532  0.84556  1.0000
  Fe  Fe23      1.0  0.38423  0.02624  0.94872  1.0000
  H   H285      1.0  0.27402  0.04694  0.73532  1.0000
  C   C167      1.0  0.37805  0.22949  0.81323  1.0000
  H   H286      1.0  0.44681  0.10128  0.85210  1.0000
  H   H287      1.0  0.30043  0.21003  0.83715  1.0000
  H   H288      1.0  0.33533  0.08699  0.90479  1.0000
  C   C168      1.0  0.27549  0.04895  0.79933  1.0000
  H   H289      1.0  0.25092  0.06545  0.78879  1.0000
  H   H290      1.0  0.29686  0.06495  0.76112  1.0000
  H   H291      1.0  0.32227  0.09166  0.93447  1.0000
  H   H292      1.0  0.23064  0.02006  0.78222  1.0000
  S   S49       1.0  0.33491  0.15070  0.86090  1.0000
  H   H293      1.0  0.38316  0.12429  0.95862  1.0000
  H   H294      1.0  0.30238  0.02430  0.91463  1.0000
  Fe  Fe24      1.0  0.42309  0.03976  0.91223  1.0000
  H   H295      1.0  0.28733  0.22259  0.95407  1.0000
  C   C169      1.0  0.29915  0.20156  0.96657  1.0000
  C   C170      1.0  0.26931  0.05041  0.54112  1.0000
  S   S50       1.0  0.41362  0.02698  0.95986  1.0000
  H   H296      1.0  0.24084  0.15670  0.90645  1.0000
  H   H297      1.0  0.29163  0.21455  0.80258  1.0000
  H   H298      1.0  0.31002  0.05974  0.95772  1.0000
  N   N14       1.0  0.44195  0.08268  0.81763  1.0000
  C   C171      1.0  0.29597  0.09532  0.87240  1.0000
  H   H299      1.0  0.39847  0.06997  0.81874  1.0000
  H   H300      1.0  0.31616  0.02796  0.56712  1.0000
  H   H301      1.0  0.30430  0.05975  0.92073  1.0000
  H   H302      1.0  0.45812  0.06429  0.81743  1.0000
  C   C172      1.0  0.29861  0.22132  0.82190  1.0000
  C   C173      1.0  0.25332  0.05840  0.76958  1.0000
  S   S51       1.0  0.39034  0.08450  0.88389  1.0000
  C   C174      1.0  0.44391  0.06136  0.77759  1.0000
  H   H303      1.0  0.41086  0.01714  0.85120  1.0000
  C   C175      1.0  0.40564  0.05968  0.82167  1.0000
  Fe  Fe25      1.0  0.32042  0.18265  0.91145  1.0000
  C   C176      1.0  0.24857  0.16143  0.97414  1.0000
  C   C177      1.0  0.43205  0.22869  0.65556  1.0000
  C   C178      1.0  0.30034  0.18868  0.98964  1.0000
  H   H304      1.0  0.35502  0.01250  0.50562  1.0000
  H   H305      1.0  0.38005  0.25084  0.69358  1.0000
  H   H306      1.0  0.26233  0.17372  0.97453  1.0000
  H   H307      1.0  0.30857  0.18001  0.98578  1.0000
  S   S52       1.0  0.98879  0.23538  0.55265  1.0000
  H   H308      1.0  0.27719  0.14974  0.98619  1.0000
  H   H309      1.0  0.40900  0.11190  0.98612  1.0000
  C   C179      1.0  0.37531  0.25073  0.76093  1.0000
  C   C180      1.0  0.06296  0.25063  0.58243  1.0000
  H   H310      1.0  0.27872  0.11909  0.98886  1.0000
  C   C181      1.0  0.34564  0.01844  0.49311  1.0000
  H   H311      1.0  0.29386  0.02881  0.49148  1.0000
  C   C182      1.0  0.30572  0.02329  0.49138  1.0000
  H   H312      1.0  0.00093  0.25350  0.71255  1.0000
  H   H313      1.0  0.34407  0.25364  0.89135  1.0000
  H   H314      1.0  0.17241  0.36815  0.17415  1.0000
  N   N15       1.0  0.08473  0.45123  0.37068  1.0000
  Fe  Fe26      1.0  0.07304  0.40665  0.26875  1.0000
  S   S53       1.0  0.05638  0.39388  0.31279  1.0000
  S   S54       1.0  0.07013  0.43151  0.24133  1.0000
  Fe  Fe27      1.0  0.09076  0.37650  0.26668  1.0000
  S   S55       1.0  0.07561  0.36173  0.31123  1.0000
  S   S56       1.0  0.10908  0.36271  0.24413  1.0000
  Fe  Fe28      1.0  0.04971  0.36642  0.29415  1.0000
  S   S57       1.0  0.01986  0.34361  0.30285  1.0000
  Fe  Fe29      1.0  0.08369  0.39042  0.32603  1.0000
  S   S58       1.0  0.09673  0.39853  0.36954  1.0000
  S   S59       1.0  0.06427  0.37935  0.24889  1.0000
  S   S60       1.0  0.10114  0.40515  0.28282  1.0000
  H   H315      1.0  0.08853  0.43092  0.31978  1.0000
  C   C183      1.0  0.23028  0.28425  0.02170  1.0000
  H   H316      1.0  0.10928  0.45026  0.30341  1.0000
  Fe  Fe30      1.0  0.47158  0.46315  0.27121  1.0000
  C   C184      1.0  0.40599  0.46353  0.03918  1.0000
  S   S61       1.0  0.45991  0.44344  0.31459  1.0000
  C   C185      1.0  0.06790  0.43270  0.37068  1.0000
  Fe  Fe31      1.0  0.46044  0.47226  0.20874  1.0000
  S   S62       1.0  0.44146  0.45594  0.17391  1.0000
  H   H317      1.0  0.19874  0.34122  0.09354  1.0000
  S   S63       1.0  0.45126  0.47667  0.25432  1.0000
  Fe  Fe32      1.0  0.12458  0.30900  0.03182  1.0000
  S   S64       1.0  0.11168  0.29752  0.07866  1.0000
  H   H318      1.0  0.28896  0.29097  0.18635  1.0000
  Fe  Fe33      1.0  0.16282  0.33624  0.05349  1.0000
  S   S65       1.0  0.15253  0.32690  0.10147  1.0000
  S   S66       1.0  0.19214  0.35897  0.03737  1.0000
  Fe  Fe34      1.0  0.14148  0.29785  0.08725  1.0000
  S   S67       1.0  0.14761  0.27545  0.11603  1.0000
  Fe  Fe35      1.0  0.12399  0.32771  0.08876  1.0000
  S   S68       1.0  0.10693  0.34279  0.11099  1.0000
  S   S69       1.0  0.15357  0.30716  0.03997  1.0000
  S   S70       1.0  0.13507  0.33925  0.04120  1.0000
  Fe  Fe36      1.0  0.34074  0.41345  0.09729  1.0000
  S   S71       1.0  0.35480  0.40287  0.06237  1.0000
  S   S72       1.0  0.35690  0.43617  0.12651  1.0000
  Fe  Fe37      1.0  0.29940  0.38627  0.08566  1.0000
  S   S73       1.0  0.31082  0.37387  0.05008  1.0000
  S   S74       1.0  0.26814  0.37154  0.10576  1.0000
  Fe  Fe38      1.0  0.33372  0.37422  0.08090  1.0000
  S   S75       1.0  0.34143  0.34904  0.09262  1.0000
  Fe  Fe39      1.0  0.33070  0.40364  0.03415  1.0000
  S   S76       1.0  0.32114  0.38448  0.11769  1.0000
  S   S77       1.0  0.31787  0.41647  0.06787  1.0000
  H   H319      1.0  0.05682  0.43184  0.30199  1.0000
  H   H320      1.0  0.01044  0.38420  0.22949  1.0000
  S   S78       1.0  0.28352  0.28576  0.02724  1.0000
  Fe  Fe40      1.0  0.42480  0.32017  0.45327  1.0000
  S   S79       1.0  0.43419  0.31465  0.40851  1.0000
  Fe  Fe41      1.0  0.38600  0.31821  0.43447  1.0000
  S   S80       1.0  0.39204  0.31290  0.38817  1.0000
  S   S81       1.0  0.35772  0.31796  0.45418  1.0000
  Fe  Fe42      1.0  0.40400  0.29248  0.41002  1.0000
  Fe  Fe43      1.0  0.42160  0.33544  0.38960  1.0000
  S   S82       1.0  0.43863  0.35533  0.34866  1.0000
  S   S83       1.0  0.39582  0.29627  0.45647  1.0000
  S   S84       1.0  0.41438  0.34249  0.43423  1.0000
  C   C186      1.0  0.31413  0.30188  0.38413  1.0000
  C   C187      1.0  0.34686  0.31854  0.39744  1.0000
  C   C188      1.0  0.34068  0.31288  0.42748  1.0000
  C   C189      1.0  0.32106  0.30216  0.43595  1.0000
  C   C190      1.0  0.30779  0.29654  0.41425  1.0000
  H   H321      1.0  0.31620  0.29784  0.45920  1.0000
  H   H322      1.0  0.29271  0.28814  0.42080  1.0000
  C   C191      1.0  0.32704  0.33097  0.07344  1.0000
  C   C192      1.0  0.31767  0.31280  0.08832  1.0000
  C   C193      1.0  0.30419  0.29881  0.07421  1.0000
  C   C194      1.0  0.30072  0.30286  0.04480  1.0000
  C   C195      1.0  0.31092  0.32072  0.02933  1.0000
  C   C196      1.0  0.32387  0.33488  0.04382  1.0000
  H   H323      1.0  0.32045  0.30975  0.11102  1.0000
  H   H324      1.0  0.29645  0.28499  0.08618  1.0000
  H   H325      1.0  0.32300  0.26315  0.08601  1.0000
  H   H326      1.0  0.33136  0.34888  0.03214  1.0000
  C   C197      1.0  0.21320  0.36209  0.05640  1.0000
  C   C198      1.0  0.21240  0.35176  0.08385  1.0000
  C   C199      1.0  0.22930  0.35511  0.09892  1.0000
  C   C200      1.0  0.24726  0.36844  0.08634  1.0000
  C   C201      1.0  0.24817  0.37846  0.05856  1.0000
  C   C202      1.0  0.23116  0.37542  0.04382  1.0000
  H   H327      1.0  0.14896  0.40116  0.09477  1.0000
  H   H328      1.0  0.22851  0.34717  0.12027  1.0000
  H   H329      1.0  0.26195  0.38867  0.04858  1.0000
  S   S85       1.0  0.44423  0.32938  0.49057  1.0000
  H   H330      1.0  0.05809  0.35242  0.20406  1.0000
  H   H331      1.0  0.29207  0.25581  0.00003  1.0000
  H   H332      1.0  0.22157  0.28951  0.00674  1.0000
  H   H333      1.0  0.30885  0.30653  0.16175  1.0000
  C   C203      1.0  0.01256  0.40419  0.19173  1.0000
  C   C204      1.0  0.41786  0.45090  0.16119  1.0000
  C   C205      1.0  0.41120  0.43723  0.14148  1.0000
  C   C206      1.0  0.39246  0.43219  0.13136  1.0000
  C   C207      1.0  0.38028  0.44122  0.14002  1.0000
  C   C208      1.0  0.38694  0.45496  0.15963  1.0000
  C   C209      1.0  0.40552  0.45964  0.17043  1.0000
  H   H334      1.0  0.42052  0.43024  0.13435  1.0000
  H   H335      1.0  0.38744  0.42128  0.11691  1.0000
  H   H336      1.0  0.37765  0.46202  0.16660  1.0000
  H   H337      1.0  0.41037  0.47016  0.18557  1.0000
  C   C210      1.0  0.45329  0.41875  0.32273  1.0000
  C   C211      1.0  0.45961  0.40833  0.30425  1.0000
  C   C212      1.0  0.45447  0.38881  0.31211  1.0000
  C   C213      1.0  0.44305  0.37952  0.33857  1.0000
  C   C214      1.0  0.43643  0.38988  0.35680  1.0000
  C   C215      1.0  0.44169  0.40942  0.34902  1.0000
  H   H338      1.0  0.10136  0.43540  0.38871  1.0000
  C   C216      1.0  0.09965  0.44902  0.39076  1.0000
  H   H339      1.0  0.42758  0.38292  0.37715  1.0000
  H   H340      1.0  0.43674  0.41739  0.36348  1.0000
  H   H341      1.0  0.36184  0.32727  0.39079  1.0000
  C   C217      1.0  0.20689  0.27122  0.46141  1.0000
  C   C218      1.0  0.07718  0.46600  0.37859  1.0000
  H   H342      1.0  0.17575  0.30329  0.46939  1.0000
  H   H343      1.0  0.23777  0.27926  0.46200  1.0000
  H   H344      1.0  0.28213  0.35012  0.16418  1.0000
  H   H345      1.0  0.21483  0.41595  0.11357  1.0000
  H   H346      1.0  0.15802  0.39589  0.06049  1.0000
  C   C219      1.0  0.10906  0.35808  0.20666  1.0000
  C   C220      1.0  0.11734  0.34538  0.19836  1.0000
  C   C221      1.0  0.11693  0.34065  0.16913  1.0000
  C   C222      1.0  0.10849  0.34882  0.14775  1.0000
  C   C223      1.0  0.10056  0.36181  0.15588  1.0000
  C   C224      1.0  0.10083  0.36643  0.18519  1.0000
  H   H347      1.0  0.12380  0.33890  0.21480  1.0000
  H   H348      1.0  0.12288  0.33048  0.16326  1.0000
  H   H349      1.0  0.09401  0.36822  0.13947  1.0000
  H   H350      1.0  0.09459  0.37637  0.19121  1.0000
  C   C225      1.0  0.08246  0.39225  0.40382  1.0000
  C   C226      1.0  0.09131  0.39833  0.42974  1.0000
  C   C227      1.0  0.08023  0.39445  0.45714  1.0000
  C   C228      1.0  0.06018  0.38445  0.45878  1.0000
  C   C229      1.0  0.05139  0.37808  0.43297  1.0000
  C   C230      1.0  0.06247  0.38196  0.40558  1.0000
  H   H351      1.0  0.10680  0.40622  0.42856  1.0000
  H   H352      1.0  0.34702  0.45954  0.03436  1.0000
  H   H353      1.0  0.03589  0.37030  0.43407  1.0000
  H   H354      1.0  0.05550  0.37718  0.38579  1.0000
  C   C231      1.0  0.00551  0.33908  0.27256  1.0000
  C   C232      1.0  0.01294  0.34817  0.24405  1.0000
  H   H355      1.0  0.35785  0.31888  0.00610  1.0000
  H   H356      1.0  0.02758  0.35818  0.24027  1.0000
  C   C233      1.0  0.06010  0.44600  0.25790  1.0000
  C   C234      1.0  0.05704  0.46047  0.24014  1.0000
  C   C235      1.0  0.15725  0.39428  0.15517  1.0000
  C   C236      1.0  0.04317  0.46892  0.28317  1.0000
  C   C237      1.0  0.04641  0.45458  0.30096  1.0000
  C   C238      1.0  0.05468  0.44305  0.28832  1.0000
  C   C239      1.0  0.23937  0.29746  0.04519  1.0000
  H   H357      1.0  0.04223  0.45229  0.32450  1.0000
  H   H358      1.0  0.34129  0.26864  0.33497  1.0000
  H   H359      1.0  0.46448  0.39430  0.45448  1.0000
  H   H360      1.0  0.36235  0.27311  0.02435  1.0000
  C   C240      1.0  0.40067  0.50053  0.03837  1.0000
  C   C241      1.0  0.25327  0.32885  0.06135  1.0000
  C   C242      1.0  0.00131  0.34442  0.22014  1.0000
  H   H361      1.0  0.18801  0.40987  0.07624  1.0000
  H   H362      1.0  0.10551  0.48666  0.38860  1.0000
  H   H363      1.0  0.99741  0.40092  0.18602  1.0000
  C   C243      1.0  0.17231  0.36014  0.15512  1.0000
  N   N16       1.0  0.48420  0.37715  0.41655  1.0000
  H   H364      1.0  0.27086  0.31335  0.08020  1.0000
  H   H365      1.0  0.47672  0.36014  0.45943  1.0000
  H   H366      1.0  0.23194  0.38342  0.02251  1.0000
  H   H367      1.0  0.33853  0.31741  0.35258  1.0000
  H   H368      1.0  0.39305  0.43629  0.06756  1.0000
  H   H369      1.0  0.35240  0.27809  0.46365  1.0000
  H   H370      1.0  0.06337  0.42006  0.41732  1.0000
  H   H371      1.0  0.04314  0.41110  0.39621  1.0000
  C   C244      1.0  0.33361  0.31310  0.37583  1.0000
  S   S86       1.0  0.29838  0.29444  0.35614  1.0000
  S   S87       1.0  0.24589  0.26076  0.09565  1.0000
  H   H372      1.0  0.46886  0.41542  0.28431  1.0000
  N   N17       1.0  0.05269  0.31297  0.22693  1.0000
  C   C245      1.0  0.06911  0.30619  0.23157  1.0000
  C   C246      1.0  0.05278  0.32533  0.25080  1.0000
  C   C247      1.0  0.05649  0.32414  0.19641  1.0000
  C   C248      1.0  0.03401  0.29591  0.22897  1.0000
  C   C249      1.0  0.48574  0.34404  0.41569  1.0000
  C   C250      1.0  0.04991  0.31578  0.28308  1.0000
  C   C251      1.0  0.04941  0.34061  0.19203  1.0000
  C   C252      1.0  0.35527  0.46531  0.05331  1.0000
  H   H373      1.0  0.08291  0.31836  0.23338  1.0000
  H   H374      1.0  0.06644  0.29678  0.25283  1.0000
  H   H375      1.0  0.04135  0.33125  0.24850  1.0000
  H   H376      1.0  0.06673  0.33781  0.24861  1.0000
  H   H377      1.0  0.07232  0.33079  0.18991  1.0000
  H   H378      1.0  0.05045  0.31475  0.17909  1.0000
  H   H379      1.0  0.03364  0.28774  0.20997  1.0000
  H   H380      1.0  0.03294  0.28599  0.24911  1.0000
  H   H381      1.0  0.27174  0.31924  0.01358  1.0000
  H   H382      1.0  0.18482  0.36443  0.42406  1.0000
  H   H383      1.0  0.08119  0.44762  0.43230  1.0000
  H   H384      1.0  0.06276  0.31276  0.28955  1.0000
  H   H385      1.0  0.22369  0.31928  0.00461  1.0000
  C   C253      1.0  0.04312  0.30454  0.49051  1.0000
  H   H386      1.0  0.05163  0.34621  0.16811  1.0000
  C   C254      1.0  0.00604  0.42636  0.23638  1.0000
  H   H387      1.0  0.03391  0.33648  0.19894  1.0000
  C   C255      1.0  0.34416  0.26569  0.42306  1.0000
  C   C256      1.0  0.35792  0.30439  0.00969  1.0000
  C   C257      1.0  0.32241  0.26243  0.03839  1.0000
  H   H388      1.0  0.32679  0.29428  0.00979  1.0000
  C   C258      1.0  0.18474  0.37305  0.12783  1.0000
  H   H389      1.0  0.22175  0.41785  0.07485  1.0000
  H   H390      1.0  0.16110  0.39863  0.17746  1.0000
  C   C259      1.0  0.14983  0.38978  0.08238  1.0000
  C   C260      1.0  0.47716  0.39033  0.39802  1.0000
  H   H391      1.0  0.19929  0.38003  0.13594  1.0000
  H   H392      1.0  0.02129  0.41929  0.18419  1.0000
  H   H393      1.0  0.48511  0.33376  0.39981  1.0000
  H   H394      1.0  0.04294  0.30580  0.44242  1.0000
  H   H395      1.0  0.07607  0.27480  0.02202  1.0000
  H   H396      1.0  0.14746  0.31731  0.47035  1.0000
  H   H397      1.0  0.13480  0.38099  0.07782  1.0000
  C   C261      1.0  0.09410  0.45740  0.33930  1.0000
  N   N18       1.0  0.38753  0.46540  0.02983  1.0000
  Fe  Fe44      1.0  0.26697  0.26035  0.05961  1.0000
  C   C262      1.0  0.27243  0.32781  0.07131  1.0000
  C   C263      1.0  0.19202  0.39837  0.08713  1.0000
  H   H398      1.0  0.99210  0.37336  0.29258  1.0000
  H   H399      1.0  0.25234  0.29447  0.05102  1.0000
  H   H400      1.0  0.22016  0.27042  0.03303  1.0000
  H   H401      1.0  0.17109  0.31582  0.43814  1.0000
  H   H402      1.0  0.07719  0.30343  0.18510  1.0000
  H   H403      1.0  0.12632  0.26454  0.04772  1.0000
  C   C264      1.0  0.20269  0.35046  0.44549  1.0000
  H   H404      1.0  0.48416  0.39142  0.47475  1.0000
  H   H405      1.0  0.36560  0.45475  0.99903  1.0000
  H   H406      1.0  0.14880  0.37896  0.15875  1.0000
  H   H407      1.0  0.33650  0.28530  0.06529  1.0000
  C   C265      1.0  0.09254  0.48620  0.37704  1.0000
  H   H408      1.0  0.18230  0.34253  0.40995  1.0000
  H   H409      1.0  0.02200  0.41399  0.27870  1.0000
  H   H410      1.0  0.20757  0.36342  0.45683  1.0000
  C   C266      1.0  0.40445  0.44327  0.04923  1.0000
  H   H411      1.0  0.01871  0.39576  0.17906  1.0000
  C   C267      1.0  0.26834  0.34528  0.99813  1.0000
  H   H412      1.0  0.21655  0.34955  0.43718  1.0000
  H   H413      1.0  0.34599  0.26658  0.06847  1.0000
  H   H414      1.0  0.28417  0.33347  0.05326  1.0000
  H   H415      1.0  0.08577  0.29130  0.21304  1.0000
  H   H416      1.0  0.04836  0.43363  0.40816  1.0000
  C   C268      1.0  0.09622  0.45017  0.42425  1.0000
  H   H417      1.0  0.48365  0.40981  0.35741  1.0000
  H   H418      1.0  0.15724  0.33968  0.44669  1.0000
  H   H419      1.0  0.06585  0.46665  0.36359  1.0000
  S   S88       1.0  0.48490  0.50098  0.20164  1.0000
  C   C269      1.0  0.19749  0.31150  0.43225  1.0000
  C   C270      1.0  0.22469  0.27895  0.47366  1.0000
  H   H420      1.0  0.11419  0.46010  0.38345  1.0000
  N   N19       1.0  0.26242  0.30801  0.17061  1.0000
  C   C271      1.0  0.28376  0.31457  0.16072  1.0000
  C   C272      1.0  0.25628  0.32436  0.16245  1.0000
  C   C273      1.0  0.25167  0.29204  0.15331  1.0000
  C   C274      1.0  0.25963  0.30148  0.20356  1.0000
  C   C275      1.0  0.29280  0.29945  0.16425  1.0000
  C   C276      1.0  0.26750  0.34259  0.17596  1.0000
  C   C277      1.0  0.22943  0.28323  0.15924  1.0000
  C   C278      1.0  0.24127  0.30149  0.22075  1.0000
  H   H421      1.0  0.28667  0.32081  0.13695  1.0000
  H   H422      1.0  0.29259  0.32602  0.17342  1.0000
  H   H423      1.0  0.24070  0.32081  0.16854  1.0000
  H   H424      1.0  0.25790  0.32814  0.13790  1.0000
  H   H425      1.0  0.25502  0.29666  0.12904  1.0000
  H   H426      1.0  0.25647  0.28007  0.15796  1.0000
  H   H427      1.0  0.25955  0.28696  0.20775  1.0000
  H   H428      1.0  0.27216  0.31052  0.21485  1.0000
  C   C279      1.0  0.35246  0.26555  0.00813  1.0000
  H   H429      1.0  0.98920  0.48439  0.13233  1.0000
  H   H430      1.0  0.28869  0.28997  0.14664  1.0000
  S   S89       1.0  0.47987  0.45758  0.22598  1.0000
  H   H431      1.0  0.25969  0.35237  0.17295  1.0000
  H   H432      1.0  0.26888  0.33994  0.20002  1.0000
  H   H433      1.0  0.22246  0.29358  0.15510  1.0000
  H   H434      1.0  0.22508  0.27554  0.18194  1.0000
  H   H435      1.0  0.22347  0.27248  0.14384  1.0000
  H   H436      1.0  0.23591  0.28910  0.23815  1.0000
  H   H437      1.0  0.22894  0.30050  0.20741  1.0000
  H   H438      1.0  0.24494  0.31401  0.23301  1.0000
  N   N20       1.0  0.40892  0.41107  0.24251  1.0000
  C   C280      1.0  0.40368  0.40620  0.21170  1.0000
  C   C281      1.0  0.43048  0.41596  0.24310  1.0000
  C   C282      1.0  0.40457  0.42830  0.24718  1.0000
  C   C283      1.0  0.39699  0.39441  0.26475  1.0000
  C   C284      1.0  0.38285  0.40357  0.20417  1.0000
  C   C285      1.0  0.40859  0.43570  0.27751  1.0000
  C   C286      1.0  0.40504  0.39279  0.29541  1.0000
  H   H439      1.0  0.41381  0.41712  0.19457  1.0000
  H   H440      1.0  0.26378  0.25670  0.27374  1.0000
  H   H441      1.0  0.43582  0.42010  0.26472  1.0000
  H   H442      1.0  0.43856  0.42869  0.22704  1.0000
  H   H443      1.0  0.41284  0.44018  0.22973  1.0000
  H   H444      1.0  0.38899  0.42565  0.24502  1.0000
  H   H445      1.0  0.38205  0.39416  0.26868  1.0000
  H   H446      1.0  0.39525  0.38100  0.25561  1.0000
  H   H447      1.0  0.38111  0.41731  0.20032  1.0000
  H   H448      1.0  0.37997  0.39729  0.18298  1.0000
  H   H449      1.0  0.37173  0.39398  0.22142  1.0000
  H   H450      1.0  0.40628  0.44918  0.27687  1.0000
  H   H451      1.0  0.42373  0.43886  0.28307  1.0000
  H   H452      1.0  0.39829  0.42584  0.29549  1.0000
  H   H453      1.0  0.39273  0.38689  0.31278  1.0000
  H   H454      1.0  0.41491  0.40616  0.30229  1.0000
  H   H455      1.0  0.41227  0.38248  0.29649  1.0000
  C   C287      1.0  0.20415  0.33030  0.48963  1.0000
  H   H456      1.0  0.34251  0.27866  0.41281  1.0000
  C   C288      1.0  0.47017  0.38412  0.46542  1.0000
  N   N21       1.0  0.00146  0.40565  0.24555  1.0000
  Fe  Fe45      1.0  0.26940  0.27109  0.36885  1.0000
  H   H457      1.0  0.24274  0.32390  0.08128  1.0000
  C   C289      1.0  0.22759  0.32271  0.02733  1.0000
  C   C290      1.0  0.18281  0.31575  0.45236  1.0000
  H   H458      1.0  0.20924  0.30937  0.44445  1.0000
  C   C291      1.0  0.10094  0.44333  0.32497  1.0000
  H   H459      1.0  0.40538  0.39284  0.20772  1.0000
  C   C292      1.0  0.99717  0.48771  0.11020  1.0000
  H   H460      1.0  0.42951  0.38670  0.24922  1.0000
  C   C293      1.0  0.04833  0.47172  0.25265  1.0000
  H   H461      1.0  0.06122  0.46285  0.21656  1.0000
  H   H462      1.0  0.35045  0.28220  0.36441  1.0000
  H   H463      1.0  0.18981  0.29808  0.42293  1.0000
  H   H464      1.0  0.22024  0.39734  0.09808  1.0000
  C   C294      1.0  0.20904  0.31296  0.04843  1.0000
  C   C295      1.0  0.33849  0.26947  0.35888  1.0000
  H   H465      1.0  0.43705  0.39861  0.21170  1.0000
  S   S90       1.0  0.24204  0.27416  0.35479  1.0000
  H   H466      1.0  0.18857  0.40458  0.14806  1.0000
  H   H467      1.0  0.01390  0.30770  0.20864  1.0000
  H   H468      1.0  0.17989  0.35196  0.48872  1.0000
  C   C296      1.0  0.21333  0.40784  0.09434  1.0000
  H   H469      1.0  0.27692  0.35369  0.01480  1.0000
  H   H470      1.0  0.25594  0.34404  0.05604  1.0000
  C   C297      1.0  0.43766  0.40038  0.23563  1.0000
  H   H471      1.0  0.03657  0.30287  0.28730  1.0000
  H   H472      1.0  0.08716  0.39936  0.47689  1.0000
  C   C298      1.0  0.15863  0.37712  0.09997  1.0000
  H   H473      1.0  0.37358  0.43761  0.01603  1.0000
  H   H474      1.0  0.17707  0.41434  0.12135  1.0000
  H   H475      1.0  0.10920  0.25570  0.09238  1.0000
  C   C299      1.0  0.01510  0.29971  0.22956  1.0000
  H   H476      1.0  0.00836  0.48137  0.11049  1.0000
  H   H477      1.0  0.06687  0.31542  0.45511  1.0000
  H   H478      1.0  0.14757  0.40155  0.14752  1.0000
  H   H479      1.0  0.00711  0.35165  0.19818  1.0000
  H   H480      1.0  0.13744  0.27724  0.99983  1.0000
  N   N22       1.0  0.24495  0.31821  0.03573  1.0000
  C   C300      1.0  0.37300  0.45969  0.05654  1.0000
  N   N23       1.0  0.33405  0.26947  0.00877  1.0000
  H   H481      1.0  0.25707  0.35074  0.99146  1.0000
  H   H482      1.0  0.00064  0.42869  0.21437  1.0000
  H   H483      1.0  0.20241  0.29767  0.04653  1.0000
  N   N24       1.0  0.19093  0.33351  0.46715  1.0000
  H   H484      1.0  0.24171  0.28193  0.00804  1.0000
  C   C301      1.0  0.47156  0.36966  0.44524  1.0000
  C   C302      1.0  0.33859  0.29032  0.00062  1.0000
  H   H485      1.0  0.17873  0.34965  0.16237  1.0000
  H   H486      1.0  0.45316  0.40463  0.24014  1.0000
  H   H487      1.0  0.10022  0.43935  0.43732  1.0000
  N   N25       1.0  0.17753  0.38733  0.11294  1.0000
  H   H488      1.0  0.01221  0.38537  0.31207  1.0000
  H   H489      1.0  0.37042  0.30438  0.99558  1.0000
  H   H490      1.0  0.10721  0.47061  0.33819  1.0000
  H   H491      1.0  0.20386  0.32255  0.41311  1.0000
  H   H492      1.0  0.35972  0.26796  0.41835  1.0000
  C   C303      1.0  0.15550  0.33275  0.46966  1.0000
  C   C304      1.0  0.00706  0.40367  0.27693  1.0000
  H   H493      1.0  0.40168  0.43447  0.03071  1.0000
  H   H494      1.0  0.18651  0.36381  0.11153  1.0000
  H   H495      1.0  0.10607  0.46394  0.43033  1.0000
  H   H496      1.0  0.21644  0.32771  0.47894  1.0000
  H   H497      1.0  0.02948  0.40628  0.22957  1.0000
  C   C305      1.0  0.00687  0.38433  0.28956  1.0000
  H   H498      1.0  0.48421  0.38747  0.35160  1.0000
  H   H499      1.0  0.46152  0.38300  0.39467  1.0000
  S   S91       1.0  0.39438  0.26559  0.38774  1.0000
  C   C306      1.0  0.17490  0.33704  0.48394  1.0000
  H   H500      1.0  0.45974  0.38093  0.29793  1.0000
  H   H501      1.0  0.04606  0.48287  0.23880  1.0000
  H   H502      1.0  0.05105  0.32841  0.45384  1.0000
  C   C307      1.0  0.07317  0.29505  0.20733  1.0000
  C   C308      1.0  0.37879  0.45271  0.00660  1.0000
  H   H503      1.0  0.21167  0.31504  0.07189  1.0000
  C   C309      1.0  0.25958  0.32398  0.00921  1.0000
  C   C310      1.0  0.19252  0.35510  0.41862  1.0000
  H   H504      1.0  0.06963  0.46255  0.40108  1.0000
  H   H505      1.0  0.01334  0.30692  0.24879  1.0000
  H   H506      1.0  0.30840  0.32382  0.00645  1.0000
  H   H507      1.0  0.45966  0.37634  0.48474  1.0000
  H   H508      1.0  0.14728  0.36781  0.11701  1.0000
  C   C311      1.0  0.17603  0.40081  0.13406  1.0000
  H   H509      1.0  0.22973  0.29258  0.06616  1.0000
  S   S92       1.0  0.03337  0.48350  0.29992  1.0000
  Fe  Fe46      1.0  0.01206  0.49247  0.27445  1.0000
  H   H510      1.0  0.05804  0.43400  0.35356  1.0000
  H   H511      1.0  0.36039  0.30178  0.03325  1.0000
  H   H512      1.0  0.20358  0.36249  0.39981  1.0000
  H   H513      1.0  0.15727  0.35195  0.15030  1.0000
  H   H514      1.0  0.16054  0.36739  0.08461  1.0000
  H   H515      1.0  0.23100  0.33816  0.02611  1.0000
  H   H516      1.0  0.08413  0.46085  0.32420  1.0000
  H   H517      1.0  0.19817  0.31909  0.04213  1.0000
  C   C312      1.0  0.99758  0.43630  0.25771  1.0000
  H   H518      1.0  0.37989  0.46521  0.07678  1.0000
  H   H519      1.0  0.16092  0.27368  0.05581  1.0000
  H   H520      1.0  0.17991  0.25617  0.03647  1.0000
  H   H521      1.0  0.01495  0.31817  0.47670  1.0000
  H   H522      1.0  0.01685  0.37991  0.27630  1.0000
  H   H523      1.0  0.00942  0.50282  0.15887  1.0000
  H   H524      1.0  0.99940  0.45043  0.24657  1.0000
  C   C313      1.0  0.05165  0.31432  0.45899  1.0000
  H   H525      1.0  0.04820  0.32559  0.29827  1.0000
  H   H526      1.0  0.06077  0.28164  0.20613  1.0000
  H   H527      1.0  0.04586  0.34285  0.48911  1.0000
  H   H528      1.0  0.47763  0.40260  0.40918  1.0000
  H   H529      1.0  0.07300  0.42155  0.36468  1.0000
  H   H530      1.0  0.46634  0.35451  0.39282  1.0000
  H   H531      1.0  0.19197  0.38921  0.06956  1.0000
  S   S93       1.0  0.01140  0.49574  0.22482  1.0000
  C   C314      1.0  0.48148  0.36053  0.39951  1.0000
  C   C315      1.0  0.05520  0.42428  0.40002  1.0000
  H   H532      1.0  0.11061  0.43867  0.33888  1.0000
  H   H533      1.0  0.27735  0.33683  0.08935  1.0000
  H   H534      1.0  0.41136  0.47176  0.05808  1.0000
  H   H535      1.0  0.07968  0.34213  0.47880  1.0000
  H   H536      1.0  0.00549  0.43873  0.27807  1.0000
  H   H537      1.0  0.02198  0.43434  0.23351  1.0000
  C   C316      1.0  0.17231  0.25654  0.12117  1.0000
  C   C317      1.0  0.01389  0.39957  0.22522  1.0000
  C   C318      1.0  0.16731  0.26647  0.07103  1.0000
  C   C319      1.0  0.19004  0.27103  0.47682  1.0000
  H   H538      1.0  0.34525  0.45932  0.07371  1.0000
  H   H539      1.0  0.36706  0.44414  0.06241  1.0000
  H   H540      1.0  0.41840  0.44375  0.05772  1.0000
  H   H541      1.0  0.99742  0.40707  0.29277  1.0000
  H   H542      1.0  0.37949  0.48745  0.00722  1.0000
  H   H543      1.0  0.45646  0.36099  0.44066  1.0000
  H   H544      1.0  0.41788  0.46976  0.02113  1.0000
  H   H545      1.0  0.00256  0.28601  0.23186  1.0000
  C   C320      1.0  0.16384  0.26597  0.10163  1.0000
  H   H546      1.0  0.39534  0.49538  0.06189  1.0000
  C   C321      1.0  0.34078  0.26565  0.45670  1.0000
  C   C322      1.0  0.39221  0.48553  0.01704  1.0000
  H   H547      1.0  0.35941  0.48080  0.05134  1.0000
  H   H548      1.0  0.17620  0.26501  0.46757  1.0000
  H   H549      1.0  0.10408  0.26369  0.03417  1.0000
  S   S94       1.0  0.20507  0.26284  0.42614  1.0000
  H   H550      1.0  0.47456  0.33619  0.43412  1.0000
  Fe  Fe47      1.0  0.22857  0.25737  0.39905  1.0000
  H   H551      1.0  0.28121  0.25882  0.22498  1.0000
  S   S95       1.0  0.25663  0.25661  0.41441  1.0000
  C   C323      1.0  0.33290  0.26997  0.06574  1.0000
  C   C324      1.0  0.11139  0.25465  0.04463  1.0000
  H   H552      1.0  0.98923  0.49230  0.46572  1.0000
  H   H553      1.0  0.14622  0.33808  0.48294  1.0000
  C   C325      1.0  0.17812  0.25657  0.06010  1.0000
  C   C326      1.0  0.07444  0.27345  0.99869  1.0000
  H   H554      1.0  0.40324  0.48960  0.99781  1.0000
  H   H555      1.0  0.02773  0.29506  0.48911  1.0000
  H   H556      1.0  0.32445  0.27127  0.36148  1.0000
  H   H557      1.0  0.09699  0.49274  0.35368  1.0000
  H   H558      1.0  0.16963  0.25604  0.14488  1.0000
  H   H559      1.0  0.30937  0.26614  0.03865  1.0000
  H   H560      1.0  0.30932  0.26081  0.40852  1.0000
  H   H561      1.0  0.08612  0.49512  0.38785  1.0000
  H   H562      1.0  0.32700  0.26744  0.46224  1.0000
  H   H563      1.0  0.01846  0.27970  0.99329  1.0000
  Fe  Fe48      1.0  0.14894  0.29342  0.61257  1.0000
  S   S96       1.0  0.15885  0.30361  0.56450  1.0000
  S   S97       1.0  0.11911  0.27190  0.63082  1.0000
  Fe  Fe49      1.0  0.18714  0.32095  0.63437  1.0000
  S   S98       1.0  0.19898  0.33361  0.58755  1.0000
  S   S99       1.0  0.20338  0.32548  0.67703  1.0000
  Fe  Fe50      1.0  0.16884  0.33236  0.57987  1.0000
  S   S100      1.0  0.16096  0.35250  0.54826  1.0000
  Fe  Fe51      1.0  0.18807  0.30386  0.57579  1.0000
  S   S101      1.0  0.21099  0.29721  0.54941  1.0000
  S   S102      1.0  0.15766  0.32226  0.62759  1.0000
  S   S103      1.0  0.17742  0.29108  0.62300  1.0000
  Fe  Fe52      1.0  0.04888  0.36824  0.60102  1.0000
  S   S104      1.0  0.06755  0.39432  0.61915  1.0000
  S   S105      1.0  0.03712  0.34168  0.63284  1.0000
  Fe  Fe53      1.0  0.05617  0.38727  0.53735  1.0000
  S   S106      1.0  0.07581  0.41514  0.55037  1.0000
  Fe  Fe54      1.0  0.08811  0.39770  0.57975  1.0000
  S   S107      1.0  0.11900  0.40480  0.59120  1.0000
  Fe  Fe55      1.0  0.05356  0.40938  0.58904  1.0000
  S   S108      1.0  0.04372  0.43242  0.60213  1.0000
  S   S109      1.0  0.07035  0.37038  0.56368  1.0000
  S   S110      1.0  0.03292  0.38279  0.57384  1.0000
  H   H564      1.0  0.39640  0.33240  0.58108  1.0000
  H   H565      1.0  0.98898  0.31571  0.56190  1.0000
  H   H566      1.0  0.32000  0.27617  0.80609  1.0000
  H   H567      1.0  0.03436  0.27394  0.70205  1.0000
  H   H568      1.0  0.32611  0.26696  0.86523  1.0000
  Fe  Fe56      1.0  0.01168  0.46208  0.75376  1.0000
  S   S111      1.0  0.02869  0.44554  0.73575  1.0000
  C   C327      1.0  0.35653  0.31990  0.53923  1.0000
  S   S112      1.0  0.01587  0.46614  0.80194  1.0000
  H   H569      1.0  0.99211  0.38326  0.75340  1.0000
  Fe  Fe57      1.0  0.42448  0.34195  0.69559  1.0000
  S   S113      1.0  0.40705  0.33301  0.65620  1.0000
  Fe  Fe58      1.0  0.40753  0.30133  0.72803  1.0000
  S   S114      1.0  0.38880  0.29019  0.69157  1.0000
  S   S115      1.0  0.40715  0.28233  0.77018  1.0000
  Fe  Fe59      1.0  0.41490  0.30757  0.66061  1.0000
  S   S116      1.0  0.41841  0.29105  0.62363  1.0000
  Fe  Fe60      1.0  0.38264  0.31641  0.69002  1.0000
  S   S117      1.0  0.35301  0.31643  0.68343  1.0000
  S   S118      1.0  0.43454  0.31747  0.69725  1.0000
  S   S119      1.0  0.39921  0.32655  0.72916  1.0000
  Fe  Fe61      1.0  0.29926  0.38554  0.76017  1.0000
  S   S120      1.0  0.29291  0.36667  0.80348  1.0000
  S   S121      1.0  0.27887  0.38624  0.72356  1.0000
  Fe  Fe62      1.0  0.34224  0.40710  0.77305  1.0000
  S   S122      1.0  0.33886  0.38971  0.81726  1.0000
  S   S123      1.0  0.37059  0.42632  0.74659  1.0000
  Fe  Fe63      1.0  0.32195  0.36511  0.79382  1.0000
  S   S124      1.0  0.32743  0.33834  0.80309  1.0000
  Fe  Fe64      1.0  0.31019  0.39273  0.82415  1.0000
  S   S125      1.0  0.29662  0.39561  0.86842  1.0000
  S   S126      1.0  0.32724  0.38201  0.74912  1.0000
  S   S127      1.0  0.31453  0.41207  0.78135  1.0000
  H   H570      1.0  0.02726  0.27831  0.73746  1.0000
  H   H571      1.0  0.37373  0.25899  0.74131  1.0000
  C   C328      1.0  0.30921  0.39954  0.90115  1.0000
  C   C329      1.0  0.32943  0.40830  0.89986  1.0000
  C   C330      1.0  0.33882  0.41280  0.92605  1.0000
  C   C331      1.0  0.32821  0.40817  0.95392  1.0000
  C   C332      1.0  0.30804  0.39883  0.95536  1.0000
  C   C333      1.0  0.29858  0.39478  0.92905  1.0000
  H   H572      1.0  0.33779  0.41218  0.87859  1.0000
  H   H573      1.0  0.35440  0.42009  0.92465  1.0000
  H   H574      1.0  0.35025  0.29055  0.82801  1.0000
  H   H575      1.0  0.28294  0.38810  0.93029  1.0000
  S   S128      1.0  0.02333  0.25926  0.86349  1.0000
  H   H576      1.0  0.03391  0.30303  0.86302  1.0000
  C   C334      1.0  0.02076  0.28633  0.96989  1.0000
  H   H577      1.0  0.00968  0.29249  0.96647  1.0000
  C   C335      1.0  0.42476  0.30210  0.58673  1.0000
  C   C336      1.0  0.43475  0.32159  0.58038  1.0000
  C   C337      1.0  0.44078  0.32978  0.55081  1.0000
  C   C338      1.0  0.43625  0.31866  0.52736  1.0000
  C   C339      1.0  0.42562  0.29927  0.53363  1.0000
  C   C340      1.0  0.42018  0.29099  0.56326  1.0000
  H   H578      1.0  0.06628  0.32984  0.54532  1.0000
  H   H579      1.0  0.00393  0.42541  0.79256  1.0000
  H   H580      1.0  0.42210  0.29058  0.51571  1.0000
  H   H581      1.0  0.41248  0.27590  0.56801  1.0000
  C   C341      1.0  0.34362  0.32023  0.71700  1.0000
  C   C342      1.0  0.34928  0.31422  0.74390  1.0000
  C   C343      1.0  0.34360  0.31921  0.77053  1.0000
  C   C344      1.0  0.33234  0.33026  0.77023  1.0000
  C   C345      1.0  0.32582  0.33539  0.74353  1.0000
  C   C346      1.0  0.33142  0.33033  0.71689  1.0000
  H   H582      1.0  0.35824  0.30594  0.74413  1.0000
  H   H583      1.0  0.34853  0.31514  0.79119  1.0000
  H   H584      1.0  0.31651  0.34329  0.74337  1.0000
  H   H585      1.0  0.32689  0.33484  0.69614  1.0000
  C   C347      1.0  0.42733  0.46869  0.77545  1.0000
  C   C348      1.0  0.41034  0.46199  0.79478  1.0000
  C   C349      1.0  0.39297  0.44855  0.78678  1.0000
  C   C350      1.0  0.39229  0.44215  0.75891  1.0000
  C   C351      1.0  0.40925  0.44896  0.73952  1.0000
  C   C352      1.0  0.42676  0.46190  0.74790  1.0000
  H   H586      1.0  0.34469  0.31294  0.55715  1.0000
  H   H587      1.0  0.38000  0.44355  0.80182  1.0000
  H   H588      1.0  0.40883  0.44416  0.71786  1.0000
  C   C353      1.0  0.03831  0.43495  0.63946  1.0000
  C   C354      1.0  0.04256  0.42456  0.66329  1.0000
  C   C355      1.0  0.03944  0.42795  0.69261  1.0000
  C   C356      1.0  0.03164  0.44145  0.69846  1.0000
  C   C357      1.0  0.02704  0.45160  0.67469  1.0000
  C   C358      1.0  0.03053  0.44846  0.64532  1.0000
  H   H589      1.0  0.04851  0.41410  0.65911  1.0000
  H   H590      1.0  0.04315  0.42013  0.71083  1.0000
  H   H591      1.0  0.02112  0.46209  0.67888  1.0000
  H   H592      1.0  0.02725  0.45662  0.62703  1.0000
  C   C359      1.0  0.01869  0.32381  0.61842  1.0000
  C   C360      1.0  0.00997  0.32761  0.59315  1.0000
  C   C361      1.0  0.05444  0.25891  0.95922  1.0000
  H   H593      1.0  0.04292  0.39087  0.76767  1.0000
  H   H594      1.0  0.39606  0.35756  0.51734  1.0000
  C   C362      1.0  0.01294  0.30537  0.63226  1.0000
  C   C363      1.0  0.08126  0.32931  0.95327  1.0000
  H   H595      1.0  0.37396  0.33722  0.61835  1.0000
  H   H596      1.0  0.02201  0.29539  0.91385  1.0000
  H   H597      1.0  0.07315  0.30838  0.92299  1.0000
  C   C364      1.0  0.22448  0.34268  0.68933  1.0000
  C   C365      1.0  0.23436  0.36044  0.67329  1.0000
  C   C366      1.0  0.25108  0.37342  0.68394  1.0000
  C   C367      1.0  0.25836  0.36879  0.71051  1.0000
  C   C368      1.0  0.24858  0.35096  0.72643  1.0000
  C   C369      1.0  0.23166  0.33812  0.71605  1.0000
  H   H598      1.0  0.22902  0.36428  0.65283  1.0000
  H   H599      1.0  0.25841  0.38720  0.67151  1.0000
  H   H600      1.0  0.25387  0.34717  0.74695  1.0000
  H   H601      1.0  0.22416  0.32444  0.72872  1.0000
  C   C370      1.0  0.32185  0.25899  0.98557  1.0000
  H   H602      1.0  0.13375  0.27390  0.96198  1.0000
  C   C371      1.0  0.09785  0.26357  0.61132  1.0000
  Fe  Fe65      1.0  0.99354  0.25950  0.87054  1.0000
  H   H603      1.0  0.02897  0.41532  0.77494  1.0000
  H   H604      1.0  0.42324  0.27332  0.68284  1.0000
  H   H605      1.0  0.27394  0.29915  0.57803  1.0000
  C   C372      1.0  0.34840  0.26249  0.81783  1.0000
  C   C373      1.0  0.14826  0.36577  0.56174  1.0000
  C   C374      1.0  0.15120  0.37229  0.58953  1.0000
  C   C375      1.0  0.14215  0.38425  0.59848  1.0000
  C   C376      1.0  0.12960  0.38919  0.58016  1.0000
  C   C377      1.0  0.12599  0.38195  0.55297  1.0000
  C   C378      1.0  0.13555  0.37054  0.54359  1.0000
  H   H606      1.0  0.16105  0.36873  0.60358  1.0000
  H   H607      1.0  0.14498  0.38979  0.61954  1.0000
  H   H608      1.0  0.11641  0.38576  0.53866  1.0000
  C   C379      1.0  0.47400  0.50062  0.65443  1.0000
  N   N26       1.0  0.00039  0.39615  0.79380  1.0000
  C   C380      1.0  0.08708  0.28255  0.94740  1.0000
  C   C381      1.0  0.01607  0.32523  0.49706  1.0000
  H   H609      1.0  0.09877  0.29089  0.93092  1.0000
  H   H610      1.0  0.08289  0.43797  0.61490  1.0000
  C   C382      1.0  0.39562  0.35217  0.78973  1.0000
  C   C383      1.0  0.09816  0.26796  0.58062  1.0000
  C   C384      1.0  0.99890  0.29062  0.62040  1.0000
  C   C385      1.0  0.03945  0.28883  0.55507  1.0000
  H   H611      1.0  0.36554  0.34570  0.50767  1.0000
  H   H612      1.0  0.01421  0.34189  0.58254  1.0000
  H   H613      1.0  0.38454  0.34726  0.56721  1.0000
  H   H614      1.0  0.35349  0.32585  0.59862  1.0000
  C   C386      1.0  0.99572  0.31280  0.58146  1.0000
  H   H615      1.0  0.38463  0.32318  0.50236  1.0000
  H   H616      1.0  0.39542  0.46898  0.96493  1.0000
  C   C387      1.0  0.13459  0.26664  0.98400  1.0000
  H   H617      1.0  0.21971  0.27960  0.66723  1.0000
  H   H618      1.0  0.08126  0.26457  0.54246  1.0000
  H   H619      1.0  0.43842  0.33025  0.59832  1.0000
  C   C388      1.0  0.38037  0.38235  0.77398  1.0000
  H   H620      1.0  0.06788  0.26873  0.91484  1.0000
  C   C389      1.0  0.06956  0.27002  0.93818  1.0000
  C   C390      1.0  0.47924  0.39997  0.74917  1.0000
  H   H621      1.0  0.19608  0.31742  0.50537  1.0000
  H   H622      1.0  0.98908  0.36556  0.79981  1.0000
  H   H623      1.0  0.02932  0.40082  0.80749  1.0000
  H   H624      1.0  0.31073  0.28304  0.83750  1.0000
  C   C391      1.0  0.45980  0.41018  0.70357  1.0000
  S   S129      1.0  0.48595  0.47972  0.72705  1.0000
  H   H625      1.0  0.25561  0.30838  0.57128  1.0000
  C   C392      1.0  0.40876  0.39909  0.73717  1.0000
  H   H626      1.0  0.03713  0.34006  0.52648  1.0000
  C   C393      1.0  0.40744  0.37058  0.76944  1.0000
  H   H627      1.0  0.23949  0.29268  0.50992  1.0000
  H   H628      1.0  0.34653  0.26676  0.79431  1.0000
  H   H629      1.0  0.38800  0.40664  0.79926  1.0000
  H   H630      1.0  0.09685  0.33368  0.94573  1.0000
  C   C394      1.0  0.99858  0.41225  0.80848  1.0000
  H   H631      1.0  0.10968  0.47399  0.57959  1.0000
  H   H632      1.0  0.36801  0.27227  0.54982  1.0000
  H   H633      1.0  0.41060  0.46727  0.81604  1.0000
  H   H634      1.0  0.00530  0.30335  0.71714  1.0000
  H   H635      1.0  0.02383  0.38949  0.74453  1.0000
  H   H636      1.0  0.09499  0.41261  0.68286  1.0000
  H   H637      1.0  0.38523  0.34143  0.77778  1.0000
  S   S130      1.0  0.01307  0.49177  0.74146  1.0000
  H   H638      1.0  0.14141  0.48733  0.60551  1.0000
  N   N27       1.0  0.04710  0.31336  0.93461  1.0000
  H   H639      1.0  0.41755  0.37967  0.78384  1.0000
  C   C395      1.0  0.48317  0.41923  0.74080  1.0000
  H   H640      1.0  0.36072  0.27106  0.98601  1.0000
  H   H641      1.0  0.38062  0.29019  0.52034  1.0000
  H   H642      1.0  0.46271  0.37115  0.74155  1.0000
  H   H643      1.0  0.10506  0.44800  0.68269  1.0000
  C   C396      1.0  0.13010  0.45877  0.63114  1.0000
  S   S131      1.0  0.44848  0.48663  0.78538  1.0000
  C   C397      1.0  0.19097  0.27869  0.50395  1.0000
  C   C398      1.0  0.38210  0.33231  0.57436  1.0000
  H   H644      1.0  0.04909  0.34140  0.91644  1.0000
  H   H645      1.0  0.00511  0.31590  0.51466  1.0000
  H   H646      1.0  0.00274  0.37624  0.82904  1.0000
  H   H647      1.0  0.10411  0.43502  0.60226  1.0000
  N   N28       1.0  0.39566  0.38027  0.75349  1.0000
  H   H648      1.0  0.45245  0.41429  0.68570  1.0000
  H   H649      1.0  0.05472  0.29399  0.56075  1.0000
  H   H650      1.0  0.36100  0.27925  0.85458  1.0000
  H   H651      1.0  0.29563  0.26237  0.82158  1.0000
  H   H652      1.0  0.02978  0.29491  0.70478  1.0000
  H   H653      1.0  0.43598  0.40650  0.75997  1.0000
  H   H654      1.0  0.17789  0.27841  0.51553  1.0000
  H   H655      1.0  0.01397  0.32346  0.96149  1.0000
  H   H656      1.0  0.99428  0.27648  0.63137  1.0000
  N   N29       1.0  0.24973  0.31429  0.63230  1.0000
  C   C399      1.0  0.25198  0.31345  0.66528  1.0000
  C   C400      1.0  0.22949  0.30093  0.62813  1.0000
  C   C401      1.0  0.25162  0.33408  0.62118  1.0000
  C   C402      1.0  0.26530  0.30927  0.61726  1.0000
  C   C403      1.0  0.27081  0.32791  0.67502  1.0000
  C   C404      1.0  0.22378  0.28054  0.64317  1.0000
  C   C405      1.0  0.25021  0.33835  0.58773  1.0000
  C   C406      1.0  0.26062  0.30021  0.58811  1.0000
  H   H657      1.0  0.23956  0.31519  0.67730  1.0000
  H   H658      1.0  0.25158  0.29936  0.67450  1.0000
  H   H659      1.0  0.22697  0.30011  0.60440  1.0000
  H   H660      1.0  0.21858  0.30625  0.63688  1.0000
  H   H661      1.0  0.24036  0.33767  0.63307  1.0000
  H   H662      1.0  0.26583  0.34464  0.62576  1.0000
  H   H663      1.0  0.27896  0.32198  0.61236  1.0000
  H   H664      1.0  0.26931  0.29918  0.63229  1.0000
  H   H665      1.0  0.27228  0.32387  0.69872  1.0000
  H   H666      1.0  0.28394  0.32845  0.66201  1.0000
  H   H667      1.0  0.27031  0.34221  0.67378  1.0000
  H   H668      1.0  0.23549  0.27511  0.64027  1.0000
  C   C407      1.0  0.46553  0.38587  0.73497  1.0000
  H   H669      1.0  0.48689  0.39593  0.76664  1.0000
  H   H670      1.0  0.24939  0.35248  0.58340  1.0000
  H   H671      1.0  0.23705  0.32826  0.57951  1.0000
  H   H672      1.0  0.26340  0.33906  0.57470  1.0000
  C   C408      1.0  0.04232  0.31268  0.87860  1.0000
  H   H673      1.0  0.01834  0.27472  0.95591  1.0000
  C   C409      1.0  0.08427  0.47066  0.64416  1.0000
  N   N30       1.0  0.24887  0.39825  0.79984  1.0000
  C   C410      1.0  0.24014  0.38168  0.78252  1.0000
  C   C411      1.0  0.25874  0.39198  0.82477  1.0000
  C   C412      1.0  0.26389  0.41381  0.77907  1.0000
  C   C413      1.0  0.23294  0.40429  0.81073  1.0000
  C   C414      1.0  0.23072  0.38545  0.75413  1.0000
  C   C415      1.0  0.24580  0.37434  0.84571  1.0000
  C   C416      1.0  0.27606  0.43174  0.79239  1.0000
  C   C417      1.0  0.23646  0.41510  0.83833  1.0000
  H   H674      1.0  0.25128  0.37599  0.77600  1.0000
  H   H675      1.0  0.22855  0.36979  0.79638  1.0000
  H   H676      1.0  0.26537  0.40318  0.83902  1.0000
  H   H677      1.0  0.27122  0.38901  0.81565  1.0000
  H   H678      1.0  0.27429  0.40843  0.76872  1.0000
  H   H679      1.0  0.25709  0.41874  0.76036  1.0000
  H   H680      1.0  0.22949  0.41313  0.79262  1.0000
  H   H681      1.0  0.21934  0.39166  0.81687  1.0000
  H   H682      1.0  0.24177  0.39436  0.73619  1.0000
  H   H683      1.0  0.22299  0.37182  0.74545  1.0000
  H   H684      1.0  0.21990  0.39182  0.75833  1.0000
  H   H685      1.0  0.23173  0.37501  0.85289  1.0000
  H   H686      1.0  0.24333  0.36130  0.83520  1.0000
  H   H687      1.0  0.25342  0.37317  0.86594  1.0000
  H   H688      1.0  0.28398  0.42889  0.81126  1.0000
  H   H689      1.0  0.26715  0.43978  0.79859  1.0000
  H   H690      1.0  0.28736  0.44115  0.77508  1.0000
  H   H691      1.0  0.22907  0.42528  0.83645  1.0000
  H   H692      1.0  0.25178  0.42336  0.84150  1.0000
  H   H693      1.0  0.22952  0.40533  0.85880  1.0000
  H   H694      1.0  0.34084  0.33682  0.52168  1.0000
  H   H695      1.0  0.04260  0.28968  0.90975  1.0000
  C   C418      1.0  0.00362  0.26867  0.70720  1.0000
  H   H696      1.0  0.00316  0.27101  0.68276  1.0000
  H   H697      1.0  0.21078  0.27116  0.63331  1.0000
  H   H698      1.0  0.37477  0.35421  0.74100  1.0000
  H   H699      1.0  0.43407  0.26067  0.74422  1.0000
  H   H700      1.0  0.01964  0.37243  0.77725  1.0000
  H   H701      1.0  0.13328  0.36559  0.52204  1.0000
  H   H702      1.0  0.41636  0.39697  0.71700  1.0000
  C   C419      1.0  0.31798  0.25818  0.84850  1.0000
  H   H703      1.0  0.40122  0.39184  0.80893  1.0000
  H   H704      1.0  0.01955  0.30253  0.65195  1.0000
  C   C420      1.0  0.35573  0.33909  0.52801  1.0000
  H   H705      1.0  0.11992  0.42611  0.67126  1.0000
  H   H706      1.0  0.03700  0.27787  0.53988  1.0000
  C   C421      1.0  0.40425  0.34817  0.51888  1.0000
  S   S132      1.0  0.04542  0.37987  0.49229  1.0000
  H   H707      1.0  0.27849  0.34773  0.97819  1.0000
  H   H708      1.0  0.07294  0.31547  0.52219  1.0000
  H   H709      1.0  0.30528  0.27750  0.97605  1.0000
  C   C422      1.0  0.10562  0.47267  0.63970  1.0000
  C   C423      1.0  0.21340  0.34641  0.50872  1.0000
  H   H710      1.0  0.40005  0.40737  0.72907  1.0000
  N   N31       1.0  0.04489  0.31699  0.51476  1.0000
  H   H711      1.0  0.43917  0.28386  0.72712  1.0000
  H   H712      1.0  0.37649  0.38414  0.82129  1.0000
  C   C424      1.0  0.20881  0.28662  0.51599  1.0000
  C   C425      1.0  0.08959  0.28448  0.97763  1.0000
  H   H713      1.0  0.01152  0.31669  0.92429  1.0000
  H   H714      1.0  0.33044  0.26255  0.96364  1.0000
  H   H715      1.0  0.40728  0.26300  0.71522  1.0000
  H   H716      1.0  0.11247  0.48418  0.62147  1.0000
  Fe  Fe66      1.0  0.01463  0.49475  0.79018  1.0000
  C   C426      1.0  0.99061  0.29422  0.59462  1.0000
  H   H717      1.0  0.01761  0.29772  0.53820  1.0000
  H   H718      1.0  0.00456  0.42641  0.84828  1.0000
  H   H719      1.0  0.41432  0.35190  0.53672  1.0000
  H   H720      1.0  0.45105  0.27039  0.71139  1.0000
  H   H721      1.0  0.98854  0.27622  0.92280  1.0000
  H   H722      1.0  0.08372  0.48481  0.64533  1.0000
  H   H723      1.0  0.03338  0.31360  0.56044  1.0000
  H   H724      1.0  0.04433  0.30987  0.98288  1.0000
  C   C427      1.0  0.05708  0.26059  0.98952  1.0000
  C   C428      1.0  0.03799  0.30191  0.91013  1.0000
  C   C429      1.0  0.39034  0.25876  0.77890  1.0000
  N   N32       1.0  0.08664  0.31344  0.63119  1.0000
  C   C430      1.0  0.09468  0.30208  0.65178  1.0000
  C   C431      1.0  0.09109  0.31084  0.59964  1.0000
  C   C432      1.0  0.06491  0.30700  0.63693  1.0000
  C   C433      1.0  0.09584  0.33383  0.63639  1.0000
  C   C434      1.0  0.08995  0.30172  0.68524  1.0000
  C   C435      1.0  0.11277  0.31770  0.58899  1.0000
  C   C436      1.0  0.05326  0.28564  0.63717  1.0000
  C   C437      1.0  0.09193  0.34808  0.61392  1.0000
  H   H725      1.0  0.08971  0.28728  0.64687  1.0000
  H   H726      1.0  0.11079  0.30745  0.64828  1.0000
  H   H727      1.0  0.08412  0.31785  0.58386  1.0000
  H   H728      1.0  0.08483  0.29570  0.59638  1.0000
  H   H729      1.0  0.06096  0.31118  0.65827  1.0000
  H   H730      1.0  0.05889  0.31416  0.61976  1.0000
  H   H731      1.0  0.09064  0.33591  0.65857  1.0000
  H   H732      1.0  0.11187  0.33836  0.63689  1.0000
  H   H733      1.0  0.09609  0.29235  0.69775  1.0000
  H   H734      1.0  0.09678  0.31586  0.69261  1.0000
  H   H735      1.0  0.07414  0.29591  0.69159  1.0000
  H   H736      1.0  0.12101  0.33250  0.59244  1.0000
  H   H737      1.0  0.11964  0.30851  0.59986  1.0000
  H   H738      1.0  0.11420  0.31685  0.56479  1.0000
  H   H739      1.0  0.05488  0.28073  0.61548  1.0000
  H   H740      1.0  0.03759  0.28268  0.64152  1.0000
  H   H741      1.0  0.05710  0.27695  0.65484  1.0000
  H   H742      1.0  0.09895  0.34908  0.59153  1.0000
  H   H743      1.0  0.09816  0.36231  0.62131  1.0000
  H   H744      1.0  0.07624  0.34476  0.61254  1.0000
  N   N33       1.0  0.37568  0.32028  0.54946  1.0000
  C   C438      1.0  0.37309  0.30039  0.56135  1.0000
  C   C439      1.0  0.39110  0.32701  0.52367  1.0000
  C   C440      1.0  0.36890  0.28606  0.53843  1.0000
  H   H745      1.0  0.38626  0.30032  0.57217  1.0000
  H   H746      1.0  0.40142  0.31976  0.52617  1.0000
  C   C441      1.0  0.02180  0.40080  0.78678  1.0000
  H   H747      1.0  0.35228  0.31127  0.52054  1.0000
  H   H748      1.0  0.20242  0.34998  0.52124  1.0000
  H   H749      1.0  0.13800  0.46795  0.58336  1.0000
  H   H750      1.0  0.38411  0.44423  0.96406  1.0000
  C   C442      1.0  0.09993  0.45914  0.57985  1.0000
  H   H751      1.0  0.41917  0.41663  0.77369  1.0000
  H   H752      1.0  0.36265  0.37904  0.72040  1.0000
  S   S133      1.0  0.43874  0.37411  0.69241  1.0000
  H   H753      1.0  0.29967  0.39533  0.97659  1.0000
  H   H754      1.0  0.17094  0.32841  0.50611  1.0000
  H   H755      1.0  0.39612  0.36456  0.71643  1.0000
  H   H756      1.0  0.41707  0.36743  0.75317  1.0000
  H   H757      1.0  0.01842  0.34043  0.92910  1.0000
  H   H758      1.0  0.05782  0.31735  0.87063  1.0000
  C   C443      1.0  0.42488  0.41234  0.75405  1.0000
  H   H759      1.0  0.44194  0.25738  0.66363  1.0000
  C   C444      1.0  0.45586  0.39095  0.71186  1.0000
  C   C445      1.0  0.39203  0.45513  0.97829  1.0000
  C   C446      1.0  0.09863  0.44589  0.60854  1.0000
  H   H760      1.0  0.22172  0.34171  0.52538  1.0000
  H   H761      1.0  0.37294  0.28887  0.81854  1.0000
  H   H762      1.0  0.44900  0.34478  0.54611  1.0000
  C   C447      1.0  0.06885  0.32018  0.92826  1.0000
  C   C448      1.0  0.04167  0.30109  0.96420  1.0000
  C   C449      1.0  0.38552  0.36795  0.73043  1.0000
  H   H763      1.0  0.38766  0.35485  0.80879  1.0000
  H   H764      1.0  0.36841  0.36846  0.78104  1.0000
  C   C450      1.0  0.42003  0.26245  0.70252  1.0000
  H   H765      1.0  0.43280  0.42554  0.73903  1.0000
  Fe  Fe67      1.0  0.47886  0.48974  0.76897  1.0000
  H   H766      1.0  0.36749  0.31292  0.61492  1.0000
  H   H767      1.0  0.11291  0.47844  0.65956  1.0000
  H   H768      1.0  0.35887  0.34881  0.54526  1.0000
  H   H769      1.0  0.13263  0.44568  0.62781  1.0000
  H   H770      1.0  0.10290  0.41633  0.64433  1.0000
  H   H771      1.0  0.07392  0.33082  0.90825  1.0000
  C   C451      1.0  0.00953  0.41674  0.83666  1.0000
  C   C452      1.0  0.30293  0.26238  0.98076  1.0000
  H   H772      1.0  0.11177  0.27621  0.56791  1.0000
  H   H773      1.0  0.43966  0.46697  0.73275  1.0000
  C   C453      1.0  0.06572  0.32581  0.52233  1.0000
  C   C454      1.0  0.03684  0.33206  0.50718  1.0000
  H   H774      1.0  0.47613  0.43893  0.71121  1.0000
  H   H775      1.0  0.38407  0.38887  0.69443  1.0000
  C   C455      1.0  0.10488  0.42307  0.66501  1.0000
  H   H776      1.0  0.37293  0.39067  0.76200  1.0000
  C   C456      1.0  0.02704  0.38743  0.76800  1.0000
  H   H777      1.0  0.36721  0.36539  0.69374  1.0000
  C   C457      1.0  0.37432  0.37607  0.70876  1.0000
  C   C458      1.0  0.38716  0.39184  0.80218  1.0000
  H   H778      1.0  0.40576  0.34590  0.79896  1.0000
  H   H779      1.0  0.99083  0.29508  0.68765  1.0000
  H   H780      1.0  0.36087  0.29428  0.57890  1.0000
  N   N34       1.0  0.10867  0.45482  0.63461  1.0000
  C   C459      1.0  0.10020  0.44107  0.66239  1.0000
  C   C460      1.0  0.36824  0.32646  0.60287  1.0000
  C   C461      1.0  0.02021  0.32727  0.93808  1.0000
  C   C462      1.0  0.02483  0.27979  0.71357  1.0000
  H   H781      1.0  0.04791  0.33782  0.95510  1.0000
  H   H782      1.0  0.08409  0.43617  0.66446  1.0000
  C   C463      1.0  0.08082  0.26141  0.56627  1.0000
  H   H783      1.0  0.35906  0.25566  0.81604  1.0000
  H   H784      1.0  0.33919  0.29388  0.97611  1.0000
  H   H785      1.0  0.13696  0.46361  0.65180  1.0000
  H   H786      1.0  0.29633  0.25557  0.96129  1.0000
  H   H787      1.0  0.99910  0.40818  0.74918  1.0000
  H   H788      1.0  0.24956  0.28565  0.59216  1.0000
  H   H789      1.0  0.35483  0.28362  0.52883  1.0000
  H   H790      1.0  0.47029  0.48690  0.64543  1.0000
  H   H791      1.0  0.07698  0.46198  0.66533  1.0000
  C   C464      1.0  0.35850  0.28120  0.83090  1.0000
  H   H792      1.0  0.08525  0.45876  0.57520  1.0000
  H   H793      1.0  0.02536  0.42428  0.83096  1.0000
  C   C465      1.0  0.47322  0.42422  0.71807  1.0000
  H   H794      1.0  0.07585  0.46479  0.62543  1.0000
  C   C466      1.0  0.99086  0.27128  0.75636  1.0000
  H   H795      1.0  0.03761  0.32479  0.87706  1.0000
  H   H796      1.0  0.40558  0.45299  0.98305  1.0000
  H   H797      1.0  0.10513  0.45388  0.56064  1.0000
  C   C467      1.0  0.14207  0.47324  0.60495  1.0000
  C   C468      1.0  0.99089  0.29329  0.71221  1.0000
  C   C469      1.0  0.31062  0.27051  0.82710  1.0000
  C   C470      1.0  0.43711  0.26941  0.72235  1.0000
  C   C471      1.0  0.04193  0.33048  0.93567  1.0000
  H   H798      1.0  0.03030  0.28166  0.57590  1.0000
  C   C472      1.0  0.03314  0.30481  0.54228  1.0000
  H   H799      1.0  0.15757  0.47522  0.60621  1.0000
  H   H800      1.0  0.44493  0.49051  0.67550  1.0000
  H   H801      1.0  0.00682  0.40397  0.85247  1.0000
  S   S134      1.0  0.34070  0.41567  0.98581  1.0000
  H   H802      1.0  0.05107  0.29284  0.96712  1.0000
  H   H803      1.0  0.41349  0.35116  0.49779  1.0000
  H   H804      1.0  0.14704  0.26213  0.98173  1.0000
  C   C473      1.0  0.07917  0.34385  0.50262  1.0000
  H   H805      1.0  0.09421  0.34765  0.50938  1.0000
  H   H806      1.0  0.07511  0.35609  0.50573  1.0000
  H   H807      1.0  0.48216  0.49999  0.67401  1.0000
  H   H808      1.0  0.46076  0.50300  0.71652  1.0000
  C   C474      1.0  0.22562  0.28660  0.50080  1.0000
  H   H809      1.0  0.07903  0.34212  0.95867  1.0000
  H   H810      1.0  0.05044  0.29452  0.49598  1.0000
  S   S135      1.0  0.11195  0.30079  0.98756  1.0000
  H   H811      1.0  0.25298  0.31674  0.98998  1.0000
  H   H812      1.0  0.01220  0.33774  0.49153  1.0000
  H   H813      1.0  0.10370  0.25507  0.98727  1.0000
  N   N35       1.0  0.98822  0.27331  0.72343  1.0000
  H   H814      1.0  0.22391  0.35923  0.49531  1.0000
  H   H815      1.0  0.00156  0.28460  0.76283  1.0000
  S   S136      1.0  0.98828  0.28627  0.86008  1.0000
  C   C475      1.0  0.99199  0.37747  0.81338  1.0000
  H   H816      1.0  0.07875  0.31928  0.97372  1.0000
  C   C476      1.0  0.99115  0.39511  0.76467  1.0000
  H   H817      1.0  0.99713  0.26038  0.76212  1.0000
  H   H818      1.0  0.40323  0.25410  0.81914  1.0000
  C   C477      1.0  0.45516  0.50373  0.66222  1.0000
  S   S137      1.0  0.00657  0.54702  0.20079  1.0000
  S   S138      1.0  0.00534  0.51830  0.28038  1.0000
  Fe  Fe68      1.0  0.08471  0.67140  0.06296  1.0000
  Fe  Fe69      1.0  0.07453  0.62856  0.07947  1.0000
  S   S139      1.0  0.05996  0.62135  0.03752  1.0000
  S   S140      1.0  0.07692  0.60583  0.11372  1.0000
  Fe  Fe70      1.0  0.04690  0.64244  0.04634  1.0000
  S   S141      1.0  0.01499  0.63499  0.04352  1.0000
  S   S142      1.0  0.10080  0.65232  0.05575  1.0000
  S   S143      1.0  0.05970  0.64802  0.08976  1.0000
  C   C478      1.0  0.00630  0.64592  0.06942  1.0000
  C   C479      1.0  0.00651  0.67427  0.08870  1.0000
  C   C480      1.0  0.01453  0.66549  0.06931  1.0000
  H   H819      1.0  0.02682  0.67386  0.05383  1.0000
  C   C481      1.0  0.02671  0.56367  0.17791  1.0000
  C   C482      1.0  0.02364  0.57750  0.15841  1.0000
  C   C483      1.0  0.03883  0.59049  0.13870  1.0000
  C   C484      1.0  0.05738  0.58990  0.13841  1.0000
  C   C485      1.0  0.06050  0.57614  0.15805  1.0000
  C   C486      1.0  0.04526  0.56306  0.17768  1.0000
  H   H820      1.0  0.00935  0.57809  0.15836  1.0000
  H   H821      1.0  0.03620  0.60097  0.12373  1.0000
  H   H822      1.0  0.07481  0.57561  0.15804  1.0000
  H   H823      1.0  0.04788  0.55256  0.19259  1.0000
  H   H824      1.0  0.10398  0.73638  0.10055  1.0000
  H   H825      1.0  0.05784  0.69838  0.20034  1.0000
  N   N36       1.0  0.04683  0.68805  0.15947  1.0000
  C   C487      1.0  0.06201  0.70503  0.14136  1.0000
  C   C488      1.0  0.02868  0.69226  0.16356  1.0000
  S   S144      1.0  0.09391  0.69975  0.08177  1.0000
  H   H826      1.0  0.04685  0.70469  0.40548  1.0000
  C   C489      1.0  0.11570  0.72014  0.07536  1.0000
  C   C490      1.0  0.06080  0.71564  0.40960  1.0000
  H   H827      1.0  0.07538  0.70238  0.13601  1.0000
  H   H828      1.0  0.06661  0.71736  0.15421  1.0000
  S   S145      1.0  0.00888  0.72813  0.13303  1.0000
  H   H829      1.0  0.05717  0.67030  0.13490  1.0000
  H   H830      1.0  0.01292  0.68937  0.08852  1.0000
  C   C491      1.0  0.11639  0.73659  0.08720  1.0000
  C   C492      1.0  0.05608  0.71161  0.11133  1.0000
  H   H831      1.0  0.04339  0.71571  0.11385  1.0000
  H   H832      1.0  0.05330  0.70090  0.09567  1.0000
  H   H833      1.0  0.06828  0.72430  0.10059  1.0000
  S   S146      1.0  0.07030  0.66717  0.01999  1.0000
  Fe  Fe71      1.0  0.00524  0.71422  0.37848  1.0000
  Fe  Fe72      1.0  0.08465  0.64654  0.01431  1.0000
  S   S147      1.0  0.00743  0.68582  0.38450  1.0000
  H   H834      1.0  0.07223  0.71242  0.39755  1.0000
  C   C493      1.0  0.06460  0.71619  0.44278  1.0000
  C   C494      1.0  0.04328  0.67138  0.14247  1.0000
  H   H835      1.0  0.02061  0.69011  0.14327  1.0000
  H   H836      1.0  0.03248  0.70739  0.16659  1.0000
  C   C495      1.0  0.05463  0.68545  0.18904  1.0000
  H   H837      1.0  0.03694  0.67341  0.12133  1.0000
  C   C496      1.0  0.07308  0.68077  0.18810  1.0000
  H   H838      1.0  0.04380  0.67403  0.20454  1.0000
  H   H839      1.0  0.08581  0.69250  0.17636  1.0000
  H   H840      1.0  0.07081  0.66761  0.17808  1.0000
  H   H841      1.0  0.07686  0.67843  0.21118  1.0000
  Fe  Fe73      1.0  0.00190  0.51987  0.23113  1.0000
  Fe  Fe74      1.0  0.01778  0.74091  0.08567  1.0000
  H   H842      1.0  0.01708  0.73158  0.24087  1.0000
  C   C497      1.0  0.07993  0.73393  0.02105  1.0000
  H   H843      1.0  0.03048  0.64980  0.18191  1.0000
  C   C498      1.0  0.01397  0.68113  0.19002  1.0000
  H   H844      1.0  0.01977  0.68528  0.21151  1.0000
  H   H845      1.0  0.03367  0.64081  0.14895  1.0000
  C   C499      1.0  0.02954  0.65190  0.15772  1.0000
  H   H846      1.0  0.00907  0.66571  0.19015  1.0000
  C   C500      1.0  0.13200  0.72059  0.05844  1.0000
  H   H847      1.0  0.00083  0.68465  0.18840  1.0000
  H   H848      1.0  0.13175  0.70804  0.04932  1.0000
  H   H849      1.0  0.03227  0.55116  0.12250  1.0000
  N   N37       1.0  0.01130  0.52289  0.12024  1.0000
  H   H850      1.0  0.00035  0.73159  0.19453  1.0000
  H   H851      1.0  0.03947  0.53895  0.09631  1.0000
  C   C501      1.0  0.02663  0.54123  0.10578  1.0000
  H   H852      1.0  0.02161  0.52647  0.16397  1.0000
  S   S148      1.0  0.03236  0.73966  0.36515  1.0000
  H   H853      1.0  0.06107  0.72949  0.39957  1.0000
  C   C502      1.0  0.01950  0.51646  0.14717  1.0000
  C   C503      1.0  0.01074  0.74198  0.23564  1.0000
  C   C504      1.0  0.06199  0.71529  0.02663  1.0000
  S   S149      1.0  0.99691  0.71571  0.06746  1.0000
  H   H854      1.0  0.01029  0.72694  0.47322  1.0000
  H   H855      1.0  0.11921  0.74498  0.02238  1.0000
  H   H856      1.0  0.02954  0.71929  0.43564  1.0000
  H   H857      1.0  0.02578  0.68771  0.44201  1.0000
  H   H858      1.0  0.05434  0.67846  0.43878  1.0000
  H   H859      1.0  0.01428  0.64923  0.15294  1.0000
  C   C505      1.0  0.03515  0.72100  0.45800  1.0000
  H   H860      1.0  0.08678  0.73531  0.04256  1.0000
  H   H861      1.0  0.01355  0.54299  0.06315  1.0000
  H   H862      1.0  0.06597  0.70362  0.03670  1.0000
  H   H863      1.0  0.05137  0.71688  0.04291  1.0000
  H   H864      1.0  0.07472  0.70892  0.44804  1.0000
  C   C506      1.0  0.02034  0.55202  0.08040  1.0000
  C   C507      1.0  0.03435  0.68879  0.46171  1.0000
  H   H865      1.0  0.99512  0.64581  0.39511  1.0000
  H   H866      1.0  0.04436  0.73617  0.45674  1.0000
  H   H867      1.0  0.07341  0.73120  0.44480  1.0000
  N   N38       1.0  0.04688  0.70902  0.46446  1.0000
  H   H868      1.0  0.05387  0.67515  0.47899  1.0000
  H   H869      1.0  0.05442  0.71121  0.00649  1.0000
  H   H870      1.0  0.48692  0.64804  0.29575  1.0000
  C   C508      1.0  0.04507  0.67519  0.45988  1.0000
  H   H871      1.0  0.03417  0.66063  0.46010  1.0000
  S   S150      1.0  0.04952  0.74957  0.07007  1.0000
  H   H872      1.0  0.04832  0.75228  0.18458  1.0000
  H   H873      1.0  0.10166  0.71280  0.01644  1.0000
  Fe  Fe75      1.0  0.01418  0.74769  0.33197  1.0000
  H   H874      1.0  0.03338  0.56389  0.06952  1.0000
  C   C509      1.0  0.98856  0.65039  0.41294  1.0000
  H   H875      1.0  0.99830  0.53952  0.14227  1.0000
  C   C510      1.0  0.99381  0.52704  0.12979  1.0000
  C   C511      1.0  0.11393  0.75018  0.00216  1.0000
  N   N39       1.0  0.09466  0.73579  0.99583  1.0000
  H   H876      1.0  0.01046  0.55851  0.08899  1.0000
  S   S151      1.0  0.98798  0.72095  0.34283  1.0000
  H   H877      1.0  0.98858  0.65625  0.01397  1.0000
  S   S152      1.0  0.99431  0.72738  0.41322  1.0000
  H   H878      1.0  0.02318  0.68275  0.48082  1.0000
  H   H879      1.0  0.05118  0.52824  0.13718  1.0000
  C   C512      1.0  0.03904  0.51427  0.14134  1.0000
  C   C513      1.0  0.99052  0.63509  0.08959  1.0000
  C   C514      1.0  0.13294  0.75343  0.08161  1.0000
  C   C515      1.0  0.00158  0.74218  0.20910  1.0000
  H   H880      1.0  0.99107  0.51603  0.43314  1.0000
  H   H881      1.0  0.08352  0.70573  0.99167  1.0000
  C   C516      1.0  0.99057  0.66345  0.10865  1.0000
  Fe  Fe76      1.0  0.47748  0.50406  0.24884  1.0000
  H   H882      1.0  0.04206  0.50671  0.16149  1.0000
  H   H883      1.0  0.07443  0.74557  0.01810  1.0000
  C   C517      1.0  0.99204  0.66953  0.41305  1.0000
  H   H884      1.0  0.06694  0.74939  0.16155  1.0000
  H   H885      1.0  0.99017  0.55781  0.35767  1.0000
  H   H886      1.0  0.44020  0.61204  0.32962  1.0000
  H   H887      1.0  0.47324  0.62398  0.26169  1.0000
  S   S153      1.0  0.47882  0.53024  0.26978  1.0000
  C   C518      1.0  0.14869  0.73739  0.05323  1.0000
  H   H888      1.0  0.46702  0.61327  0.35409  1.0000
  H   H889      1.0  0.47386  0.64552  0.34902  1.0000
  C   C519      1.0  0.09728  0.71733  0.99474  1.0000
  C   C520      1.0  0.46918  0.61149  0.33031  1.0000
  H   H890      1.0  0.46596  0.59612  0.33091  1.0000
  H   H891      1.0  0.00664  0.70256  0.48048  1.0000
  H   H892      1.0  0.99645  0.51180  0.08204  1.0000
  H   H893      1.0  0.16501  0.74906  0.14777  1.0000
  H   H894      1.0  0.39618  0.51260  0.03258  1.0000
  H   H895      1.0  0.44823  0.60520  0.29628  1.0000
  H   H896      1.0  0.41677  0.50571  0.03675  1.0000
  C   C521      1.0  0.45289  0.61485  0.31360  1.0000
  H   H897      1.0  0.16121  0.73760  0.04010  1.0000
  H   H898      1.0  0.45674  0.62954  0.30349  1.0000
  H   H899      1.0  0.48693  0.60074  0.28970  1.0000
  C   C522      1.0  0.01751  0.71708  0.48020  1.0000
  H   H900      1.0  0.03893  0.50603  0.12262  1.0000
  H   H901      1.0  0.01971  0.51058  0.08404  1.0000
  C   C523      1.0  0.00635  0.50889  0.09785  1.0000
  H   H902      1.0  0.99492  0.55620  0.48308  1.0000
  H   H903      1.0  0.99323  0.55068  0.44576  1.0000
  H   H904      1.0  0.99283  0.52384  0.48214  1.0000
  H   H905      1.0  0.48736  0.58970  0.35948  1.0000
  H   H906      1.0  0.98861  0.70330  0.00714  1.0000
  H   H907      1.0  0.07869  0.73729  0.49072  1.0000
  Fe  Fe77      1.0  0.02052  0.75364  0.39767  1.0000
  Fe  Fe78      1.0  0.07451  0.63137  0.75883  1.0000
  S   S154      1.0  0.06280  0.63572  0.80244  1.0000
  S   S155      1.0  0.07451  0.60362  0.74547  1.0000
  Fe  Fe79      1.0  0.08561  0.67316  0.73199  1.0000
  S   S156      1.0  0.07430  0.68066  0.77375  1.0000
  S   S157      1.0  0.09970  0.69101  0.68753  1.0000
  Fe  Fe80      1.0  0.08849  0.66305  0.79861  1.0000
  S   S158      1.0  0.10818  0.67371  0.83527  1.0000
  Fe  Fe81      1.0  0.04951  0.65272  0.77457  1.0000
  S   S159      1.0  0.01822  0.64625  0.78782  1.0000
  S   S160      1.0  0.10170  0.65745  0.75682  1.0000
  S   S161      1.0  0.05929  0.64646  0.73104  1.0000
  H   H908      1.0  0.04093  0.70298  0.51239  1.0000
  H   H909      1.0  0.43740  0.53183  0.69793  1.0000
  C   C524      1.0  0.12932  0.62179  0.89921  1.0000
  C   C525      1.0  0.10431  0.71486  0.67366  1.0000
  C   C526      1.0  0.11116  0.72114  0.64367  1.0000
  C   C527      1.0  0.11561  0.74003  0.63172  1.0000
  H   H910      1.0  0.01800  0.56156  0.76610  1.0000
  H   H911      1.0  0.01701  0.59004  0.68812  1.0000
  C   C528      1.0  0.10197  0.72777  0.69160  1.0000
  H   H912      1.0  0.11297  0.71128  0.62956  1.0000
  H   H913      1.0  0.00163  0.59778  0.73458  1.0000
  S   S162      1.0  0.09940  0.64356  0.97139  1.0000
  H   H914      1.0  0.09676  0.72318  0.71471  1.0000
  C   C529      1.0  0.10364  0.66770  0.87427  1.0000
  C   C530      1.0  0.08532  0.65642  0.88842  1.0000
  C   C531      1.0  0.08335  0.65034  0.91928  1.0000
  C   C532      1.0  0.09967  0.65556  0.93596  1.0000
  C   C533      1.0  0.11769  0.66739  0.92180  1.0000
  C   C534      1.0  0.11961  0.67357  0.89135  1.0000
  H   H915      1.0  0.07285  0.65188  0.87549  1.0000
  H   H916      1.0  0.06944  0.64079  0.92982  1.0000
  H   H917      1.0  0.13045  0.67110  0.93417  1.0000
  H   H918      1.0  0.13380  0.68227  0.88069  1.0000
  H   H919      1.0  0.12634  0.63582  0.79065  1.0000
  H   H920      1.0  0.12529  0.75254  0.98395  1.0000
  H   H921      1.0  0.15246  0.74289  0.59769  1.0000
  H   H922      1.0  0.45986  0.55793  0.67899  1.0000
  C   C535      1.0  0.00894  0.64414  0.73020  1.0000
  H   H923      1.0  0.47797  0.56822  0.64966  1.0000
  H   H924      1.0  0.48562  0.53800  0.65657  1.0000
  H   H925      1.0  0.10728  0.63309  0.89213  1.0000
  H   H926      1.0  0.02244  0.65607  0.72427  1.0000
  H   H927      1.0  0.07882  0.60827  0.83423  1.0000
  C   C536      1.0  0.04194  0.54375  0.79326  1.0000
  C   C537      1.0  0.04360  0.55951  0.80789  1.0000
  C   C538      1.0  0.05291  0.57798  0.79323  1.0000
  C   C539      1.0  0.06127  0.58081  0.76418  1.0000
  C   C540      1.0  0.05959  0.56505  0.74960  1.0000
  C   C541      1.0  0.04976  0.54661  0.76390  1.0000
  H   H928      1.0  0.03750  0.55741  0.83057  1.0000
  H   H929      1.0  0.05388  0.58997  0.80453  1.0000
  H   H930      1.0  0.06602  0.56713  0.72713  1.0000
  H   H931      1.0  0.04866  0.53461  0.75246  1.0000
  C   C542      1.0  0.06773  0.60323  0.87988  1.0000
  H   H932      1.0  0.13019  0.62374  0.92314  1.0000
  C   C543      1.0  0.06451  0.73012  0.50384  1.0000
  C   C544      1.0  0.05343  0.71010  0.49550  1.0000
  H   H933      1.0  0.07219  0.73321  0.92951  1.0000
  H   H934      1.0  0.11947  0.64134  0.83968  1.0000
  H   H935      1.0  0.01888  0.59252  0.75541  1.0000
  H   H936      1.0  0.17077  0.72573  0.67123  1.0000
  C   C545      1.0  0.00380  0.63622  0.75983  1.0000
  H   H937      1.0  0.08530  0.62872  0.85217  1.0000
  H   H938      1.0  0.11862  0.59396  0.85496  1.0000
  C   C546      1.0  0.11344  0.75298  0.64972  1.0000
  C   C547      1.0  0.08409  0.61377  0.85521  1.0000
  H   H939      1.0  0.09215  0.58696  0.81659  1.0000
  H   H940      1.0  0.09340  0.56741  0.83959  1.0000
  H   H941      1.0  0.05350  0.60138  0.87109  1.0000
  C   C548      1.0  0.02426  0.59347  0.70880  1.0000
  C   C549      1.0  0.10367  0.59326  0.86062  1.0000
  H   H942      1.0  0.12061  0.74455  0.60857  1.0000
  C   C550      1.0  0.10877  0.61937  0.89063  1.0000
  C   C551      1.0  0.47071  0.53804  0.65885  1.0000
  H   H943      1.0  0.01755  0.55673  0.72890  1.0000
  H   H944      1.0  0.10895  0.72157  0.94789  1.0000
  C   C552      1.0  0.46614  0.51817  0.70724  1.0000
  H   H945      1.0  0.46661  0.53818  0.63553  1.0000
  C   C553      1.0  0.99645  0.53485  0.75860  1.0000
  H   H946      1.0  0.09943  0.58521  0.88323  1.0000
  C   C554      1.0  0.11212  0.71704  0.97036  1.0000
  H   H947      1.0  0.47097  0.52712  0.75131  1.0000
  H   H948      1.0  0.14611  0.72095  0.68211  1.0000
  H   H949      1.0  0.42792  0.50719  0.69808  1.0000
  H   H950      1.0  0.06754  0.58911  0.88806  1.0000
  C   C555      1.0  0.16796  0.75218  0.59782  1.0000
  S   S163      1.0  0.03053  0.52082  0.81264  1.0000
  C   C556      1.0  0.09023  0.58041  0.83984  1.0000
  H   H951      1.0  0.43523  0.53605  0.64170  1.0000
  C   C557      1.0  0.46203  0.52833  0.73283  1.0000
  H   H952      1.0  0.11892  0.61107  0.79976  1.0000
  H   H953      1.0  0.06910  0.61159  0.89886  1.0000
  C   C558      1.0  0.47336  0.55725  0.66924  1.0000
  H   H954      1.0  0.99600  0.67960  0.76938  1.0000
  C   C559      1.0  0.99085  0.56949  0.79864  1.0000
  H   H955      1.0  0.07475  0.57576  0.84792  1.0000
  H   H956      1.0  0.48220  0.52274  0.70367  1.0000
  C   C560      1.0  0.11857  0.62672  0.83767  1.0000
  H   H957      1.0  0.00674  0.52763  0.76212  1.0000
  H   H958      1.0  0.10121  0.62223  0.79829  1.0000
  H   H959      1.0  0.13285  0.60930  0.89593  1.0000
  H   H960      1.0  0.09860  0.60938  0.90879  1.0000
  N   N40       1.0  0.10359  0.61288  0.86064  1.0000
  H   H961      1.0  0.15373  0.72632  0.64380  1.0000
  H   H962      1.0  0.16675  0.75245  0.69285  1.0000
  H   H963      1.0  0.03507  0.58677  0.71143  1.0000
  C   C561      1.0  0.16276  0.75076  0.66959  1.0000
  N   N41       1.0  0.99618  0.56789  0.74247  1.0000
  H   H964      1.0  0.14045  0.63471  0.88689  1.0000
  N   N42       1.0  0.45740  0.52061  0.67831  1.0000
  C   C562      1.0  0.07089  0.72951  0.95399  1.0000
  C   C563      1.0  0.15843  0.72992  0.66592  1.0000
  C   C564      1.0  0.00980  0.58828  0.73648  1.0000
  H   H965      1.0  0.13329  0.62685  0.84128  1.0000
  C   C565      1.0  0.11573  0.62345  0.80497  1.0000
  H   H966      1.0  0.03262  0.60894  0.70605  1.0000
  H   H967      1.0  0.06778  0.72899  0.52746  1.0000
  C   C566      1.0  0.00802  0.55600  0.74881  1.0000
  C   C567      1.0  0.99607  0.63731  0.70846  1.0000
  C   C568      1.0  0.42663  0.52315  0.65684  1.0000
  C   C569      1.0  0.43733  0.52060  0.68437  1.0000
  H   H968      1.0  0.00109  0.58429  0.79834  1.0000
  H   H969      1.0  0.06320  0.70227  0.49921  1.0000
  H   H970      1.0  0.99974  0.64395  0.68575  1.0000
  H   H971      1.0  0.19334  0.74699  0.63977  1.0000
  H   H972      1.0  0.10135  0.74767  0.94931  1.0000
  C   C570      1.0  0.10652  0.74671  0.67968  1.0000
  C   C571      1.0  0.08909  0.74286  0.96684  1.0000
  H   H973      1.0  0.12722  0.72558  0.97471  1.0000
  H   H974      1.0  0.42227  0.51064  0.64459  1.0000
  H   H975      1.0  0.44670  0.52141  0.74219  1.0000
  H   H976      1.0  0.46556  0.54351  0.72639  1.0000
  H   H977      1.0  0.02174  0.71972  0.50295  1.0000
  H   H978      1.0  0.44881  0.50472  0.64069  1.0000
  H   H979      1.0  0.05594  0.73920  0.50183  1.0000
  H   H980      1.0  0.41297  0.52471  0.66429  1.0000
  H   H981      1.0  0.17621  0.74318  0.60321  1.0000
  H   H982      1.0  0.11132  0.70231  0.97036  1.0000
  H   H983      1.0  0.99426  0.56005  0.69768  1.0000
  H   H984      1.0  0.99805  0.55972  0.80593  1.0000
  H   H985      1.0  0.06916  0.71455  0.95707  1.0000
  H   H986      1.0  0.05758  0.73096  0.96334  1.0000
  H   H987      1.0  0.48363  0.51165  0.63704  1.0000
  H   H988      1.0  0.48475  0.56122  0.68515  1.0000
  H   H989      1.0  0.14862  0.75250  0.66862  1.0000
  Fe  Fe82      1.0  0.14874  0.82759  0.08039  1.0000
  S   S164      1.0  0.15809  0.82044  0.03715  1.0000
  S   S165      1.0  0.11789  0.82583  0.08986  1.0000
  Fe  Fe83      1.0  0.18882  0.83605  0.10456  1.0000
  S   S166      1.0  0.20065  0.82895  0.06314  1.0000
  S   S167      1.0  0.20448  0.84493  0.14647  1.0000
  Fe  Fe84      1.0  0.18566  0.84595  0.03840  1.0000
  H   H990      1.0  0.37776  0.96151  0.43203  1.0000
  Fe  Fe85      1.0  0.17195  0.80417  0.06550  1.0000
  S   S168      1.0  0.17036  0.77489  0.05690  1.0000
  S   S169      1.0  0.17526  0.85437  0.07982  1.0000
  S   S170      1.0  0.16117  0.81000  0.10876  1.0000
  H   H991      1.0  0.42416  0.97632  0.26794  1.0000
  H   H992      1.0  0.23479  0.89463  0.10906  1.0000
  H   H993      1.0  0.00623  0.78016  0.26182  1.0000
  H   H994      1.0  0.24314  0.81420  0.17803  1.0000
  H   H995      1.0  0.13317  0.76598  0.09066  1.0000
  H   H996      1.0  0.27695  0.84573  0.37515  1.0000
  S   S171      1.0  0.45455  0.95029  0.29202  1.0000
  Fe  Fe86      1.0  0.30859  0.88437  0.21754  1.0000
  S   S172      1.0  0.29786  0.90135  0.24584  1.0000
  S   S173      1.0  0.29165  0.86618  0.18286  1.0000
  Fe  Fe87      1.0  0.35114  0.90408  0.23444  1.0000
  S   S174      1.0  0.34323  0.92262  0.26333  1.0000
  S   S175      1.0  0.38238  0.90884  0.21964  1.0000
  Fe  Fe88      1.0  0.31734  0.89638  0.27992  1.0000
  S   S176      1.0  0.30498  0.89181  0.32791  1.0000
  Fe  Fe89      1.0  0.32453  0.92592  0.22737  1.0000
  S   S177      1.0  0.32376  0.95316  0.20606  1.0000
  S   S178      1.0  0.32623  0.87717  0.25306  1.0000
  S   S179      1.0  0.33434  0.90955  0.19716  1.0000
  S   S180      1.0  0.35041  0.89410  0.44393  1.0000
  C   C572      1.0  0.31949  0.89451  0.35830  1.0000
  C   C573      1.0  0.31489  0.90240  0.38267  1.0000
  C   C574      1.0  0.32447  0.90267  0.40882  1.0000
  C   C575      1.0  0.33852  0.89469  0.41104  1.0000
  C   C576      1.0  0.34345  0.88718  0.38640  1.0000
  C   C577      1.0  0.33408  0.88721  0.36004  1.0000
  H   H997      1.0  0.30366  0.90815  0.38138  1.0000
  H   H998      1.0  0.32086  0.90891  0.42726  1.0000
  H   H999      1.0  0.35436  0.88104  0.38784  1.0000
  H   H1000     1.0  0.33760  0.88090  0.34150  1.0000
  H   H1001     1.0  0.25973  0.87389  0.42232  1.0000
  H   H1002     1.0  0.10276  0.76986  0.42929  1.0000
  C   C578      1.0  0.34694  0.98985  0.20934  1.0000
  C   C579      1.0  0.33751  0.97184  0.22486  1.0000
  C   C580      1.0  0.33928  0.96879  0.25529  1.0000
  C   C581      1.0  0.35061  0.98372  0.27014  1.0000
  H   H1003     1.0  0.38003  0.95206  0.22463  1.0000
  H   H1004     1.0  0.08218  0.78896  0.21579  1.0000
  H   H1005     1.0  0.33169  0.95498  0.26744  1.0000
  H   H1006     1.0  0.35195  0.98133  0.29367  1.0000
  C   C582      1.0  0.43469  0.93893  0.27137  1.0000
  C   C583      1.0  0.41621  0.92937  0.28626  1.0000
  C   C584      1.0  0.40000  0.92045  0.27060  1.0000
  C   C585      1.0  0.40218  0.92079  0.23985  1.0000
  C   C586      1.0  0.42069  0.93021  0.22490  1.0000
  C   C587      1.0  0.43684  0.93938  0.24058  1.0000
  H   H1007     1.0  0.41448  0.92859  0.31006  1.0000
  H   H1008     1.0  0.38590  0.91283  0.28234  1.0000
  H   H1009     1.0  0.42247  0.93056  0.20107  1.0000
  H   H1010     1.0  0.45089  0.94704  0.22889  1.0000
  C   C588      1.0  0.05971  0.77391  0.44726  1.0000
  H   H1011     1.0  0.03762  0.81396  0.14419  1.0000
  H   H1012     1.0  0.06194  0.76716  0.22883  1.0000
  H   H1013     1.0  0.42907  0.87424  0.17352  1.0000
  C   C589      1.0  0.28303  0.85382  0.41942  1.0000
  H   H1014     1.0  0.45338  0.90388  0.15463  1.0000
  H   H1015     1.0  0.11783  0.88542  0.44448  1.0000
  H   H1016     1.0  0.24323  0.84429  0.44709  1.0000
  H   H1017     1.0  0.28591  0.84072  0.42325  1.0000
  H   H1018     1.0  0.06510  0.82087  0.16773  1.0000
  H   H1019     1.0  0.20145  0.89588  0.02935  1.0000
  H   H1020     1.0  0.28416  0.88745  0.42808  1.0000
  C   C590      1.0  0.22905  0.85167  0.15537  1.0000
  C   C591      1.0  0.24370  0.85112  0.13570  1.0000
  C   C592      1.0  0.26270  0.85550  0.14459  1.0000
  C   C593      1.0  0.26750  0.86110  0.17280  1.0000
  C   C594      1.0  0.25295  0.86207  0.19221  1.0000
  C   C595      1.0  0.23382  0.85717  0.18363  1.0000
  H   H1021     1.0  0.24035  0.84705  0.11382  1.0000
  H   H1022     1.0  0.27381  0.85462  0.12944  1.0000
  H   H1023     1.0  0.25634  0.86621  0.21405  1.0000
  H   H1024     1.0  0.22262  0.85762  0.19908  1.0000
  C   C596      1.0  0.09906  0.80486  0.08303  1.0000
  C   C597      1.0  0.08026  0.80458  0.07981  1.0000
  C   C598      1.0  0.06483  0.78770  0.07609  1.0000
  C   C599      1.0  0.06813  0.77098  0.07569  1.0000
  C   C600      1.0  0.08694  0.77133  0.07861  1.0000
  C   C601      1.0  0.10236  0.78818  0.08215  1.0000
  H   H1025     1.0  0.07769  0.81752  0.07991  1.0000
  H   H1026     1.0  0.05049  0.78768  0.07301  1.0000
  H   H1027     1.0  0.21294  0.81277  0.17796  1.0000
  H   H1028     1.0  0.11679  0.78828  0.08448  1.0000
  H   H1029     1.0  0.28333  0.86587  0.49039  1.0000
  H   H1030     1.0  0.25869  0.89539  0.45521  1.0000
  H   H1031     1.0  0.25553  0.84292  0.39778  1.0000
  C   C602      1.0  0.40474  0.97866  0.21553  1.0000
  C   C603      1.0  0.38918  0.96333  0.23731  1.0000
  H   H1032     1.0  0.35270  0.94744  0.43099  1.0000
  C   C604      1.0  0.47778  0.93174  0.18374  1.0000
  H   H1033     1.0  0.06497  0.78793  0.24475  1.0000
  H   H1034     1.0  0.07074  0.76495  0.40960  1.0000
  H   H1035     1.0  0.02582  0.79995  0.17918  1.0000
  C   C605      1.0  0.22760  0.78666  0.16165  1.0000
  H   H1036     1.0  0.43210  0.99150  0.16652  1.0000
  C   C606      1.0  0.09628  0.77945  0.46991  1.0000
  C   C607      1.0  0.09335  0.82688  0.43524  1.0000
  C   C608      1.0  0.24491  0.80568  0.16062  1.0000
  H   H1037     1.0  0.45157  0.87248  0.18222  1.0000
  H   H1038     1.0  0.27694  0.93347  0.00716  1.0000
  H   H1039     1.0  0.25857  0.94235  0.00183  1.0000
  C   C609      1.0  0.18251  0.79721  0.18348  1.0000
  H   H1040     1.0  0.45563  0.99186  0.27586  1.0000
  H   H1041     1.0  0.08258  0.78030  0.17192  1.0000
  C   C610      1.0  0.17541  0.76375  0.14107  1.0000
  H   H1042     1.0  0.10122  0.81039  0.16448  1.0000
  H   H1043     1.0  0.25889  0.88239  0.02211  1.0000
  N   N43       1.0  0.20807  0.78767  0.15636  1.0000
  C   C611      1.0  0.14023  0.83405  0.45040  1.0000
  S   S181      1.0  0.00429  0.76393  0.36332  1.0000
  C   C612      1.0  0.21649  0.79148  0.10007  1.0000
  C   C613      1.0  0.07378  0.76997  0.43099  1.0000
  H   H1044     1.0  0.24772  0.81409  0.13851  1.0000
  H   H1045     1.0  0.43160  0.96185  0.36888  1.0000
  N   N44       1.0  0.46992  0.91076  0.19343  1.0000
  C   C614      1.0  0.36761  0.94805  0.42549  1.0000
  H   H1046     1.0  0.35948  0.93079  0.34021  1.0000
  H   H1047     1.0  0.22690  0.77854  0.18371  1.0000
  C   C615      1.0  0.10786  0.84657  0.44025  1.0000
  H   H1048     1.0  0.10334  0.76950  0.02407  1.0000
  N   N45       1.0  0.05923  0.79096  0.16908  1.0000
  C   C616      1.0  0.04135  0.78676  0.15199  1.0000
  H   H1049     1.0  0.21426  0.77635  0.10389  1.0000
  C   C617      1.0  0.07204  0.81139  0.16009  1.0000
  C   C618      1.0  0.05292  0.78733  0.20185  1.0000
  C   C619      1.0  0.02975  0.79949  0.15557  1.0000
  H   H1050     1.0  0.09313  0.82563  0.41108  1.0000
  H   H1051     1.0  0.34560  0.99222  0.18578  1.0000
  C   C620      1.0  0.06660  0.78267  0.22326  1.0000
  C   C621      1.0  0.26337  0.88402  0.46456  1.0000
  H   H1052     1.0  0.20587  0.79166  0.20285  1.0000
  C   C622      1.0  0.44160  0.87970  0.18715  1.0000
  C   C623      1.0  0.20329  0.79761  0.18077  1.0000
  H   H1053     1.0  0.03082  0.77206  0.15856  1.0000
  H   H1054     1.0  0.08965  0.75851  0.07811  1.0000
  H   H1055     1.0  0.04998  0.79944  0.20936  1.0000
  H   H1056     1.0  0.03892  0.77507  0.20607  1.0000
  H   H1057     1.0  0.11945  0.85184  0.42165  1.0000
  H   H1058     1.0  0.20860  0.79321  0.08044  1.0000
  H   H1059     1.0  0.43564  0.87576  0.21067  1.0000
  H   H1060     1.0  0.39555  0.95653  0.25427  1.0000
  S   S182      1.0  0.03650  0.77052  0.43426  1.0000
  C   C624      1.0  0.12640  0.83462  0.47614  1.0000
  C   C625      1.0  0.13065  0.86782  0.47056  1.0000
  C   C626      1.0  0.27101  0.85203  0.39217  1.0000
  H   H1061     1.0  0.21015  0.93011  0.01348  1.0000
  C   C627      1.0  0.43221  0.98380  0.24637  1.0000
  H   H1062     1.0  0.24752  0.89840  0.01087  1.0000
  C   C628      1.0  0.09242  0.81836  0.17147  1.0000
  N   N46       1.0  0.28018  0.91756  0.13653  1.0000
  C   C629      1.0  0.25864  0.90648  0.13646  1.0000
  C   C630      1.0  0.28514  0.91662  0.16842  1.0000
  C   C631      1.0  0.29070  0.90826  0.11840  1.0000
  C   C632      1.0  0.28434  0.93746  0.12284  1.0000
  C   C633      1.0  0.25073  0.90268  0.10578  1.0000
  C   C634      1.0  0.27542  0.92580  0.18931  1.0000
  C   C635      1.0  0.31184  0.91162  0.12470  1.0000
  C   C636      1.0  0.30514  0.95202  0.12357  1.0000
  H   H1063     1.0  0.25445  0.89249  0.14989  1.0000
  H   H1064     1.0  0.25008  0.91368  0.14709  1.0000
  H   H1065     1.0  0.30093  0.92324  0.17054  1.0000
  H   H1066     1.0  0.28125  0.90168  0.17804  1.0000
  H   H1067     1.0  0.28304  0.89266  0.12192  1.0000
  H   H1068     1.0  0.29069  0.91246  0.09424  1.0000
  H   H1069     1.0  0.28145  0.93769  0.09900  1.0000
  H   H1070     1.0  0.27411  0.94327  0.13251  1.0000
  H   H1071     1.0  0.25685  0.89377  0.09437  1.0000
  H   H1072     1.0  0.25305  0.91587  0.09120  1.0000
  H   H1073     1.0  0.25948  0.91822  0.19245  1.0000
  H   H1074     1.0  0.28092  0.92510  0.21158  1.0000
  H   H1075     1.0  0.27921  0.94096  0.18176  1.0000
  H   H1076     1.0  0.32109  0.92660  0.12501  1.0000
  H   H1077     1.0  0.31845  0.90620  0.10724  1.0000
  H   H1078     1.0  0.31225  0.90347  0.14601  1.0000
  H   H1079     1.0  0.31453  0.95210  0.10392  1.0000
  H   H1080     1.0  0.31210  0.95008  0.14400  1.0000
  H   H1081     1.0  0.30469  0.96630  0.12347  1.0000
  H   H1082     1.0  0.07415  0.81449  0.13544  1.0000
  C   C637      1.0  0.27075  0.87602  0.43887  1.0000
  C   C638      1.0  0.48124  0.91824  0.24566  1.0000
  C   C639      1.0  0.00458  0.76929  0.24754  1.0000
  C   C640      1.0  0.20897  0.79867  0.12667  1.0000
  C   C641      1.0  0.48507  0.90263  0.18730  1.0000
  C   C642      1.0  0.45135  0.90126  0.17917  1.0000
  C   C643      1.0  0.47728  0.93836  0.15071  1.0000
  H   H1083     1.0  0.15187  0.84801  0.44346  1.0000
  S   S183      1.0  0.11963  0.78307  0.48242  1.0000
  H   H1084     1.0  0.30219  0.84123  0.46258  1.0000
  H   H1085     1.0  0.27227  0.86611  0.38154  1.0000
  H   H1086     1.0  0.17864  0.80301  0.16252  1.0000
  H   H1087     1.0  0.37614  0.91850  0.34047  1.0000
  N   N47       1.0  0.42078  0.99339  0.22925  1.0000
  H   H1088     1.0  0.01595  0.79364  0.14479  1.0000
  H   H1089     1.0  0.29915  0.00184  0.46112  1.0000
  N   N48       1.0  0.11610  0.84804  0.47011  1.0000
  H   H1090     1.0  0.41075  0.97085  0.20121  1.0000
  H   H1091     1.0  0.29760  0.86493  0.41251  1.0000
  C   C644      1.0  0.28904  0.86216  0.46999  1.0000
  H   H1092     1.0  0.23201  0.80023  0.09362  1.0000
  Fe  Fe90      1.0  0.34139  0.90291  0.48666  1.0000
  H   H1093     1.0  0.25824  0.80290  0.16487  1.0000
  C   C645      1.0  0.25536  0.84271  0.45928  1.0000
  H   H1094     1.0  0.46014  0.89249  0.23533  1.0000
  H   H1095     1.0  0.27507  0.89062  0.47900  1.0000
  H   H1096     1.0  0.46222  0.93579  0.14496  1.0000
  H   H1097     1.0  0.17177  0.78285  0.19119  1.0000
  H   H1098     1.0  0.43532  0.98373  0.38240  1.0000
  C   C646      1.0  0.19361  0.76750  0.15863  1.0000
  H   H1099     1.0  0.42190  0.93236  0.39804  1.0000
  H   H1100     1.0  0.43385  0.97273  0.23385  1.0000
  N   N49       1.0  0.38963  0.94709  0.38038  1.0000
  C   C647      1.0  0.37016  0.94671  0.39194  1.0000
  C   C648      1.0  0.38991  0.94859  0.34696  1.0000
  C   C649      1.0  0.40521  0.96425  0.38987  1.0000
  C   C650      1.0  0.39160  0.92921  0.39368  1.0000
  H   H1101     1.0  0.24425  0.81315  0.47763  1.0000
  C   C651      1.0  0.37452  0.93210  0.33409  1.0000
  H   H1102     1.0  0.46397  0.99388  0.23824  1.0000
  C   C652      1.0  0.40997  0.92591  0.38378  1.0000
  H   H1103     1.0  0.36692  0.95843  0.37994  1.0000
  H   H1104     1.0  0.35828  0.93351  0.38782  1.0000
  H   H1105     1.0  0.40410  0.94991  0.33645  1.0000
  H   H1106     1.0  0.38801  0.96178  0.33808  1.0000
  H   H1107     1.0  0.40020  0.97624  0.38934  1.0000
  H   H1108     1.0  0.40820  0.96137  0.41334  1.0000
  H   H1109     1.0  0.39149  0.92856  0.41824  1.0000
  H   H1110     1.0  0.37878  0.91652  0.39042  1.0000
  H   H1111     1.0  0.47810  0.89825  0.14044  1.0000
  H   H1112     1.0  0.47562  0.91497  0.26939  1.0000
  H   H1113     1.0  0.23170  0.77860  0.14535  1.0000
  H   H1114     1.0  0.40661  0.91049  0.38566  1.0000
  C   C653      1.0  0.06956  0.77858  0.15976  1.0000
  H   H1115     1.0  0.19465  0.79913  0.12200  1.0000
  H   H1116     1.0  0.46951  0.93853  0.19606  1.0000
  H   H1117     1.0  0.45126  0.99248  0.19061  1.0000
  H   H1118     1.0  0.98972  0.78030  0.21543  1.0000
  C   C654      1.0  0.36032  0.00162  0.25449  1.0000
  H   H1119     1.0  0.41516  0.93105  0.36032  1.0000
  H   H1120     1.0  0.26713  0.81968  0.45751  1.0000
  H   H1121     1.0  0.14241  0.87141  0.45252  1.0000
  C   C655      1.0  0.20465  0.90131  0.00606  1.0000
  H   H1122     1.0  0.04517  0.78768  0.12783  1.0000
  C   C656      1.0  0.42496  0.97235  0.37124  1.0000
  H   H1123     1.0  0.21847  0.81370  0.12687  1.0000
  H   H1124     1.0  0.10044  0.83318  0.16141  1.0000
  H   H1125     1.0  0.16762  0.77318  0.14471  1.0000
  H   H1126     1.0  0.24545  0.81649  0.43842  1.0000
  H   H1127     1.0  0.30235  0.87462  0.46147  1.0000
  H   H1128     1.0  0.09175  0.81863  0.19581  1.0000
  C   C657      1.0  0.08215  0.78324  0.48634  1.0000
  C   C658      1.0  0.09193  0.77278  0.44223  1.0000
  C   C659      1.0  0.29570  0.84611  0.48081  1.0000
  H   H1129     1.0  0.48127  0.88842  0.19995  1.0000
  H   H1130     1.0  0.48619  0.93370  0.24033  1.0000
  H   H1131     1.0  0.37651  0.93483  0.30949  1.0000
  H   H1132     1.0  0.39694  0.98543  0.20072  1.0000
  N   N50       1.0  0.27436  0.85814  0.44704  1.0000
  C   C660      1.0  0.25343  0.82209  0.45775  1.0000
  H   H1133     1.0  0.09972  0.85604  0.43676  1.0000
  C   C661      1.0  0.12260  0.88366  0.46702  1.0000
  H   H1134     1.0  0.45235  0.91173  0.23209  1.0000
  C   C662      1.0  0.11429  0.76994  0.00659  1.0000
  H   H1135     1.0  0.14738  0.82423  0.45793  1.0000
  H   H1136     1.0  0.37926  0.96896  0.24814  1.0000
  H   H1137     1.0  0.44048  0.90741  0.18516  1.0000
  H   H1138     1.0  0.40182  0.99212  0.26760  1.0000
  H   H1139     1.0  0.36899  0.93605  0.43942  1.0000
  S   S184      1.0  0.99710  0.75602  0.08387  1.0000
  H   H1140     1.0  0.25201  0.84407  0.48284  1.0000
  H   H1141     1.0  0.18155  0.80640  0.20039  1.0000
  H   H1142     1.0  0.11595  0.81994  0.48289  1.0000
  H   H1143     1.0  0.42375  0.97893  0.34890  1.0000
  H   H1144     1.0  0.30123  0.00097  0.30749  1.0000
  H   H1145     1.0  0.13235  0.82843  0.43105  1.0000
  H   H1146     1.0  0.18869  0.76173  0.18229  1.0000
  H   H1147     1.0  0.25073  0.87328  0.47817  1.0000
  C   C663      1.0  0.99542  0.76947  0.22111  1.0000
  H   H1148     1.0  0.17917  0.76489  0.11691  1.0000
  H   H1149     1.0  0.07532  0.78285  0.13613  1.0000
  C   C664      1.0  0.06404  0.78059  0.47496  1.0000
  S   S185      1.0  0.02734  0.75780  0.28451  1.0000
  C   C665      1.0  0.44276  0.00035  0.18065  1.0000
  C   C666      1.0  0.46486  0.90766  0.22660  1.0000
  C   C667      1.0  0.41138  0.00257  0.24942  1.0000
  H   H1150     1.0  0.07846  0.82435  0.44458  1.0000
  H   H1151     1.0  0.12870  0.77849  0.01384  1.0000
  C   C668      1.0  0.45303  0.99625  0.25290  1.0000
  H   H1152     1.0  0.09757  0.81536  0.44480  1.0000
  S   S186      1.0  0.31667  0.91268  0.48871  1.0000
  H   H1153     1.0  0.20045  0.75797  0.15066  1.0000
  C   C669      1.0  0.25523  0.88981  0.00242  1.0000
  C   C670      1.0  0.20962  0.92073  0.99700  1.0000
  H   H1154     1.0  0.28432  0.91013  0.99825  1.0000
  S   S187      1.0  0.20048  0.86496  0.99528  1.0000
  H   H1155     1.0  0.13442  0.89721  0.46998  1.0000
  Fe  Fe91      1.0  0.48521  0.96749  0.27108  1.0000
  H   H1156     1.0  0.48541  0.95387  0.14659  1.0000
  H   H1157     1.0  0.48422  0.93198  0.13545  1.0000
  H   H1158     1.0  0.11064  0.88153  0.48395  1.0000
  H   H1159     1.0  0.05324  0.78359  0.48782  1.0000
  C   C671      1.0  0.05721  0.75729  0.16307  1.0000
  C   C672      1.0  0.01224  0.75551  0.25499  1.0000
  C   C673      1.0  0.99405  0.75606  0.20161  1.0000
  H   H1160     1.0  0.04771  0.75385  0.14452  1.0000
  H   H1161     1.0  0.08988  0.85081  0.48778  1.0000
  C   C674      1.0  0.14918  0.75396  0.06449  1.0000
  Fe  Fe92      1.0  0.23756  0.97521  0.84435  1.0000
  S   S188      1.0  0.22980  0.98949  0.88121  1.0000
  S   S189      1.0  0.21825  0.96636  0.80666  1.0000
  Fe  Fe93      1.0  0.23710  0.96820  0.91153  1.0000
  S   S190      1.0  0.22213  0.95294  0.95674  1.0000
  S   S191      1.0  0.24274  0.95295  0.87490  1.0000
  Fe  Fe94      1.0  0.13411  0.79535  0.52349  1.0000
  S   S192      1.0  0.12221  0.80771  0.55859  1.0000
  H   H1162     1.0  0.30614  0.94296  0.97429  1.0000
  Fe  Fe95      1.0  0.17314  0.80451  0.55238  1.0000
  S   S193      1.0  0.16368  0.81720  0.58944  1.0000
  S   S194      1.0  0.20320  0.80329  0.54992  1.0000
  Fe  Fe96      1.0  0.13519  0.79228  0.59098  1.0000
  Fe  Fe97      1.0  0.15181  0.83138  0.55399  1.0000
  S   S195      1.0  0.15770  0.86274  0.54334  1.0000
  S   S196      1.0  0.14549  0.77862  0.55610  1.0000
  S   S197      1.0  0.16289  0.81991  0.51672  1.0000
  C   C675      1.0  0.42987  0.93311  0.87822  1.0000
  S   S198      1.0  0.33092  0.88300  0.52925  1.0000
  H   H1163     1.0  0.41786  0.98337  0.69565  1.0000
  S   S199      1.0  0.32467  0.91774  0.55809  1.0000
  H   H1164     1.0  0.24963  0.92117  0.90871  1.0000
  Fe  Fe98      1.0  0.34932  0.90803  0.55168  1.0000
  S   S200      1.0  0.36500  0.90521  0.59319  1.0000
  Fe  Fe99      1.0  0.30725  0.89441  0.53246  1.0000
  S   S201      1.0  0.27453  0.88190  0.54355  1.0000
  H   H1165     1.0  0.13524  0.83814  0.49551  1.0000
  Fe  Fe100     1.0  0.23800  0.99501  0.63773  1.0000
  H   H1166     1.0  0.42257  0.93492  0.81788  1.0000
  H   H1167     1.0  0.45494  0.99308  0.89072  1.0000
  Fe  Fe101     1.0  0.22482  0.95892  0.60705  1.0000
  S   S202      1.0  0.24303  0.96823  0.64527  1.0000
  S   S203      1.0  0.20414  0.92824  0.61978  1.0000
  H   H1168     1.0  0.31320  0.92321  0.96953  1.0000
  H   H1169     1.0  0.29555  0.91639  0.92557  1.0000
  Fe  Fe102     1.0  0.26805  0.98199  0.61128  1.0000
  S   S204      1.0  0.29613  0.97869  0.62023  1.0000
  S   S205      1.0  0.21807  0.98528  0.60145  1.0000
  S   S206      1.0  0.25056  0.97089  0.57338  1.0000
  Fe  Fe103     1.0  0.47366  0.96211  0.73606  1.0000
  H   H1170     1.0  0.21904  0.78927  0.63055  1.0000
  H   H1171     1.0  0.09236  0.84130  0.54104  1.0000
  Fe  Fe104     1.0  0.45546  0.99157  0.73440  1.0000
  S   S207      1.0  0.33569  0.96410  0.50520  1.0000
  C   C676      1.0  0.43757  0.97324  0.86136  1.0000
  Fe  Fe105     1.0  0.45611  0.97141  0.67927  1.0000
  S   S208      1.0  0.44169  0.96608  0.63548  1.0000
  C   C677      1.0  0.47135  0.97951  0.84632  1.0000
  S   S209      1.0  0.44379  0.96103  0.72664  1.0000
  H   H1172     1.0  0.47237  0.99350  0.83544  1.0000
  N   N51       1.0  0.45087  0.96515  0.84707  1.0000
  H   H1173     1.0  0.24464  0.81248  0.54592  1.0000
  C   C678      1.0  0.42538  0.94989  0.81031  1.0000
  S   S210      1.0  0.46636  0.00203  0.68656  1.0000
  C   C679      1.0  0.34827  0.99265  0.91040  1.0000
  C   C680      1.0  0.38692  0.92177  0.60399  1.0000
  C   C681      1.0  0.39291  0.91862  0.63240  1.0000
  C   C682      1.0  0.40969  0.93187  0.64244  1.0000
  C   C683      1.0  0.42084  0.94836  0.62396  1.0000
  C   C684      1.0  0.41502  0.95133  0.59538  1.0000
  C   C685      1.0  0.39813  0.93821  0.58549  1.0000
  H   H1174     1.0  0.38441  0.90590  0.64685  1.0000
  H   H1175     1.0  0.41402  0.92930  0.66439  1.0000
  H   H1176     1.0  0.42359  0.96397  0.58083  1.0000
  H   H1177     1.0  0.39380  0.94080  0.56355  1.0000
  C   C686      1.0  0.32540  0.96901  0.53706  1.0000
  C   C687      1.0  0.33087  0.96466  0.56509  1.0000
  C   C688      1.0  0.32212  0.96807  0.59059  1.0000
  C   C689      1.0  0.30783  0.97573  0.58808  1.0000
  C   C690      1.0  0.30259  0.98037  0.56005  1.0000
  C   C691      1.0  0.31133  0.97696  0.53455  1.0000
  H   H1178     1.0  0.34184  0.95863  0.56705  1.0000
  C   C692      1.0  0.34071  0.99259  0.93909  1.0000
  Fe  Fe106     1.0  0.24561  0.99822  0.57079  1.0000
  N   N52       1.0  0.17802  0.76557  0.64803  1.0000
  C   C693      1.0  0.17197  0.88056  0.56427  1.0000
  C   C694      1.0  0.18100  0.89924  0.55053  1.0000
  C   C695      1.0  0.19141  0.91397  0.56690  1.0000
  C   C696      1.0  0.19239  0.91021  0.59743  1.0000
  C   C697      1.0  0.18335  0.89154  0.61115  1.0000
  C   C698      1.0  0.17347  0.87675  0.59462  1.0000
  H   H1179     1.0  0.17984  0.90237  0.52711  1.0000
  H   H1180     1.0  0.19819  0.92827  0.55606  1.0000
  H   H1181     1.0  0.18393  0.88845  0.63476  1.0000
  H   H1182     1.0  0.16645  0.86249  0.60555  1.0000
  C   C699      1.0  0.22319  0.82507  0.54762  1.0000
  C   C700      1.0  0.22027  0.84197  0.54771  1.0000
  C   C701      1.0  0.23623  0.85914  0.54630  1.0000
  C   C702      1.0  0.25530  0.85969  0.54463  1.0000
  C   C703      1.0  0.25831  0.84280  0.54440  1.0000
  C   C704      1.0  0.24227  0.82553  0.54587  1.0000
  H   H1183     1.0  0.20567  0.84183  0.54900  1.0000
  H   H1184     1.0  0.23367  0.87208  0.54644  1.0000
  H   H1185     1.0  0.27292  0.84301  0.54358  1.0000
  H   H1186     1.0  0.15567  0.76853  0.62127  1.0000
  H   H1187     1.0  0.34161  0.98441  0.86676  1.0000
  C   C705      1.0  0.22339  0.97957  0.77131  1.0000
  C   C706      1.0  0.20425  0.88907  0.98503  1.0000
  H   H1188     1.0  0.37866  0.96493  0.59096  1.0000
  C   C707      1.0  0.36583  0.97551  0.67735  1.0000
  C   C708      1.0  0.21061  0.98799  0.76158  1.0000
  C   C709      1.0  0.23822  0.97957  0.75132  1.0000
  H   H1189     1.0  0.45570  0.95670  0.80417  1.0000
  H   H1190     1.0  0.39357  0.96828  0.70613  1.0000
  H   H1191     1.0  0.15557  0.78072  0.68485  1.0000
  H   H1192     1.0  0.24781  0.97261  0.75846  1.0000
  H   H1193     1.0  0.35088  0.97258  0.67053  1.0000
  C   C710      1.0  0.21427  0.92815  0.96686  1.0000
  C   C711      1.0  0.21333  0.91581  0.94578  1.0000
  C   C712      1.0  0.20842  0.89643  0.95485  1.0000
  H   H1194     1.0  0.21649  0.92120  0.92251  1.0000
  H   H1195     1.0  0.20797  0.88707  0.93835  1.0000
  H   H1196     1.0  0.40106  0.98427  0.59549  1.0000
  S   S211      1.0  0.48163  0.94368  0.77073  1.0000
  C   C713      1.0  0.30872  0.93419  0.95809  1.0000
  C   C714      1.0  0.22751  0.99669  0.71230  1.0000
  C   C715      1.0  0.33575  0.98440  0.88892  1.0000
  H   H1197     1.0  0.32131  0.94359  0.94271  1.0000
  H   H1198     1.0  0.34923  0.94744  0.61996  1.0000
  H   H1199     1.0  0.45959  0.94983  0.88240  1.0000
  C   C716      1.0  0.25917  0.90142  0.93634  1.0000
  C   C717      1.0  0.32070  0.98400  0.94640  1.0000
  N   N53       1.0  0.37846  0.97293  0.65272  1.0000
  H   H1200     1.0  0.22468  0.76964  0.62239  1.0000
  S   S212      1.0  0.36170  0.92690  0.50874  1.0000
  H   H1201     1.0  0.30685  0.98001  0.51293  1.0000
  H   H1202     1.0  0.29031  0.93707  0.92414  1.0000
  C   C718      1.0  0.25670  0.91100  0.90608  1.0000
  C   C719      1.0  0.40502  0.97250  0.68770  1.0000
  H   H1203     1.0  0.29277  0.96981  0.93047  1.0000
  H   H1204     1.0  0.38254  0.94979  0.63427  1.0000
  C   C720      1.0  0.44621  0.96274  0.81530  1.0000
  H   H1205     1.0  0.41726  0.93373  0.86684  1.0000
  H   H1206     1.0  0.24702  0.90006  0.89344  1.0000
  H   H1207     1.0  0.19880  0.98759  0.77663  1.0000
  H   H1208     1.0  0.42222  0.96342  0.86358  1.0000
  H   H1209     1.0  0.26162  0.93700  0.94597  1.0000
  H   H1210     1.0  0.42818  0.93502  0.90195  1.0000
  H   H1211     1.0  0.17918  0.78145  0.60525  1.0000
  C   C721      1.0  0.10553  0.84695  0.52527  1.0000
  H   H1212     1.0  0.31483  0.98376  0.96866  1.0000
  H   H1213     1.0  0.44915  0.97672  0.80230  1.0000
  C   C722      1.0  0.18342  0.78416  0.66066  1.0000
  H   H1214     1.0  0.08519  0.78825  0.50774  1.0000
  S   S213      1.0  0.29993  0.96680  0.86889  1.0000
  H   H1215     1.0  0.34929  0.92679  0.64116  1.0000
  C   C723      1.0  0.16661  0.79062  0.66774  1.0000
  H   H1216     1.0  0.19074  0.78380  0.68155  1.0000
  H   H1217     1.0  0.41423  0.95437  0.82021  1.0000
  S   S214      1.0  0.26821  0.98791  0.91119  1.0000
  H   H1218     1.0  0.40859  0.97833  0.64061  1.0000
  H   H1219     1.0  0.40545  0.99648  0.65748  1.0000
  H   H1220     1.0  0.47945  0.92463  0.71797  1.0000
  C   C724      1.0  0.24019  0.98800  0.72172  1.0000
  H   H1221     1.0  0.20803  0.77593  0.60081  1.0000
  H   H1222     1.0  0.29173  0.98649  0.55801  1.0000
  C   C725      1.0  0.26196  0.92721  0.96549  1.0000
  H   H1223     1.0  0.36378  0.96507  0.69722  1.0000
  H   H1224     1.0  0.43751  0.98572  0.84694  1.0000
  Fe  Fe107     1.0  0.27331  0.97387  0.87282  1.0000
  H   H1225     1.0  0.36019  0.97977  0.62109  1.0000
  C   C726      1.0  0.21274  0.77496  0.62359  1.0000
  H   H1226     1.0  0.11260  0.86222  0.52717  1.0000
  H   H1227     1.0  0.28135  0.95373  0.98003  1.0000
  S   S215      1.0  0.11980  0.77718  0.63612  1.0000
  C   C727      1.0  0.44239  0.97941  0.89236  1.0000
  H   H1228     1.0  0.27062  0.91809  0.89223  1.0000
  C   C728      1.0  0.39960  0.98083  0.65856  1.0000
  S   S216      1.0  0.48439  0.99191  0.74717  1.0000
  C   C729      1.0  0.35169  0.94187  0.64220  1.0000
  H   H1229     1.0  0.48653  0.97559  0.80636  1.0000
  N   N54       1.0  0.27182  0.91433  0.95676  1.0000
  H   H1230     1.0  0.36179  0.99586  0.70421  1.0000
  C   C730      1.0  0.30819  0.97632  0.92473  1.0000
  H   H1231     1.0  0.42368  0.95072  0.78611  1.0000
  Fe  Fe108     1.0  0.33583  0.93493  0.51404  1.0000
  H   H1232     1.0  0.45565  0.93894  0.84912  1.0000
  C   C731      1.0  0.31566  0.97654  0.89594  1.0000
  H   H1233     1.0  0.08623  0.75588  0.96917  1.0000
  C   C732      1.0  0.37292  0.99528  0.68775  1.0000
  C   C733      1.0  0.37256  0.95219  0.65059  1.0000
  H   H1234     1.0  0.34070  0.94225  0.65900  1.0000
  C   C734      1.0  0.37583  0.98325  0.62420  1.0000
  S   S217      1.0  0.26878  0.99459  0.83876  1.0000
  H   H1235     1.0  0.10475  0.75657  0.69381  1.0000
  H   H1236     1.0  0.37406  0.94461  0.67196  1.0000
  H   H1237     1.0  0.24425  0.89361  0.94697  1.0000
  N   N55       1.0  0.18512  0.93377  0.70783  1.0000
  C   C735      1.0  0.17738  0.94235  0.68239  1.0000
  C   C736      1.0  0.17692  0.91271  0.70709  1.0000
  C   C737      1.0  0.20687  0.94101  0.70208  1.0000
  C   C738      1.0  0.17941  0.93965  0.73639  1.0000
  C   C739      1.0  0.18563  0.96408  0.67654  1.0000
  C   C740      1.0  0.15458  0.90328  0.71003  1.0000
  C   C741      1.0  0.21805  0.93402  0.72512  1.0000
  C   C742      1.0  0.17854  0.92700  0.76555  1.0000
  H   H1238     1.0  0.17990  0.93709  0.66122  1.0000
  H   H1239     1.0  0.16138  0.93806  0.68597  1.0000
  H   H1240     1.0  0.18221  0.90519  0.72455  1.0000
  H   H1241     1.0  0.18205  0.90921  0.68586  1.0000
  H   H1242     1.0  0.21080  0.93753  0.68014  1.0000
  H   H1243     1.0  0.21330  0.95660  0.70094  1.0000
  H   H1244     1.0  0.18940  0.95422  0.73900  1.0000
  H   H1245     1.0  0.16473  0.94028  0.73552  1.0000
  H   H1246     1.0  0.18497  0.97076  0.69686  1.0000
  H   H1247     1.0  0.20072  0.96964  0.66623  1.0000
  H   H1248     1.0  0.17697  0.96861  0.66030  1.0000
  H   H1249     1.0  0.15023  0.88774  0.71441  1.0000
  H   H1250     1.0  0.14794  0.90782  0.72853  1.0000
  H   H1251     1.0  0.14844  0.90609  0.68902  1.0000
  H   H1252     1.0  0.21355  0.91849  0.72800  1.0000
  H   H1253     1.0  0.21708  0.93934  0.74672  1.0000
  H   H1254     1.0  0.23369  0.93997  0.71722  1.0000
  H   H1255     1.0  0.18398  0.93615  0.78333  1.0000
  H   H1256     1.0  0.18733  0.91822  0.76491  1.0000
  H   H1257     1.0  0.16329  0.91794  0.77330  1.0000
  N   N56       1.0  0.26080  0.91555  0.59649  1.0000
  C   C743      1.0  0.25446  0.91671  0.56531  1.0000
  C   C744      1.0  0.25000  0.89554  0.61063  1.0000
  C   C745      1.0  0.28227  0.91964  0.59438  1.0000
  C   C746      1.0  0.25641  0.92997  0.61247  1.0000
  C   C747      1.0  0.26679  0.93431  0.54384  1.0000
  C   C748      1.0  0.22773  0.88906  0.61360  1.0000
  C   C749      1.0  0.29192  0.91950  0.62374  1.0000
  C   C750      1.0  0.25504  0.92722  0.64687  1.0000
  H   H1258     1.0  0.25415  0.90436  0.55429  1.0000
  H   H1259     1.0  0.23928  0.91613  0.56567  1.0000
  H   H1260     1.0  0.25448  0.89282  0.63295  1.0000
  H   H1261     1.0  0.25358  0.88551  0.59767  1.0000
  H   H1262     1.0  0.28535  0.90945  0.58140  1.0000
  H   H1263     1.0  0.29060  0.93384  0.58228  1.0000
  H   H1264     1.0  0.26736  0.94430  0.60492  1.0000
  H   H1265     1.0  0.24238  0.93066  0.60623  1.0000
  H   H1266     1.0  0.28056  0.93326  0.53563  1.0000
  H   H1267     1.0  0.25873  0.93531  0.52409  1.0000
  H   H1268     1.0  0.27004  0.94744  0.55416  1.0000
  H   H1269     1.0  0.22160  0.88791  0.59165  1.0000
  H   H1270     1.0  0.22138  0.87475  0.62622  1.0000
  H   H1271     1.0  0.22292  0.89852  0.62584  1.0000
  H   H1272     1.0  0.29209  0.93140  0.63581  1.0000
  H   H1273     1.0  0.30736  0.92172  0.61854  1.0000
  H   H1274     1.0  0.28539  0.90588  0.63812  1.0000
  H   H1275     1.0  0.26419  0.94065  0.65490  1.0000
  H   H1276     1.0  0.25984  0.91629  0.65714  1.0000
  H   H1277     1.0  0.23994  0.92411  0.65587  1.0000
  C   C751      1.0  0.29124  0.92543  0.93981  1.0000
  H   H1278     1.0  0.32600  0.96433  0.61231  1.0000
  H   H1279     1.0  0.40865  0.96008  0.68405  1.0000
  H   H1280     1.0  0.19399  0.79586  0.64505  1.0000
  H   H1281     1.0  0.15958  0.79294  0.64753  1.0000
  H   H1282     1.0  0.17251  0.80439  0.67668  1.0000
  H   H1283     1.0  0.42920  0.91843  0.87832  1.0000
  C   C752      1.0  0.27408  0.90192  0.98305  1.0000
  C   C753      1.0  0.44994  0.94684  0.86381  1.0000
  S   S218      1.0  0.48508  0.96965  0.68819  1.0000
  H   H1284     1.0  0.26488  0.89040  0.93154  1.0000
  H   H1285     1.0  0.38229  0.98836  0.57631  1.0000
  H   H1286     1.0  0.42991  0.98183  0.90280  1.0000
  H   H1287     1.0  0.11532  0.83987  0.53271  1.0000
  C   C754      1.0  0.21298  0.99694  0.73251  1.0000
  H   H1288     1.0  0.30727  0.85147  0.49609  1.0000
  H   H1289     1.0  0.38651  0.99833  0.69909  1.0000
  H   H1290     1.0  0.25154  0.98785  0.70628  1.0000
  H   H1291     1.0  0.48698  0.96048  0.83919  1.0000
  C   C755      1.0  0.17020  0.76767  0.61829  1.0000
  H   H1292     1.0  0.24641  0.91910  0.97250  1.0000
  H   H1293     1.0  0.44528  0.96863  0.90728  1.0000
  C   C756      1.0  0.38510  0.97982  0.59544  1.0000
  S   S219      1.0  0.43392  0.00081  0.75911  1.0000
  C   C757      1.0  0.19618  0.76128  0.64589  1.0000
  H   H1294     1.0  0.28074  0.89216  0.97545  1.0000
  H   H1295     1.0  0.38202  0.99874  0.62501  1.0000
  C   C758      1.0  0.27051  0.93984  0.98983  1.0000
  H   H1296     1.0  0.24520  0.87866  0.99053  1.0000
  H   H1297     1.0  0.17326  0.75891  0.57471  1.0000
  C   C759      1.0  0.09960  0.84318  0.49363  1.0000
  H   H1298     1.0  0.36375  0.99876  0.90486  1.0000
  H   H1299     1.0  0.09011  0.82795  0.49503  1.0000
  H   H1300     1.0  0.47581  0.98181  0.86918  1.0000
  H   H1301     1.0  0.28379  0.83424  0.49394  1.0000
  S   S220      1.0  0.35575  0.00334  0.96621  1.0000
  H   H1302     1.0  0.20206  0.76105  0.66807  1.0000
  H   H1303     1.0  0.11245  0.77757  0.98564  1.0000
  C   C760      1.0  0.48734  0.97462  0.83069  1.0000
  H   H1304     1.0  0.20316  0.00365  0.72540  1.0000
  H   H1305     1.0  0.13822  0.86910  0.49139  1.0000
  H   H1306     1.0  0.88262  0.14543  0.42214  1.0000
  S   S221      1.0  0.76664  0.02482  0.00600  1.0000
  Fe  Fe109     1.0  0.84196  0.17459  0.37227  1.0000
  S   S222      1.0  0.83887  0.17998  0.41974  1.0000
  S   S223      1.0  0.84683  0.19421  0.32891  1.0000
  Fe  Fe110     1.0  0.83885  0.13379  0.39113  1.0000
  S   S224      1.0  0.83689  0.13684  0.43974  1.0000
  S   S225      1.0  0.83863  0.10800  0.37001  1.0000
  Fe  Fe111     1.0  0.81572  0.15047  0.42679  1.0000
  S   S226      1.0  0.78726  0.13908  0.45593  1.0000
  Fe  Fe112     1.0  0.86027  0.16592  0.42871  1.0000
  H   H1307     1.0  0.73011  0.06358  0.43672  1.0000
  S   S227      1.0  0.81699  0.14627  0.37875  1.0000
  S   S228      1.0  0.86401  0.16165  0.38073  1.0000
  Fe  Fe113     1.0  0.67645  0.08363  0.42650  1.0000
  S   S229      1.0  0.67522  0.06184  0.46426  1.0000
  S   S230      1.0  0.70334  0.10876  0.40649  1.0000
  Fe  Fe114     1.0  0.63391  0.06172  0.41201  1.0000
  S   S231      1.0  0.62982  0.03863  0.44873  1.0000
  S   S232      1.0  0.61191  0.06257  0.37843  1.0000
  H   H1308     1.0  0.60194  0.00923  0.06662  1.0000
  Fe  Fe115     1.0  0.65966  0.04095  0.43369  1.0000
  C   C761      1.0  0.86283  0.25161  0.21503  1.0000
  S   S233      1.0  0.64757  0.08488  0.44075  1.0000
  S   S234      1.0  0.66284  0.06251  0.39492  1.0000
  H   H1309     1.0  0.59498  0.08779  0.40620  1.0000
  H   H1310     1.0  0.73938  0.01390  0.43651  1.0000
  S   S235      1.0  0.78032  0.02225  0.40133  1.0000
  H   H1311     1.0  0.60693  0.09851  0.43664  1.0000
  H   H1312     1.0  0.79534  0.23149  0.00790  1.0000
  H   H1313     1.0  0.88564  0.10026  0.35884  1.0000
  H   H1314     1.0  0.71828  0.02928  0.25378  1.0000
  H   H1315     1.0  0.86454  0.09351  0.43634  1.0000
  C   C762      1.0  0.69453  0.02911  0.35033  1.0000
  C   C763      1.0  0.68500  0.02975  0.37712  1.0000
  H   H1316     1.0  0.85478  0.24790  0.19507  1.0000
  H   H1317     1.0  0.91370  0.10717  0.48177  1.0000
  H   H1318     1.0  0.70147  0.04181  0.33501  1.0000
  H   H1319     1.0  0.68483  0.04297  0.38244  1.0000
  C   C764      1.0  0.76403  0.13078  0.44185  1.0000
  C   C765      1.0  0.74812  0.11759  0.45997  1.0000
  C   C766      1.0  0.72943  0.11076  0.44961  1.0000
  C   C767      1.0  0.72636  0.11744  0.42123  1.0000
  C   C768      1.0  0.74218  0.13098  0.40339  1.0000
  C   C769      1.0  0.76096  0.13741  0.41345  1.0000
  H   H1320     1.0  0.91251  0.15748  0.39057  1.0000
  H   H1321     1.0  0.75948  0.02595  0.19739  1.0000
  H   H1322     1.0  0.73995  0.13631  0.38147  1.0000
  H   H1323     1.0  0.77301  0.14777  0.39945  1.0000
  C   C770      1.0  0.79594  0.04627  0.39187  1.0000
  C   C771      1.0  0.80241  0.05413  0.36246  1.0000
  C   C772      1.0  0.81520  0.07314  0.35609  1.0000
  C   C773      1.0  0.82121  0.08468  0.37887  1.0000
  C   C774      1.0  0.81445  0.07693  0.40825  1.0000
  C   C775      1.0  0.80208  0.05778  0.41469  1.0000
  H   H1324     1.0  0.79796  0.04543  0.34470  1.0000
  H   H1325     1.0  0.82059  0.07891  0.33335  1.0000
  H   H1326     1.0  0.81911  0.08555  0.42605  1.0000
  H   H1327     1.0  0.79721  0.05184  0.43752  1.0000
  H   H1328     1.0  0.57985  0.05771  0.43296  1.0000
  H   H1329     1.0  0.77372  0.10836  0.33343  1.0000
  C   C776      1.0  0.58476  0.02578  0.38072  1.0000
  C   C777      1.0  0.59310  0.04375  0.36474  1.0000
  C   C778      1.0  0.58613  0.04704  0.33719  1.0000
  C   C779      1.0  0.57138  0.03247  0.32537  1.0000
  C   C780      1.0  0.72244  0.00875  0.19213  1.0000
  H   H1330     1.0  0.58974  0.02305  0.40208  1.0000
  H   H1331     1.0  0.59230  0.06093  0.32472  1.0000
  H   H1332     1.0  0.56638  0.03519  0.30399  1.0000
  H   H1333     1.0  0.49963  0.03640  0.25500  1.0000
  C   C781      1.0  0.63310  0.03897  0.32744  1.0000
  C   C782      1.0  0.56424  0.06428  0.48298  1.0000
  C   C783      1.0  0.83331  0.24175  0.27003  1.0000
  C   C784      1.0  0.61954  0.01864  0.32395  1.0000
  H   H1334     1.0  0.62733  0.04897  0.31591  1.0000
  H   H1335     1.0  0.85695  0.22412  0.36760  1.0000
  H   H1336     1.0  0.86914  0.21786  0.27702  1.0000
  H   H1337     1.0  0.61883  0.01730  0.29982  1.0000
  H   H1338     1.0  0.66659  0.00947  0.29532  1.0000
  C   C785      1.0  0.76489  0.06008  0.01035  1.0000
  H   H1339     1.0  0.77241  0.12402  0.35910  1.0000
  H   H1340     1.0  0.60467  0.01727  0.33163  1.0000
  H   H1341     1.0  0.92560  0.14944  0.41817  1.0000
  H   H1342     1.0  0.75592  0.05382  0.03084  1.0000
  H   H1343     1.0  0.86706  0.12366  0.47768  1.0000
  H   H1344     1.0  0.57115  0.01473  0.48602  1.0000
  C   C786      1.0  0.86368  0.23022  0.34553  1.0000
  C   C787      1.0  0.86172  0.21858  0.32309  1.0000
  H   H1345     1.0  0.90163  0.12311  0.48302  1.0000
  C   C788      1.0  0.87046  0.22678  0.29446  1.0000
  H   H1346     1.0  0.63355  0.01612  0.06201  1.0000
  H   H1347     1.0  0.75030  0.11253  0.48209  1.0000
  S   S236      1.0  0.66466  0.01408  0.43099  1.0000
  C   C789      1.0  0.72053  0.02057  0.16401  1.0000
  C   C790      1.0  0.69598  0.01225  0.34421  1.0000
  H   H1348     1.0  0.89434  0.14288  0.45386  1.0000
  H   H1349     1.0  0.70208  0.01993  0.22693  1.0000
  H   H1350     1.0  0.75724  0.08884  0.43258  1.0000
  C   C791      1.0  0.75103  0.03300  0.20875  1.0000
  H   H1351     1.0  0.73315  0.03348  0.44252  1.0000
  H   H1352     1.0  0.74924  0.10027  0.39247  1.0000
  C   C792      1.0  0.72709  0.01795  0.44294  1.0000
  C   C793      1.0  0.49228  0.03769  0.20969  1.0000
  H   H1353     1.0  0.71568  0.01114  0.14644  1.0000
  N   N57       1.0  0.88902  0.12016  0.42595  1.0000
  S   S237      1.0  0.50506  0.02403  0.19795  1.0000
  H   H1354     1.0  0.70957  0.05309  0.22389  1.0000
  H   H1355     1.0  0.89663  0.09654  0.44213  1.0000
  H   H1356     1.0  0.65222  0.01002  0.07804  1.0000
  C   C794      1.0  0.89408  0.14059  0.43021  1.0000
  H   H1357     1.0  0.60951  0.00682  0.37968  1.0000
  H   H1358     1.0  0.88009  0.12599  0.38229  1.0000
  C   C795      1.0  0.71755  0.02857  0.22947  1.0000
  S   S238      1.0  0.71076  0.01209  0.31375  1.0000
  H   H1359     1.0  0.75427  0.04655  0.25019  1.0000
  H   H1360     1.0  0.58080  0.09158  0.43566  1.0000
  H   H1361     1.0  0.61376  0.07921  0.48833  1.0000
  S   S239      1.0  0.88867  0.18223  0.44934  1.0000
  C   C796      1.0  0.81292  0.23224  0.28660  1.0000
  H   H1362     1.0  0.55542  0.05822  0.46451  1.0000
  C   C797      1.0  0.91365  0.15451  0.41470  1.0000
  H   H1363     1.0  0.72969  0.01490  0.48946  1.0000
  H   H1364     1.0  0.71738  0.10045  0.46366  1.0000
  C   C798      1.0  0.88291  0.09903  0.38332  1.0000
  Fe  Fe116     1.0  0.75133  0.00694  0.04963  1.0000
  H   H1365     1.0  0.73445  0.03191  0.15511  1.0000
  H   H1366     1.0  0.80655  0.24414  0.23214  1.0000
  H   H1367     1.0  0.60035  0.00997  0.10524  1.0000
  H   H1368     1.0  0.81438  0.22740  0.30996  1.0000
  C   C799      1.0  0.88083  0.24641  0.28822  1.0000
  N   N58       1.0  0.75110  0.07502  0.37751  1.0000
  C   C800      1.0  0.75561  0.06936  0.34801  1.0000
  C   C801      1.0  0.75231  0.09506  0.37186  1.0000
  C   C802      1.0  0.73059  0.06230  0.38837  1.0000
  C   C803      1.0  0.76540  0.07277  0.39879  1.0000
  C   C804      1.0  0.75285  0.04847  0.34788  1.0000
  C   C805      1.0  0.77194  0.10956  0.35742  1.0000
  C   C806      1.0  0.49198  0.04175  0.23901  1.0000
  C   C807      1.0  0.59336  0.08764  0.43067  1.0000
  H   H1369     1.0  0.74654  0.07253  0.33089  1.0000
  H   H1370     1.0  0.77097  0.07764  0.33949  1.0000
  N   N59       1.0  0.58423  0.06377  0.47857  1.0000
  H   H1371     1.0  0.74084  0.09598  0.35741  1.0000
  H   H1372     1.0  0.72057  0.06317  0.37120  1.0000
  H   H1373     1.0  0.72907  0.04732  0.39202  1.0000
  H   H1374     1.0  0.76113  0.05772  0.40803  1.0000
  H   H1375     1.0  0.77983  0.07683  0.38651  1.0000
  H   H1376     1.0  0.75949  0.04672  0.32662  1.0000
  H   H1377     1.0  0.75989  0.04346  0.36603  1.0000
  H   H1378     1.0  0.73729  0.03922  0.34920  1.0000
  H   H1379     1.0  0.63367  0.04158  0.35099  1.0000
  C   C808      1.0  0.59053  0.06783  0.44575  1.0000
  C   C809      1.0  0.67639  0.01346  0.39726  1.0000
  H   H1380     1.0  0.78267  0.09756  0.42010  1.0000
  H   H1381     1.0  0.72170  0.08019  0.41599  1.0000
  C   C810      1.0  0.77221  0.04917  0.99441  1.0000
  H   H1382     1.0  0.88915  0.22193  0.48846  1.0000
  H   H1383     1.0  0.79279  0.01319  0.20558  1.0000
  C   C811      1.0  0.91117  0.11888  0.46858  1.0000
  H   H1384     1.0  0.77571  0.05468  0.22490  1.0000
  Fe  Fe117     1.0  0.64556  0.06153  0.47655  1.0000
  S   S240      1.0  0.74077  0.01438  0.09190  1.0000
  C   C812      1.0  0.76287  0.04209  0.23425  1.0000
  H   H1385     1.0  0.82346  0.23630  0.21543  1.0000
  H   H1386     1.0  0.86709  0.09105  0.38824  1.0000
  H   H1387     1.0  0.70704  0.05584  0.42230  1.0000
  H   H1388     1.0  0.59922  0.09300  0.48574  1.0000
  C   C813      1.0  0.56983  0.01130  0.36912  1.0000
  H   H1389     1.0  0.71620  0.01450  0.42621  1.0000
  H   H1390     1.0  0.92621  0.20810  0.46049  1.0000
  H   H1391     1.0  0.77210  0.07651  0.44458  1.0000
  C   C814      1.0  0.86855  0.10869  0.43884  1.0000
  C   C815      1.0  0.73180  0.00502  0.24247  1.0000
  H   H1392     1.0  0.83656  0.23010  0.26146  1.0000
  H   H1393     1.0  0.73510  0.05912  0.22298  1.0000
  C   C816      1.0  0.92170  0.19687  0.47876  1.0000
  H   H1394     1.0  0.60443  0.06584  0.44143  1.0000
  S   S241      1.0  0.75978  0.00566  0.32141  1.0000
  H   H1395     1.0  0.75132  0.04459  0.19194  1.0000
  H   H1396     1.0  0.76330  0.08742  0.01215  1.0000
  C   C817      1.0  0.56315  0.01444  0.34124  1.0000
  C   C818      1.0  0.86395  0.10921  0.47199  1.0000
  H   H1397     1.0  0.70902  0.02618  0.16759  1.0000
  H   H1398     1.0  0.64799  0.04252  0.31730  1.0000
  C   C819      1.0  0.90316  0.11224  0.43892  1.0000
  C   C820      1.0  0.76920  0.08472  0.42512  1.0000
  C   C821      1.0  0.82183  0.24913  0.22247  1.0000
  H   H1399     1.0  0.80390  0.21984  0.27595  1.0000
  C   C822      1.0  0.72227  0.06600  0.41754  1.0000
  C   C823      1.0  0.88938  0.11903  0.39288  1.0000
  H   H1400     1.0  0.78445  0.10822  0.36849  1.0000
  H   H1401     1.0  0.89108  0.09084  0.39343  1.0000
  H   H1402     1.0  0.91617  0.11610  0.42295  1.0000
  H   H1403     1.0  0.90424  0.12682  0.38197  1.0000
  H   H1404     1.0  0.84409  0.24659  0.28667  1.0000
  H   H1405     1.0  0.85808  0.11313  0.42635  1.0000
  H   H1406     1.0  0.57830  0.02867  0.45079  1.0000
  S   S242      1.0  0.77156  0.00473  0.15461  1.0000
  H   H1407     1.0  0.86170  0.23862  0.22917  1.0000
  H   H1408     1.0  0.72217  0.05074  0.19130  1.0000
  H   H1409     1.0  0.80506  0.24185  0.28791  1.0000
  C   C824      1.0  0.72150  0.04897  0.21579  1.0000
  H   H1410     1.0  0.59996  0.04534  0.48602  1.0000
  H   H1411     1.0  0.84813  0.10131  0.47753  1.0000
  H   H1412     1.0  0.91765  0.16820  0.42385  1.0000
  H   H1413     1.0  0.73652  0.01168  0.26298  1.0000
  C   C825      1.0  0.90378  0.18171  0.47876  1.0000
  H   H1414     1.0  0.56521  0.07913  0.48174  1.0000
  H   H1415     1.0  0.92564  0.13054  0.46447  1.0000
  C   C826      1.0  0.87366  0.24989  0.33912  1.0000
  C   C827      1.0  0.71798  0.00902  0.47452  1.0000
  H   H1416     1.0  0.70664  0.01472  0.47994  1.0000
  N   N60       1.0  0.73062  0.01925  0.21800  1.0000
  C   C828      1.0  0.58486  0.04480  0.48910  1.0000
  H   H1417     1.0  0.56992  0.00664  0.07723  1.0000
  H   H1418     1.0  0.65556  0.01850  0.33988  1.0000
  H   H1419     1.0  0.87138  0.10189  0.48620  1.0000
  C   C829      1.0  0.76909  0.07914  0.99966  1.0000
  H   H1420     1.0  0.63489  0.01641  0.37970  1.0000
  H   H1421     1.0  0.76844  0.03215  0.24648  1.0000
  H   H1422     1.0  0.64896  0.01905  0.28521  1.0000
  C   C830      1.0  0.57194  0.02818  0.47349  1.0000
  H   H1423     1.0  0.55693  0.02768  0.47239  1.0000
  H   H1424     1.0  0.88769  0.25247  0.26624  1.0000
  C   C831      1.0  0.63728  0.00406  0.07078  1.0000
  C   C832      1.0  0.65091  0.00703  0.29829  1.0000
  C   C833      1.0  0.62268  0.00417  0.37312  1.0000
  C   C834      1.0  0.64525  0.00568  0.33171  1.0000
  Fe  Fe118     1.0  0.81079  0.16863  0.88317  1.0000
  S   S243      1.0  0.82058  0.16012  0.84150  1.0000
  S   S244      1.0  0.81344  0.19923  0.87956  1.0000
  Fe  Fe119     1.0  0.80090  0.12925  0.91689  1.0000
  S   S245      1.0  0.81140  0.11877  0.87784  1.0000
  H   H1425     1.0  0.52892  0.01538  0.74303  1.0000
  Fe  Fe120     1.0  0.83646  0.14709  0.87182  1.0000
  S   S246      1.0  0.86771  0.15451  0.85347  1.0000
  Fe  Fe121     1.0  0.79464  0.13290  0.85088  1.0000
  S   S247      1.0  0.77724  0.11578  0.81562  1.0000
  S   S248      1.0  0.82745  0.15649  0.91332  1.0000
  S   S249      1.0  0.78330  0.14247  0.89017  1.0000
  H   H1426     1.0  0.94080  0.18322  0.77804  1.0000
  H   H1427     1.0  0.88636  0.22974  0.89344  1.0000
  H   H1428     1.0  0.95982  0.21071  0.74715  1.0000
  Fe  Fe122     1.0  0.97444  0.21724  0.88943  1.0000
  S   S250      1.0  0.94677  0.19385  0.91051  1.0000
  H   H1429     1.0  0.90788  0.24928  0.57047  1.0000
  S   S251      1.0  0.94236  0.18432  0.55731  1.0000
  C   C835      1.0  0.93700  0.23273  0.95605  1.0000
  Fe  Fe123     1.0  0.66111  0.03432  0.73061  1.0000
  S   S252      1.0  0.65023  0.04568  0.76793  1.0000
  H   H1430     1.0  0.58289  0.08009  0.53480  1.0000
  Fe  Fe124     1.0  0.66294  0.06663  0.68540  1.0000
  S   S253      1.0  0.65173  0.08034  0.71948  1.0000
  S   S254      1.0  0.67524  0.08158  0.63914  1.0000
  Fe  Fe125     1.0  0.67267  0.07388  0.74928  1.0000
  S   S255      1.0  0.69059  0.09615  0.77799  1.0000
  Fe  Fe126     1.0  0.63031  0.05092  0.73517  1.0000
  S   S256      1.0  0.59889  0.04099  0.75416  1.0000
  S   S257      1.0  0.68499  0.06184  0.71437  1.0000
  S   S258      1.0  0.63993  0.03776  0.69883  1.0000
  S   S259      1.0  0.63126  0.05707  0.52327  1.0000
  C   C836      1.0  0.66308  0.07394  0.60718  1.0000
  C   C837      1.0  0.67301  0.08081  0.57892  1.0000
  C   C838      1.0  0.66362  0.07543  0.55301  1.0000
  C   C839      1.0  0.64408  0.06338  0.55516  1.0000
  C   C840      1.0  0.63414  0.05653  0.58341  1.0000
  C   C841      1.0  0.64363  0.06164  0.60932  1.0000
  H   H1431     1.0  0.68804  0.09037  0.57704  1.0000
  H   H1432     1.0  0.67140  0.08088  0.53141  1.0000
  H   H1433     1.0  0.61902  0.04726  0.58529  1.0000
  H   H1434     1.0  0.63579  0.05633  0.63091  1.0000
  S   S260      1.0  0.95739  0.22235  0.61052  1.0000
  C   C842      1.0  0.93626  0.14411  0.78965  1.0000
  S   S261      1.0  0.52460  0.01905  0.67933  1.0000
  H   H1435     1.0  0.88455  0.15549  0.50296  1.0000
  H   H1436     1.0  0.94306  0.24823  0.95122  1.0000
  C   C843      1.0  0.58044  0.03835  0.70179  1.0000
  C   C844      1.0  0.57851  0.03492  0.73279  1.0000
  C   C845      1.0  0.55983  0.02658  0.74749  1.0000
  C   C846      1.0  0.88048  0.22826  0.58604  1.0000
  C   C847      1.0  0.91047  0.16554  0.78588  1.0000
  H   H1437     1.0  0.59474  0.04483  0.69021  1.0000
  H   H1438     1.0  0.92067  0.13517  0.78864  1.0000
  C   C848      1.0  0.96028  0.16915  0.81255  1.0000
  C   C849      1.0  0.92811  0.18354  0.52631  1.0000
  Fe  Fe127     1.0  0.98055  0.24903  0.58937  1.0000
  C   C850      1.0  0.89829  0.16721  0.50244  1.0000
  C   C851      1.0  0.98439  0.21504  0.71682  1.0000
  C   C852      1.0  0.89433  0.22179  0.90530  1.0000
  H   H1439     1.0  0.92367  0.22888  0.58366  1.0000
  H   H1440     1.0  0.87943  0.19975  0.55093  1.0000
  N   N61       1.0  0.90543  0.22559  0.54678  1.0000
  H   H1441     1.0  0.89950  0.15634  0.80367  1.0000
  H   H1442     1.0  0.56006  0.05103  0.53064  1.0000
  C   C853      1.0  0.76438  0.22340  0.96396  1.0000
  N   N62       1.0  0.93889  0.15927  0.80955  1.0000
  C   C854      1.0  0.75347  0.11128  0.80431  1.0000
  C   C855      1.0  0.74234  0.12135  0.81302  1.0000
  C   C856      1.0  0.72318  0.11657  0.80464  1.0000
  C   C857      1.0  0.71490  0.10170  0.78750  1.0000
  C   C858      1.0  0.72609  0.09174  0.77857  1.0000
  C   C859      1.0  0.74527  0.09658  0.78682  1.0000
  H   H1443     1.0  0.74846  0.13276  0.82631  1.0000
  H   H1444     1.0  0.71468  0.12440  0.81161  1.0000
  H   H1445     1.0  0.71991  0.08021  0.76554  1.0000
  H   H1446     1.0  0.75372  0.08866  0.77998  1.0000
  C   C860      1.0  0.88788  0.16798  0.87176  1.0000
  C   C861      1.0  0.90273  0.18363  0.85579  1.0000
  C   C862      1.0  0.92065  0.19232  0.86782  1.0000
  C   C863      1.0  0.92392  0.18511  0.89569  1.0000
  C   C864      1.0  0.90879  0.17002  0.91214  1.0000
  C   C865      1.0  0.89084  0.16152  0.90030  1.0000
  H   H1447     1.0  0.90053  0.18866  0.83367  1.0000
  H   H1448     1.0  0.93214  0.20406  0.85509  1.0000
  H   H1449     1.0  0.91116  0.16443  0.93381  1.0000
  H   H1450     1.0  0.87963  0.14932  0.91265  1.0000
  C   C866      1.0  0.82995  0.21573  0.89988  1.0000
  C   C867      1.0  0.83739  0.23497  0.88873  1.0000
  H   H1451     1.0  0.69717  0.05181  0.87581  1.0000
  H   H1452     1.0  0.57724  0.00493  0.66744  1.0000
  C   C868      1.0  0.84431  0.22412  0.94615  1.0000
  C   C869      1.0  0.83392  0.21032  0.92840  1.0000
  H   H1453     1.0  0.83430  0.23926  0.86672  1.0000
  Fe  Fe128     1.0  0.96699  0.20806  0.57580  1.0000
  H   H1454     1.0  0.90691  0.21376  0.96114  1.0000
  H   H1455     1.0  0.82809  0.19558  0.93736  1.0000
  H   H1456     1.0  0.88625  0.23235  0.95652  1.0000
  C   C870      1.0  0.54320  0.02175  0.73143  1.0000
  H   H1457     1.0  0.94740  0.20965  0.50204  1.0000
  C   C871      1.0  0.97532  0.21434  0.74481  1.0000
  H   H1458     1.0  0.75684  0.05781  0.88145  1.0000
  H   H1459     1.0  0.76755  0.07710  0.85238  1.0000
  H   H1460     1.0  0.54084  0.03976  0.50764  1.0000
  C   C872      1.0  0.74568  0.22234  0.94943  1.0000
  H   H1461     1.0  0.94815  0.22749  0.94825  1.0000
  N   N63       1.0  0.90918  0.23433  0.92375  1.0000
  C   C873      1.0  0.93375  0.19784  0.50237  1.0000
  H   H1462     1.0  0.94251  0.13391  0.79908  1.0000
  S   S262      1.0  0.97849  0.23503  0.84570  1.0000
  H   H1463     1.0  0.88681  0.22754  0.60767  1.0000
  H   H1464     1.0  0.73721  0.06876  0.95675  1.0000
  H   H1465     1.0  0.78967  0.04934  0.95530  1.0000
  H   H1466     1.0  0.69709  0.07527  0.87660  1.0000
  C   C874      1.0  0.93101  0.17358  0.79674  1.0000
  H   H1467     1.0  0.90595  0.15688  0.54420  1.0000
  H   H1468     1.0  0.75133  0.05776  0.93808  1.0000
  H   H1469     1.0  0.95052  0.14287  0.86172  1.0000
  H   H1470     1.0  0.75963  0.19125  0.93855  1.0000
  H   H1471     1.0  0.96724  0.15883  0.81815  1.0000
  H   H1472     1.0  0.89180  0.20004  0.60153  1.0000
  H   H1473     1.0  0.92010  0.21198  0.92931  1.0000
  C   C875      1.0  0.91044  0.16809  0.52591  1.0000
  H   H1474     1.0  0.87118  0.23662  0.58737  1.0000
  H   H1475     1.0  0.79712  0.08298  0.93669  1.0000
  C   C876      1.0  0.78811  0.07669  0.95713  1.0000
  H   H1476     1.0  0.92659  0.13185  0.87927  1.0000
  H   H1477     1.0  0.87037  0.21407  0.58248  1.0000
  H   H1478     1.0  0.81956  0.24416  0.99038  1.0000
  C   C877      1.0  0.89873  0.24321  0.94274  1.0000
  C   C878      1.0  0.90454  0.19956  0.58895  1.0000
  H   H1479     1.0  0.93766  0.14104  0.74239  1.0000
  C   C879      1.0  0.72951  0.10912  0.89195  1.0000
  C   C880      1.0  0.78065  0.08756  0.97297  1.0000
  S   S263      1.0  0.96991  0.21011  0.68648  1.0000
  H   H1480     1.0  0.77955  0.07554  0.88580  1.0000
  H   H1481     1.0  0.76189  0.20921  0.97572  1.0000
  H   H1482     1.0  0.84636  0.21985  0.96878  1.0000
  C   C881      1.0  0.94606  0.15089  0.75772  1.0000
  H   H1483     1.0  0.89995  0.18736  0.57595  1.0000
  H   H1484     1.0  0.56540  0.03663  0.66179  1.0000
  S   S264      1.0  0.78479  0.11144  0.96012  1.0000
  H   H1485     1.0  0.91009  0.15784  0.76636  1.0000
  H   H1486     1.0  0.69985  0.06693  0.84209  1.0000
  H   H1487     1.0  0.72844  0.04368  0.95725  1.0000
  H   H1488     1.0  0.93509  0.22926  0.98058  1.0000
  C   C882      1.0  0.54510  0.02538  0.70046  1.0000
  C   C883      1.0  0.89656  0.23784  0.56071  1.0000
  C   C884      1.0  0.92795  0.15031  0.83927  1.0000
  H   H1489     1.0  0.72648  0.11867  0.90648  1.0000
  H   H1490     1.0  0.90592  0.17741  0.77870  1.0000
  H   H1491     1.0  0.91408  0.19671  0.60540  1.0000
  C   C885      1.0  0.91763  0.22244  0.94249  1.0000
  C   C886      1.0  0.87949  0.21505  0.50893  1.0000
  C   C887      1.0  0.91626  0.21809  0.56889  1.0000
  H   H1492     1.0  0.54346  0.06161  0.51994  1.0000
  H   H1493     1.0  0.86838  0.19635  0.90620  1.0000
  C   C888      1.0  0.96565  0.18338  0.83554  1.0000
  H   H1494     1.0  0.81216  0.23237  0.94568  1.0000
  H   H1495     1.0  0.87074  0.20582  0.94069  1.0000
  H   H1496     1.0  0.71895  0.10669  0.87475  1.0000
  H   H1497     1.0  0.73573  0.09472  0.93072  1.0000
  C   C889      1.0  0.93506  0.13639  0.85729  1.0000
  H   H1498     1.0  0.91231  0.14241  0.83670  1.0000
  C   C890      1.0  0.93692  0.24321  0.88217  1.0000
  C   C891      1.0  0.91983  0.23774  0.52156  1.0000
  C   C892      1.0  0.98621  0.21899  0.76948  1.0000
  C   C893      1.0  0.87905  0.20343  0.92193  1.0000
  C   C894      1.0  0.56378  0.03376  0.68574  1.0000
  H   H1499     1.0  0.79547  0.21385  0.96947  1.0000
  H   H1500     1.0  0.98168  0.19076  0.83400  1.0000
  H   H1501     1.0  0.97907  0.21869  0.79071  1.0000
  H   H1502     1.0  0.93051  0.18309  0.81328  1.0000
  N   N64       1.0  0.78257  0.23055  0.94331  1.0000
  H   H1503     1.0  0.95945  0.19432  0.83135  1.0000
  H   H1504     1.0  0.55819  0.02399  0.77147  1.0000
  H   H1505     1.0  0.86828  0.20200  0.50270  1.0000
  H   H1506     1.0  0.93247  0.12345  0.84651  1.0000
  N   N65       1.0  0.72058  0.12796  0.68684  1.0000
  C   C895      1.0  0.70242  0.13186  0.68158  1.0000
  C   C896      1.0  0.73375  0.13546  0.65862  1.0000
  C   C897      1.0  0.73006  0.13863  0.71188  1.0000
  C   C898      1.0  0.71488  0.10703  0.69495  1.0000
  C   C899      1.0  0.68811  0.12831  0.70901  1.0000
  C   C900      1.0  0.72524  0.12665  0.63063  1.0000
  C   C901      1.0  0.74934  0.13731  0.72047  1.0000
  C   C902      1.0  0.73070  0.09878  0.69006  1.0000
  H   H1507     1.0  0.70613  0.14676  0.67182  1.0000
  H   H1508     1.0  0.69387  0.12299  0.66510  1.0000
  H   H1509     1.0  0.74777  0.13376  0.66048  1.0000
  H   H1510     1.0  0.73782  0.15099  0.65381  1.0000
  H   H1511     1.0  0.73263  0.15387  0.70674  1.0000
  H   H1512     1.0  0.72036  0.13350  0.73279  1.0000
  H   H1513     1.0  0.70903  0.10285  0.71857  1.0000
  H   H1514     1.0  0.70276  0.09920  0.68186  1.0000
  H   H1515     1.0  0.67401  0.12820  0.70168  1.0000
  H   H1516     1.0  0.68523  0.11454  0.72211  1.0000
  H   H1517     1.0  0.69342  0.13967  0.72353  1.0000
  H   H1518     1.0  0.73689  0.13104  0.61228  1.0000
  H   H1519     1.0  0.71912  0.11102  0.63417  1.0000
  H   H1520     1.0  0.71385  0.13165  0.62280  1.0000
  H   H1521     1.0  0.75493  0.14649  0.73816  1.0000
  H   H1522     1.0  0.76076  0.14230  0.70184  1.0000
  H   H1523     1.0  0.74719  0.12285  0.73035  1.0000
  H   H1524     1.0  0.72940  0.08807  0.70915  1.0000
  H   H1525     1.0  0.74584  0.10894  0.68821  1.0000
  H   H1526     1.0  0.72809  0.09099  0.67030  1.0000
  N   N66       1.0  0.73385  0.07709  0.89563  1.0000
  C   C903      1.0  0.72740  0.09059  0.91096  1.0000
  C   C904      1.0  0.72631  0.05825  0.91466  1.0000
  C   C905      1.0  0.72604  0.07448  0.86561  1.0000
  C   C906      1.0  0.75571  0.08521  0.89149  1.0000
  C   C907      1.0  0.84824  0.24876  0.90623  1.0000
  C   C908      1.0  0.73651  0.05730  0.94328  1.0000
  C   C909      1.0  0.70374  0.06668  0.86550  1.0000
  C   C910      1.0  0.76525  0.07313  0.87684  1.0000
  H   H1527     1.0  0.71195  0.08379  0.91990  1.0000
  H   H1528     1.0  0.77198  0.19106  0.90432  1.0000
  H   H1529     1.0  0.72697  0.04682  0.90199  1.0000
  H   H1530     1.0  0.71061  0.05394  0.92158  1.0000
  H   H1531     1.0  0.73190  0.08791  0.85068  1.0000
  H   H1532     1.0  0.73108  0.06471  0.85433  1.0000
  H   H1533     1.0  0.76099  0.09897  0.87719  1.0000
  H   H1534     1.0  0.76240  0.08898  0.91267  1.0000
  H   H1535     1.0  0.96113  0.17638  0.85863  1.0000
  H   H1536     1.0  0.87190  0.22406  0.51606  1.0000
  H   H1537     1.0  0.90139  0.21691  0.88769  1.0000
  H   H1538     1.0  0.58157  0.01111  0.80615  1.0000
  H   H1539     1.0  0.92813  0.16122  0.85368  1.0000
  H   H1540     1.0  0.92804  0.21512  0.55719  1.0000
  H   H1541     1.0  0.96694  0.24489  0.72652  1.0000
  H   H1542     1.0  0.73338  0.21720  0.96683  1.0000
  C   C911      1.0  0.80384  0.24007  0.98733  1.0000
  C   C912      1.0  0.89054  0.20952  0.53387  1.0000
  H   H1543     1.0  0.74429  0.11672  0.88112  1.0000
  C   C913      1.0  0.78387  0.05761  0.96778  1.0000
  Fe  Fe129     1.0  0.98067  0.21872  0.63761  1.0000
  C   C914      1.0  0.55187  0.05345  0.51199  1.0000
  C   C915      1.0  0.93859  0.25281  0.53042  1.0000
  H   H1544     1.0  0.89761  0.20060  0.52475  1.0000
  H   H1545     1.0  0.88572  0.19331  0.92996  1.0000
  H   H1546     1.0  0.74195  0.21226  0.93268  1.0000
  H   H1547     1.0  0.92449  0.22886  0.50756  1.0000
  H   H1548     1.0  0.96119  0.15142  0.75666  1.0000
  H   H1549     1.0  0.78492  0.19377  0.93663  1.0000
  H   H1550     1.0  0.92887  0.23561  0.86435  1.0000
  C   C916      1.0  0.79881  0.22877  0.96045  1.0000
  C   C917      1.0  0.85120  0.24340  0.93537  1.0000
  H   H1551     1.0  0.94644  0.16490  0.74865  1.0000
  C   C918      1.0  0.77379  0.19766  0.92527  1.0000
  H   H1552     1.0  0.91311  0.24543  0.50644  1.0000
  H   H1553     1.0  0.76592  0.23256  0.98199  1.0000
  H   H1554     1.0  0.96789  0.17707  0.79090  1.0000
  H   H1555     1.0  0.89104  0.24568  0.54382  1.0000
  H   H1556     1.0  0.59521  0.06357  0.53922  1.0000
  C   C919      1.0  0.78034  0.21922  0.91743  1.0000
  S   S265      1.0  0.66635  0.00757  0.74126  1.0000
  H   H1557     1.0  0.77002  0.22178  0.90216  1.0000
  H   H1558     1.0  0.79430  0.22382  0.90353  1.0000
  H   H1559     1.0  0.65018  0.00743  0.68446  1.0000
  C   C920      1.0  0.92406  0.24966  0.90242  1.0000
  H   H1560     1.0  0.89246  0.25177  0.92842  1.0000
  H   H1561     1.0  0.94772  0.24642  0.54255  1.0000
  H   H1562     1.0  0.74664  0.23638  0.93922  1.0000
  H   H1563     1.0  0.60853  0.08817  0.53594  1.0000
  H   H1564     1.0  0.58103  0.04074  0.51322  1.0000
  H   H1565     1.0  0.94364  0.23443  0.89464  1.0000
  C   C921      1.0  0.59583  0.07720  0.52785  1.0000
  H   H1566     1.0  0.91513  0.24802  0.98258  1.0000
  H   H1567     1.0  0.94941  0.24858  0.68273  1.0000
  H   H1568     1.0  0.97380  0.25228  0.67228  1.0000
  S   S266      1.0  0.98697  0.24193  0.91474  1.0000
  C   C922      1.0  0.59886  0.07876  0.49381  1.0000
  C   C923      1.0  0.78683  0.25080  0.93123  1.0000
  H   H1569     1.0  0.80149  0.25348  0.98442  1.0000
  H   H1570     1.0  0.96368  0.24997  0.77823  1.0000
  H   H1571     1.0  0.77652  0.25158  0.91451  1.0000
  H   H1572     1.0  0.71635  0.00456  0.53665  1.0000
  C   C924      1.0  0.98207  0.33175  0.22475  1.0000
  S   S267      1.0  0.96886  0.45348  0.20433  1.0000
  H   H1573     1.0  0.93292  0.29632  0.10676  1.0000
  Fe  Fe130     1.0  0.91228  0.34291  0.23428  1.0000
  S   S268      1.0  0.92158  0.33953  0.18828  1.0000
  S   S269      1.0  0.91358  0.36927  0.25428  1.0000
  Fe  Fe131     1.0  0.90306  0.30120  0.25822  1.0000
  S   S270      1.0  0.91220  0.29458  0.21443  1.0000
  S   S271      1.0  0.89298  0.28307  0.30304  1.0000
  Fe  Fe132     1.0  0.93683  0.32256  0.21150  1.0000
  S   S272      1.0  0.96740  0.32811  0.19500  1.0000
  Fe  Fe133     1.0  0.89611  0.31183  0.19420  1.0000
  S   S273      1.0  0.87705  0.29806  0.15875  1.0000
  S   S274      1.0  0.92946  0.32784  0.25698  1.0000
  S   S275      1.0  0.88507  0.31656  0.23847  1.0000
  S   S276      1.0  0.89131  0.33972  0.02693  1.0000
  H   H1574     1.0  0.86662  0.26935  0.24979  1.0000
  H   H1575     1.0  0.92424  0.33803  0.40794  1.0000
  S   S277      1.0  0.98114  0.47227  0.28358  1.0000
  H   H1576     1.0  0.58146  0.47865  0.14685  1.0000
  C   C925      1.0  0.88090  0.32693  0.32277  1.0000
  C   C926      1.0  0.90216  0.34094  0.32195  1.0000
  H   H1577     1.0  0.92885  0.34004  0.07837  1.0000
  H   H1578     1.0  0.58345  0.48034  0.21413  1.0000
  H   H1579     1.0  0.85653  0.28379  0.28344  1.0000
  N   N67       1.0  0.83570  0.25723  0.24537  1.0000
  H   H1580     1.0  0.60119  0.46060  0.15163  1.0000
  H   H1581     1.0  0.96937  0.49953  0.13624  1.0000
  H   H1582     1.0  0.50158  0.41205  0.43594  1.0000
  H   H1583     1.0  0.96328  0.30662  0.08033  1.0000
  C   C927      1.0  0.82338  0.26279  0.19435  1.0000
  H   H1584     1.0  0.93030  0.31209  0.14918  1.0000
  C   C928      1.0  0.88134  0.30979  0.12220  1.0000
  C   C929      1.0  0.88966  0.32946  0.11664  1.0000
  C   C930      1.0  0.89227  0.33843  0.08739  1.0000
  C   C931      1.0  0.88738  0.32784  0.06336  1.0000
  C   C932      1.0  0.87937  0.30815  0.06888  1.0000
  C   C933      1.0  0.87608  0.29918  0.09824  1.0000
  H   H1585     1.0  0.89358  0.33778  0.13493  1.0000
  H   H1586     1.0  0.89829  0.35367  0.08332  1.0000
  H   H1587     1.0  0.87528  0.29985  0.05059  1.0000
  H   H1588     1.0  0.86954  0.28396  0.10236  1.0000
  H   H1589     1.0  0.94410  0.32512  0.36465  1.0000
  C   C934      1.0  0.92904  0.31453  0.36758  1.0000
  C   C935      1.0  0.93060  0.28878  0.04942  1.0000
  H   H1590     1.0  0.90145  0.30744  0.35007  1.0000
  H   H1591     1.0  0.95980  0.31238  0.25675  1.0000
  H   H1592     1.0  0.92298  0.28256  0.03017  1.0000
  C   C936      1.0  0.95335  0.43015  0.21842  1.0000
  C   C937      1.0  0.94525  0.42558  0.24778  1.0000
  C   C938      1.0  0.93314  0.40687  0.25838  1.0000
  C   C939      1.0  0.92914  0.39250  0.23987  1.0000
  C   C940      1.0  0.93728  0.39703  0.21052  1.0000
  C   C941      1.0  0.94921  0.41581  0.19979  1.0000
  H   H1593     1.0  0.94815  0.43651  0.26225  1.0000
  H   H1594     1.0  0.92674  0.40357  0.28101  1.0000
  H   H1595     1.0  0.93417  0.38613  0.19595  1.0000
  H   H1596     1.0  0.95530  0.41924  0.17699  1.0000
  Fe  Fe134     1.0  0.97993  0.47670  0.23433  1.0000
  H   H1597     1.0  0.90914  0.33988  0.30058  1.0000
  C   C942      1.0  0.94577  0.35694  0.31563  1.0000
  C   C943      1.0  0.62037  0.50052  0.18648  1.0000
  C   C944      1.0  0.88201  0.25811  0.31035  1.0000
  H   H1598     1.0  0.93766  0.33459  0.12777  1.0000
  C   C945      1.0  0.93212  0.31044  0.10183  1.0000
  H   H1599     1.0  0.82007  0.27511  0.19957  1.0000
  H   H1600     1.0  0.62869  0.46842  0.20213  1.0000
  C   C946      1.0  0.58914  0.48621  0.16509  1.0000
  H   H1601     1.0  0.61514  0.49254  0.20885  1.0000
  H   H1602     1.0  0.52213  0.41636  0.41012  1.0000
  H   H1603     1.0  0.92987  0.30091  0.36293  1.0000
  Fe  Fe135     1.0  0.97422  0.49828  0.28559  1.0000
  H   H1604     1.0  0.83648  0.28583  0.23971  1.0000
  H   H1605     1.0  0.56254  0.47497  0.19384  1.0000
  H   H1606     1.0  0.93050  0.36778  0.34541  1.0000
  C   C947      1.0  0.84063  0.27991  0.28542  1.0000
  H   H1607     1.0  0.92304  0.31241  0.39088  1.0000
  C   C948      1.0  0.91575  0.31937  0.34593  1.0000
  H   H1608     1.0  0.98191  0.42839  0.26382  1.0000
  C   C949      1.0  0.91363  0.34459  0.40296  1.0000
  C   C950      1.0  0.97328  0.37423  0.23750  1.0000
  H   H1609     1.0  0.91637  0.30862  0.05023  1.0000
  C   C951      1.0  0.61478  0.46084  0.19273  1.0000
  H   H1610     1.0  0.92132  0.36016  0.39957  1.0000
  H   H1611     1.0  0.58730  0.49998  0.16291  1.0000
  H   H1612     1.0  0.98398  0.34371  0.04133  1.0000
  C   C952      1.0  0.93932  0.32081  0.12906  1.0000
  C   C953      1.0  0.57732  0.47460  0.19373  1.0000
  Fe  Fe136     1.0  0.50360  0.48660  0.22206  1.0000
  H   H1613     1.0  0.97155  0.39527  0.26439  1.0000
  H   H1614     1.0  0.90336  0.34123  0.42301  1.0000
  H   H1615     1.0  0.94524  0.28824  0.04710  1.0000
  H   H1616     1.0  0.89113  0.32314  0.38335  1.0000
  H   H1617     1.0  0.87431  0.33101  0.30304  1.0000
  H   H1618     1.0  0.93736  0.31613  0.02598  1.0000
  H   H1619     1.0  0.89349  0.34672  0.37258  1.0000
  H   H1620     1.0  0.97379  0.50200  0.39040  1.0000
  H   H1621     1.0  0.85958  0.27812  0.21684  1.0000
  C   C954      1.0  0.97456  0.32253  0.25321  1.0000
  H   H1622     1.0  0.61449  0.44658  0.18975  1.0000
  H   H1623     1.0  0.54589  0.48957  0.25657  1.0000
  C   C955      1.0  0.96022  0.49294  0.47828  1.0000
  C   C956      1.0  0.61321  0.47087  0.16228  1.0000
  C   C957      1.0  0.90206  0.33758  0.37607  1.0000
  H   H1624     1.0  0.97799  0.37303  0.21460  1.0000
  H   H1625     1.0  0.87991  0.31234  0.32124  1.0000
  H   H1626     1.0  0.98688  0.32140  0.04221  1.0000
  H   H1627     1.0  0.95452  0.32271  0.13272  1.0000
  H   H1628     1.0  0.94911  0.34430  0.31272  1.0000
  C   C958      1.0  0.60966  0.49329  0.10499  1.0000
  H   H1629     1.0  0.57854  0.50096  0.27593  1.0000
  H   H1630     1.0  0.95070  0.49579  0.41019  1.0000
  C   C959      1.0  0.93279  0.35433  0.34430  1.0000
  H   H1631     1.0  0.61915  0.50161  0.08496  1.0000
  H   H1632     1.0  0.57521  0.45954  0.19437  1.0000
  C   C960      1.0  0.97998  0.39498  0.24379  1.0000
  N   N68       1.0  0.61042  0.48935  0.16224  1.0000
  S   S278      1.0  0.95105  0.49869  0.31959  1.0000
  N   N69       1.0  0.91348  0.33794  0.34753  1.0000
  H   H1633     1.0  0.91640  0.30784  0.10161  1.0000
  H   H1634     1.0  0.62662  0.47270  0.14845  1.0000
  H   H1635     1.0  0.93943  0.36100  0.29570  1.0000
  H   H1636     1.0  0.93210  0.34345  0.02469  1.0000
  H   H1637     1.0  0.92130  0.31861  0.32320  1.0000
  C   C961      1.0  0.94275  0.34002  0.06859  1.0000
  H   H1638     1.0  0.51465  0.38587  0.40265  1.0000
  H   H1639     1.0  0.95982  0.36874  0.31692  1.0000
  H   H1640     1.0  0.83781  0.26780  0.18187  1.0000
  H   H1641     1.0  0.98047  0.31896  0.29904  1.0000
  H   H1642     1.0  0.96822  0.32465  0.02296  1.0000
  H   H1643     1.0  0.94177  0.35333  0.36284  1.0000
  H   H1644     1.0  0.92217  0.27966  0.06958  1.0000
  S   S279      1.0  0.97020  0.50093  0.23675  1.0000
  S   S280      1.0  0.49714  0.49084  0.26883  1.0000
  H   H1645     1.0  0.81551  0.26959  0.26047  1.0000
  N   N70       1.0  0.94271  0.32026  0.07218  1.0000
  C   C962      1.0  0.96311  0.32070  0.07231  1.0000
  H   H1646     1.0  0.97810  0.36531  0.25320  1.0000
  C   C963      1.0  0.93154  0.30919  0.04869  1.0000
  H   H1647     1.0  0.95425  0.34946  0.08111  1.0000
  H   H1648     1.0  0.60276  0.45890  0.20933  1.0000
  H   H1649     1.0  0.87193  0.32721  0.34261  1.0000
  H   H1650     1.0  0.52234  0.40823  0.44793  1.0000
  H   H1651     1.0  0.49095  0.36495  0.37841  1.0000
  H   H1652     1.0  0.50402  0.40442  0.36803  1.0000
  H   H1653     1.0  0.90194  0.35543  0.32005  1.0000
  H   H1654     1.0  0.83798  0.29271  0.28999  1.0000
  C   C964      1.0  0.94517  0.35004  0.03671  1.0000
  H   H1655     1.0  0.87834  0.25896  0.20689  1.0000
  H   H1656     1.0  0.98658  0.48007  0.09481  1.0000
  C   C965      1.0  0.85645  0.26498  0.23221  1.0000
  C   C966      1.0  0.51281  0.40675  0.42932  1.0000
  H   H1657     1.0  0.95718  0.36809  0.23922  1.0000
  H   H1658     1.0  0.97444  0.40200  0.22583  1.0000
  H   H1659     1.0  0.59544  0.49465  0.10275  1.0000
  C   C967      1.0  0.50532  0.38605  0.42231  1.0000
  H   H1660     1.0  0.94878  0.48218  0.46744  1.0000
  C   C968      1.0  0.96612  0.49820  0.41299  1.0000
  H   H1661     1.0  0.60804  0.47842  0.10444  1.0000
  H   H1662     1.0  0.97114  0.32975  0.08888  1.0000
  C   C969      1.0  0.97609  0.32820  0.04299  1.0000
  S   S281      1.0  0.53366  0.49641  0.19770  1.0000
  H   H1663     1.0  0.94657  0.36485  0.03779  1.0000
  H   H1664     1.0  0.81258  0.25528  0.17914  1.0000
  H   H1665     1.0  0.95815  0.35049  0.02358  1.0000
  C   C970      1.0  0.61895  0.50138  0.13300  1.0000
  H   H1666     1.0  0.96735  0.48488  0.42237  1.0000
  C   C971      1.0  0.97719  0.48628  0.48331  1.0000
  C   C972      1.0  0.83139  0.27318  0.25670  1.0000
  C   C973      1.0  0.98630  0.32616  0.27708  1.0000
  H   H1667     1.0  0.50037  0.34871  0.42402  1.0000
  H   H1668     1.0  0.83412  0.26914  0.30492  1.0000
  H   H1669     1.0  0.50874  0.37752  0.44091  1.0000
  H   H1670     1.0  0.97192  0.47075  0.48322  1.0000
  H   H1671     1.0  0.87463  0.25878  0.35649  1.0000
  C   C974      1.0  0.55811  0.50012  0.24312  1.0000
  H   H1672     1.0  0.64814  0.49699  0.17601  1.0000
  C   C975      1.0  0.48809  0.39833  0.36713  1.0000
  S   S282      1.0  0.89811  0.29763  0.99259  1.0000
  C   C976      1.0  0.96871  0.25937  0.71704  1.0000
  S   S283      1.0  0.87599  0.31804  0.94904  1.0000
  Fe  Fe137     1.0  0.92417  0.31132  0.96058  1.0000
  S   S284      1.0  0.90800  0.30267  0.92052  1.0000
  Fe  Fe138     1.0  0.52125  0.50273  0.78709  1.0000
  Fe  Fe139     1.0  0.90430  0.33063  0.91992  1.0000
  S   S285      1.0  0.90877  0.34927  0.87566  1.0000
  Fe  Fe140     1.0  0.88134  0.29084  0.95234  1.0000
  H   H1673     1.0  0.95329  0.49194  0.50083  1.0000
  S   S286      1.0  0.92268  0.33987  0.95779  1.0000
  C   C977      1.0  0.97167  0.28908  0.94456  1.0000
  H   H1674     1.0  0.93404  0.26104  0.91384  1.0000
  S   S287      1.0  0.96858  0.43479  0.85061  1.0000
  S   S288      1.0  0.95051  0.30561  0.97231  1.0000
  C   C978      1.0  0.97254  0.26521  0.77810  1.0000
  S   S289      1.0  0.98245  0.48340  0.80096  1.0000
  Fe  Fe141     1.0  0.50332  0.46719  0.75497  1.0000
  H   H1675     1.0  0.96438  0.35825  0.83608  1.0000
  H   H1676     1.0  0.50936  0.44444  0.83082  1.0000
  S   S290      1.0  0.49482  0.47587  0.79743  1.0000
  H   H1677     1.0  0.54128  0.42789  0.85369  1.0000
  H   H1678     1.0  0.96572  0.30927  0.86550  1.0000
  H   H1679     1.0  0.56311  0.48174  0.76901  1.0000
  H   H1680     1.0  0.81071  0.25494  0.89742  1.0000
  H   H1681     1.0  0.92324  0.26818  0.95384  1.0000
  H   H1682     1.0  0.90384  0.40614  0.84470  1.0000
  H   H1683     1.0  0.91085  0.43784  0.88478  1.0000
  H   H1684     1.0  0.51906  0.47744  0.84827  1.0000
  H   H1685     1.0  0.92003  0.47949  0.86752  1.0000
  C   C979      1.0  0.51430  0.46398  0.86303  1.0000
  H   H1686     1.0  0.97659  0.37729  0.85594  1.0000
  S   S291      1.0  0.86069  0.26002  0.96059  1.0000
  H   H1687     1.0  0.51487  0.43612  0.86539  1.0000
  H   H1688     1.0  0.55293  0.47955  0.85964  1.0000
  C   C980      1.0  0.54425  0.43731  0.83237  1.0000
  C   C981      1.0  0.55414  0.46571  0.85756  1.0000
  Fe  Fe142     1.0  0.98334  0.45446  0.80840  1.0000
  C   C982      1.0  0.97325  0.37362  0.83318  1.0000
  C   C983      1.0  0.95233  0.41084  0.85645  1.0000
  C   C984      1.0  0.94921  0.40114  0.88520  1.0000
  C   C985      1.0  0.93606  0.38229  0.89133  1.0000
  C   C986      1.0  0.92562  0.37297  0.86883  1.0000
  C   C987      1.0  0.92856  0.38275  0.84007  1.0000
  C   C988      1.0  0.94196  0.40154  0.83382  1.0000
  H   H1689     1.0  0.95700  0.40824  0.90294  1.0000
  H   H1690     1.0  0.93385  0.37506  0.91360  1.0000
  H   H1691     1.0  0.92051  0.37567  0.82252  1.0000
  H   H1692     1.0  0.94414  0.40881  0.81161  1.0000
  H   H1693     1.0  0.57529  0.48018  0.80145  1.0000
  H   H1694     1.0  0.51646  0.42002  0.81565  1.0000
  C   C989      1.0  0.95887  0.30792  0.91246  1.0000
  C   C990      1.0  0.96107  0.30063  0.94095  1.0000
  S   S292      1.0  0.97474  0.27548  0.57794  1.0000
  H   H1695     1.0  0.53551  0.43274  0.78678  1.0000
  H   H1696     1.0  0.95088  0.31709  0.90965  1.0000
  H   H1697     1.0  0.90010  0.40414  0.88391  1.0000
  H   H1698     1.0  0.96019  0.37807  0.77670  1.0000
  H   H1699     1.0  0.56464  0.45981  0.78181  1.0000
  H   H1700     1.0  0.94752  0.26111  0.50997  1.0000
  H   H1701     1.0  0.53152  0.46058  0.79284  1.0000
  H   H1702     1.0  0.97704  0.26724  0.80097  1.0000
  H   H1703     1.0  0.55629  0.46572  0.90534  1.0000
  H   H1704     1.0  0.97334  0.28344  0.96660  1.0000
  H   H1705     1.0  0.55990  0.44094  0.82589  1.0000
  H   H1706     1.0  0.96385  0.38062  0.82421  1.0000
  H   H1707     1.0  0.97933  0.31520  0.71391  1.0000
  H   H1708     1.0  0.97686  0.30154  0.74887  1.0000
  H   H1709     1.0  0.56941  0.46978  0.84852  1.0000
  C   C991      1.0  0.54313  0.46714  0.80761  1.0000
  Fe  Fe143     1.0  0.89499  0.32538  0.98711  1.0000
  H   H1710     1.0  0.52071  0.46660  0.88459  1.0000
  C   C992      1.0  0.55288  0.45535  0.88895  1.0000
  H   H1711     1.0  0.93226  0.46657  0.88895  1.0000
  H   H1712     1.0  0.96330  0.27337  0.77341  1.0000
  N   N71       1.0  0.54024  0.45473  0.83663  1.0000
  S   S293      1.0  0.53104  0.49319  0.74619  1.0000
  H   H1713     1.0  0.94893  0.25586  0.87085  1.0000
  C   C993      1.0  0.90002  0.41297  0.86304  1.0000
  H   H1714     1.0  0.93571  0.26297  0.54368  1.0000
  H   H1715     1.0  0.98314  0.48986  0.50497  1.0000
  C   C994      1.0  0.97781  0.29183  0.89117  1.0000
  H   H1716     1.0  0.53606  0.41251  0.80883  1.0000
  H   H1717     1.0  0.96612  0.27217  0.67220  1.0000
  H   H1718     1.0  0.49831  0.45903  0.86747  1.0000
  N   N72       1.0  0.91665  0.44738  0.83740  1.0000
  C   C995      1.0  0.91491  0.43320  0.86397  1.0000
  C   C996      1.0  0.93407  0.46487  0.84069  1.0000
  C   C997      1.0  0.91993  0.43908  0.80985  1.0000
  C   C998      1.0  0.89800  0.45085  0.83725  1.0000
  H   H1719     1.0  0.92914  0.43196  0.86733  1.0000
  C   C999      1.0  0.93265  0.47513  0.86765  1.0000
  C   C1000     1.0  0.92848  0.45273  0.78116  1.0000
  C   C1001     1.0  0.89739  0.46710  0.81497  1.0000
  C   C1002     1.0  0.91063  0.25604  0.96475  1.0000
  H   H1720     1.0  0.96654  0.40346  0.77612  1.0000
  H   H1721     1.0  0.93748  0.47553  0.82103  1.0000
  H   H1722     1.0  0.94728  0.46138  0.84215  1.0000
  H   H1723     1.0  0.93023  0.43184  0.81381  1.0000
  H   H1724     1.0  0.90618  0.42811  0.80444  1.0000
  H   H1725     1.0  0.88585  0.43801  0.83243  1.0000
  H   H1726     1.0  0.88504  0.41252  0.86169  1.0000
  H   H1727     1.0  0.53827  0.44473  0.89636  1.0000
  S   S294      1.0  0.97907  0.44897  0.76109  1.0000
  S   S295      1.0  0.96073  0.48804  0.72442  1.0000
  H   H1728     1.0  0.96530  0.39314  0.74270  1.0000
  C   C1003     1.0  0.56273  0.47232  0.78937  1.0000
  H   H1729     1.0  0.91680  0.25705  0.88771  1.0000
  H   H1730     1.0  0.94390  0.46170  0.78263  1.0000
  H   H1731     1.0  0.92031  0.46171  0.77487  1.0000
  H   H1732     1.0  0.92829  0.44443  0.76241  1.0000
  H   H1733     1.0  0.89146  0.46182  0.79408  1.0000
  H   H1734     1.0  0.91146  0.47894  0.80952  1.0000
  H   H1735     1.0  0.88778  0.47349  0.82481  1.0000
  C   C1004     1.0  0.96462  0.25836  0.68405  1.0000
  S   S296      1.0  0.50099  0.43662  0.75851  1.0000
  H   H1736     1.0  0.96097  0.29215  0.71992  1.0000
  C   C1005     1.0  0.80737  0.26189  0.91596  1.0000
  H   H1737     1.0  0.94587  0.48821  0.86662  1.0000
  H   H1738     1.0  0.95631  0.49889  0.78304  1.0000
  H   H1739     1.0  0.81873  0.26415  0.93190  1.0000
  C   C1006     1.0  0.53229  0.42514  0.80957  1.0000
  C   C1007     1.0  0.97995  0.28465  0.91970  1.0000
  H   H1740     1.0  0.54171  0.48065  0.81139  1.0000
  H   H1741     1.0  0.85332  0.26357  0.89778  1.0000
  C   C1008     1.0  0.96956  0.39228  0.76582  1.0000
  H   H1742     1.0  0.78445  0.25900  0.94880  1.0000
  Fe  Fe144     1.0  0.98074  0.47901  0.75304  1.0000
  C   C1009     1.0  0.51938  0.44885  0.84871  1.0000
  H   H1743     1.0  0.89339  0.45309  0.85972  1.0000
  H   H1744     1.0  0.56341  0.44822  0.88997  1.0000
  C   C1010     1.0  0.96737  0.30360  0.88754  1.0000
  H   H1745     1.0  0.90120  0.26207  0.97600  1.0000
  H   H1746     1.0  0.80835  0.27610  0.90642  1.0000
  C   C1011     1.0  0.94854  0.50169  0.73833  1.0000
  H   H1747     1.0  0.95660  0.26204  0.72802  1.0000
  H   H1748     1.0  0.98333  0.40999  0.81474  1.0000
  C   C1012     1.0  0.97596  0.30063  0.72476  1.0000
  H   H1749     1.0  0.63467  0.50408  0.12923  1.0000
  H   H1750     1.0  0.65175  0.72394  0.05374  1.0000
  H   H1751     1.0  0.59182  0.56722  0.29915  1.0000
  C   C1013     1.0  0.89815  0.68366  0.01341  1.0000
  S   S297      1.0  0.96323  0.71638  0.11600  1.0000
  S   S298      1.0  0.95815  0.72781  0.02794  1.0000
  Fe  Fe145     1.0  0.84211  0.66778  0.36238  1.0000
  S   S299      1.0  0.83871  0.66504  0.41186  1.0000
  S   S300      1.0  0.87226  0.67790  0.33840  1.0000
  Fe  Fe146     1.0  0.79773  0.64755  0.35782  1.0000
  S   S301      1.0  0.79171  0.64271  0.40779  1.0000
  S   S302      1.0  0.77416  0.64443  0.32512  1.0000
  Fe  Fe147     1.0  0.81252  0.67258  0.40721  1.0000
  S   S303      1.0  0.80825  0.69490  0.43297  1.0000
  Fe  Fe148     1.0  0.81853  0.63552  0.40820  1.0000
  S   S304      1.0  0.82384  0.61450  0.44160  1.0000
  S   S305      1.0  0.81766  0.67808  0.35743  1.0000
  S   S306      1.0  0.82278  0.63774  0.35853  1.0000
  Fe  Fe149     1.0  0.97910  0.73630  0.37648  1.0000
  H   H1752     1.0  0.90100  0.70115  0.27842  1.0000
  S   S307      1.0  0.94839  0.73505  0.38558  1.0000
  H   H1753     1.0  0.89154  0.66562  0.45146  1.0000
  H   H1754     1.0  0.50101  0.62384  0.36155  1.0000
  C   C1014     1.0  0.66625  0.60095  0.08083  1.0000
  H   H1755     1.0  0.70100  0.72241  0.04890  1.0000
  Fe  Fe150     1.0  0.93950  0.59841  0.46940  1.0000
  S   S308      1.0  0.93675  0.59436  0.42154  1.0000
  H   H1756     1.0  0.78203  0.61534  0.19147  1.0000
  H   H1757     1.0  0.54470  0.54234  0.20854  1.0000
  S   S309      1.0  0.91223  0.54925  0.44395  1.0000
  Fe  Fe151     1.0  0.94328  0.56839  0.43233  1.0000
  S   S310      1.0  0.96584  0.56397  0.40229  1.0000
  Fe  Fe152     1.0  0.90591  0.57578  0.43586  1.0000
  S   S311      1.0  0.88585  0.58074  0.40293  1.0000
  H   H1758     1.0  0.65602  0.64573  0.01746  1.0000
  H   H1759     1.0  0.59234  0.54497  0.29252  1.0000
  Fe  Fe153     1.0  0.68467  0.57551  0.24136  1.0000
  S   S312      1.0  0.68974  0.59306  0.19697  1.0000
  S   S313      1.0  0.70807  0.57665  0.27350  1.0000
  Fe  Fe154     1.0  0.64270  0.55084  0.22891  1.0000
  S   S314      1.0  0.64484  0.56651  0.18384  1.0000
  Fe  Fe155     1.0  0.67459  0.56594  0.17807  1.0000
  S   S315      1.0  0.68834  0.56202  0.13518  1.0000
  Fe  Fe156     1.0  0.65965  0.59223  0.20626  1.0000
  S   S316      1.0  0.65220  0.61719  0.19110  1.0000
  S   S317      1.0  0.67156  0.54812  0.22160  1.0000
  S   S318      1.0  0.65537  0.57667  0.25220  1.0000
  Fe  Fe157     1.0  0.55435  0.65970  0.30597  1.0000
  S   S319      1.0  0.54290  0.66396  0.26182  1.0000
  S   S320      1.0  0.54176  0.66548  0.34844  1.0000
  Fe  Fe158     1.0  0.58717  0.65155  0.27770  1.0000
  S   S321      1.0  0.57885  0.65556  0.23114  1.0000
  S   S322      1.0  0.61097  0.64243  0.29325  1.0000
  Fe  Fe159     1.0  0.57404  0.68089  0.24502  1.0000
  S   S323      1.0  0.58076  0.71032  0.22059  1.0000
  Fe  Fe160     1.0  0.54859  0.63836  0.25144  1.0000
  H   H1760     1.0  0.97395  0.62233  0.43551  1.0000
  S   S324      1.0  0.58497  0.67821  0.29006  1.0000
  S   S325      1.0  0.55725  0.63267  0.29704  1.0000
  Fe  Fe161     1.0  0.91746  0.55737  0.49034  1.0000
  S   S326      1.0  0.54397  0.62488  0.47616  1.0000
  H   H1761     1.0  0.68953  0.75066  0.10334  1.0000
  C   C1015     1.0  0.59981  0.72305  0.19287  1.0000
  C   C1016     1.0  0.60936  0.71413  0.17649  1.0000
  C   C1017     1.0  0.94010  0.51685  0.36176  1.0000
  N   N73       1.0  0.91531  0.56381  0.32756  1.0000
  C   C1018     1.0  0.90336  0.54350  0.33930  1.0000
  C   C1019     1.0  0.60485  0.74262  0.18619  1.0000
  H   H1762     1.0  0.60559  0.69909  0.18135  1.0000
  H   H1763     1.0  0.89696  0.65205  0.39172  1.0000
  H   H1764     1.0  0.69949  0.61422  0.04209  1.0000
  C   C1020     1.0  0.97693  0.69030  0.00180  1.0000
  C   C1021     1.0  0.54386  0.65460  0.38355  1.0000
  C   C1022     1.0  0.54237  0.63585  0.38745  1.0000
  C   C1023     1.0  0.54206  0.62692  0.41607  1.0000
  C   C1024     1.0  0.54440  0.63691  0.44083  1.0000
  C   C1025     1.0  0.54665  0.65588  0.43685  1.0000
  C   C1026     1.0  0.54596  0.66456  0.40835  1.0000
  H   H1765     1.0  0.54100  0.62809  0.36856  1.0000
  H   H1766     1.0  0.54015  0.61219  0.41908  1.0000
  H   H1767     1.0  0.54829  0.66365  0.45582  1.0000
  H   H1768     1.0  0.54703  0.67905  0.40552  1.0000
  C   C1027     1.0  0.67399  0.55524  0.10508  1.0000
  C   C1028     1.0  0.65375  0.54862  0.10884  1.0000
  C   C1029     1.0  0.64265  0.54287  0.08466  1.0000
  C   C1030     1.0  0.65164  0.54403  0.05644  1.0000
  C   C1031     1.0  0.67190  0.55118  0.05243  1.0000
  C   C1032     1.0  0.68302  0.55660  0.07675  1.0000
  H   H1769     1.0  0.64664  0.54770  0.13043  1.0000
  H   H1770     1.0  0.62699  0.53767  0.08769  1.0000
  H   H1771     1.0  0.67899  0.55203  0.03079  1.0000
  H   H1772     1.0  0.69869  0.56176  0.07363  1.0000
  C   C1033     1.0  0.64161  0.62490  0.21965  1.0000
  C   C1034     1.0  0.63114  0.63629  0.21246  1.0000
  C   C1035     1.0  0.62190  0.64192  0.23500  1.0000
  C   C1036     1.0  0.62306  0.63615  0.26477  1.0000
  C   C1037     1.0  0.63385  0.62506  0.27199  1.0000
  C   C1038     1.0  0.64313  0.61945  0.24945  1.0000
  H   H1773     1.0  0.63008  0.64070  0.18945  1.0000
  H   H1774     1.0  0.61415  0.65097  0.22926  1.0000
  H   H1775     1.0  0.63500  0.62074  0.29500  1.0000
  H   H1776     1.0  0.65167  0.61118  0.25519  1.0000
  H   H1777     1.0  0.63599  0.57553  0.01253  1.0000
  H   H1778     1.0  0.60233  0.53717  0.19434  1.0000
  H   H1779     1.0  0.64449  0.74334  0.05454  1.0000
  H   H1780     1.0  0.50250  0.56062  0.30028  1.0000
  H   H1781     1.0  0.88433  0.63436  0.42045  1.0000
  C   C1039     1.0  0.62348  0.72462  0.15327  1.0000
  C   C1040     1.0  0.75396  0.62559  0.21470  1.0000
  C   C1041     1.0  0.97724  0.51118  0.14910  1.0000
  H   H1782     1.0  0.80386  0.71968  0.47348  1.0000
  N   N74       1.0  0.91493  0.64878  0.42662  1.0000
  H   H1783     1.0  0.91289  0.53575  0.34551  1.0000
  H   H1784     1.0  0.61109  0.74606  0.06750  1.0000
  C   C1042     1.0  0.75564  0.62521  0.31173  1.0000
  C   C1043     1.0  0.75401  0.60651  0.31815  1.0000
  C   C1044     1.0  0.73929  0.59188  0.30644  1.0000
  C   C1045     1.0  0.72594  0.59569  0.28830  1.0000
  C   C1046     1.0  0.72750  0.61439  0.28200  1.0000
  C   C1047     1.0  0.74229  0.62903  0.29357  1.0000
  H   H1785     1.0  0.76413  0.60330  0.33204  1.0000
  H   H1786     1.0  0.73821  0.57748  0.31155  1.0000
  H   H1787     1.0  0.71735  0.61757  0.26817  1.0000
  H   H1788     1.0  0.74340  0.64342  0.28839  1.0000
  C   C1048     1.0  0.79184  0.69074  0.46454  1.0000
  C   C1049     1.0  0.49710  0.56038  0.22641  1.0000
  C   C1050     1.0  0.59275  0.51977  0.23637  1.0000
  C   C1051     1.0  0.89290  0.69233  0.35469  1.0000
  C   C1052     1.0  0.89204  0.70617  0.37182  1.0000
  C   C1053     1.0  0.90913  0.71889  0.38164  1.0000
  C   C1054     1.0  0.92720  0.71782  0.37466  1.0000
  C   C1055     1.0  0.92797  0.70351  0.35851  1.0000
  C   C1056     1.0  0.91087  0.69086  0.34847  1.0000
  H   H1789     1.0  0.87829  0.70748  0.37666  1.0000
  H   H1790     1.0  0.90841  0.72988  0.39423  1.0000
  H   H1791     1.0  0.94178  0.70246  0.35323  1.0000
  H   H1792     1.0  0.91159  0.68010  0.33536  1.0000
  C   C1057     1.0  0.84180  0.60599  0.43083  1.0000
  C   C1058     1.0  0.84968  0.59725  0.45249  1.0000
  C   C1059     1.0  0.86357  0.58985  0.44429  1.0000
  C   C1060     1.0  0.86933  0.59079  0.41430  1.0000
  C   C1061     1.0  0.86165  0.59973  0.39271  1.0000
  C   C1062     1.0  0.84810  0.60748  0.40095  1.0000
  H   H1793     1.0  0.91483  0.65960  0.46930  1.0000
  H   H1794     1.0  0.86928  0.58284  0.46111  1.0000
  H   H1795     1.0  0.86605  0.60055  0.36948  1.0000
  H   H1796     1.0  0.84213  0.61410  0.38406  1.0000
  C   C1063     1.0  0.93510  0.71048  0.02299  1.0000
  C   C1064     1.0  0.90364  0.68688  0.04229  1.0000
  C   C1065     1.0  0.92206  0.70005  0.04710  1.0000
  H   H1797     1.0  0.89358  0.67910  0.06115  1.0000
  H   H1798     1.0  0.92603  0.70236  0.06947  1.0000
  H   H1799     1.0  0.70795  0.74094  0.99958  1.0000
  H   H1800     1.0  0.97067  0.63539  0.12511  1.0000
  H   H1801     1.0  0.67049  0.63407  0.05423  1.0000
  H   H1802     1.0  0.95056  0.67318  0.08692  1.0000
  C   C1066     1.0  0.95519  0.51723  0.34181  1.0000
  C   C1067     1.0  0.97319  0.53212  0.34038  1.0000
  C   C1068     1.0  0.92018  0.72958  0.28726  1.0000
  C   C1069     1.0  0.96108  0.54604  0.37879  1.0000
  H   H1803     1.0  0.92348  0.68838  0.43008  1.0000
  H   H1804     1.0  0.78453  0.62137  0.13731  1.0000
  H   H1805     1.0  0.48980  0.55106  0.21054  1.0000
  H   H1806     1.0  0.75298  0.69777  0.32200  1.0000
  H   H1807     1.0  0.87177  0.65608  0.43034  1.0000
  H   H1808     1.0  0.94697  0.59806  0.31878  1.0000
  H   H1809     1.0  0.97266  0.72062  0.27765  1.0000
  H   H1810     1.0  0.75989  0.62360  0.23621  1.0000
  H   H1811     1.0  0.93422  0.67084  0.99759  1.0000
  H   H1812     1.0  0.68306  0.73903  0.99852  1.0000
  C   C1070     1.0  0.97912  0.52637  0.48022  1.0000
  H   H1813     1.0  0.88911  0.71684  0.28377  1.0000
  H   H1814     1.0  0.77923  0.59468  0.17523  1.0000
  H   H1815     1.0  0.68041  0.61269  0.08209  1.0000
  C   C1071     1.0  0.96482  0.67929  0.03076  1.0000
  C   C1072     1.0  0.66997  0.60162  0.02728  1.0000
  H   H1816     1.0  0.92960  0.66971  0.38907  1.0000
  C   C1073     1.0  0.76981  0.61378  0.14875  1.0000
  H   H1817     1.0  0.52295  0.54035  0.22856  1.0000
  H   H1818     1.0  0.48996  0.61700  0.24175  1.0000
  H   H1819     1.0  0.67148  0.71949  0.12830  1.0000
  C   C1074     1.0  0.93618  0.68436  0.42754  1.0000
  H   H1820     1.0  0.58455  0.62370  0.45611  1.0000
  H   H1821     1.0  0.63699  0.57513  0.06553  1.0000
  C   C1075     1.0  0.77170  0.60438  0.17947  1.0000
  H   H1822     1.0  0.94549  0.66358  0.41222  1.0000
  H   H1823     1.0  0.91841  0.74330  0.28625  1.0000
  C   C1076     1.0  0.57268  0.55318  0.26556  1.0000
  C   C1077     1.0  0.57586  0.58657  0.26026  1.0000
  H   H1824     1.0  0.59096  0.59106  0.26677  1.0000
  H   H1825     1.0  0.91077  0.63800  0.01098  1.0000
  H   H1826     1.0  0.94946  0.55665  0.32044  1.0000
  H   H1827     1.0  0.50299  0.59211  0.32655  1.0000
  H   H1828     1.0  0.94226  0.68327  0.44926  1.0000
  H   H1829     1.0  0.76583  0.63498  0.19832  1.0000
  H   H1830     1.0  0.76151  0.60319  0.13440  1.0000
  H   H1831     1.0  0.89916  0.61639  0.47308  1.0000
  C   C1078     1.0  0.90139  0.57350  0.32084  1.0000
  H   H1832     1.0  0.59869  0.61574  0.35539  1.0000
  H   H1833     1.0  0.92790  0.65538  0.10089  1.0000
  H   H1834     1.0  0.93127  0.63066  0.42540  1.0000
  H   H1835     1.0  0.57964  0.61606  0.25465  1.0000
  H   H1836     1.0  0.60485  0.56487  0.26623  1.0000
  H   H1837     1.0  0.76687  0.59841  0.23931  1.0000
  C   C1079     1.0  0.59160  0.55820  0.28143  1.0000
  H   H1838     1.0  0.97520  0.67853  0.04741  1.0000
  C   C1080     1.0  0.58032  0.57160  0.21533  1.0000
  C   C1081     1.0  0.62834  0.74413  0.14635  1.0000
  C   C1082     1.0  0.88934  0.54024  0.36704  1.0000
  C   C1083     1.0  0.81083  0.64753  0.48836  1.0000
  H   H1839     1.0  0.50990  0.61966  0.28486  1.0000
  H   H1840     1.0  0.54025  0.56221  0.26293  1.0000
  H   H1841     1.0  0.66392  0.60249  0.00553  1.0000
  C   C1084     1.0  0.91989  0.63158  0.38257  1.0000
  C   C1085     1.0  0.63721  0.58861  0.05379  1.0000
  C   C1086     1.0  0.76802  0.57277  0.22714  1.0000
  H   H1842     1.0  0.90583  0.61857  0.42526  1.0000
  H   H1843     1.0  0.89240  0.57307  0.34121  1.0000
  S   S327      1.0  0.95257  0.62636  0.48678  1.0000
  C   C1087     1.0  0.57475  0.60392  0.24156  1.0000
  H   H1844     1.0  0.93643  0.70480  0.29773  1.0000
  H   H1845     1.0  0.74510  0.60001  0.99630  1.0000
  H   H1846     1.0  0.78400  0.58047  0.22594  1.0000
  H   H1847     1.0  0.73399  0.58364  0.16319  1.0000
  C   C1088     1.0  0.91799  0.63189  0.41649  1.0000
  H   H1848     1.0  0.72753  0.55425  0.21769  1.0000
  H   H1849     1.0  0.71383  0.56921  0.21244  1.0000
  H   H1850     1.0  0.89454  0.53598  0.32182  1.0000
  C   C1089     1.0  0.97209  0.66217  0.45953  1.0000
  H   H1851     1.0  0.95797  0.68876  0.03885  1.0000
  H   H1852     1.0  0.76452  0.56417  0.20849  1.0000
  H   H1853     1.0  0.60255  0.74640  0.48557  1.0000
  H   H1854     1.0  0.90284  0.71989  0.24922  1.0000
  H   H1855     1.0  0.64922  0.52084  0.16873  1.0000
  C   C1090     1.0  0.65405  0.59943  0.10996  1.0000
  C   C1091     1.0  0.97416  0.64594  0.00962  1.0000
  S   S328      1.0  0.52907  0.61631  0.22482  1.0000
  C   C1092     1.0  0.97565  0.51436  0.43181  1.0000
  H   H1856     1.0  0.93677  0.50502  0.44679  1.0000
  H   H1857     1.0  0.65333  0.73933  0.02022  1.0000
  N   N75       1.0  0.75601  0.68413  0.38106  1.0000
  C   C1093     1.0  0.76274  0.67927  0.35232  1.0000
  C   C1094     1.0  0.75629  0.66946  0.40544  1.0000
  C   C1095     1.0  0.77059  0.70310  0.38635  1.0000
  C   C1096     1.0  0.73608  0.68470  0.37826  1.0000
  C   C1097     1.0  0.76561  0.69358  0.32456  1.0000
  C   C1098     1.0  0.74474  0.64877  0.40067  1.0000
  C   C1099     1.0  0.76680  0.71101  0.41477  1.0000
  C   C1100     1.0  0.72275  0.68038  0.40718  1.0000
  H   H1858     1.0  0.77672  0.67725  0.35451  1.0000
  H   H1859     1.0  0.75218  0.66564  0.34666  1.0000
  H   H1860     1.0  0.75082  0.67160  0.42728  1.0000
  H   H1861     1.0  0.77150  0.67075  0.40836  1.0000
  H   H1862     1.0  0.78540  0.70268  0.38660  1.0000
  H   H1863     1.0  0.77158  0.71416  0.36801  1.0000
  H   H1864     1.0  0.73727  0.69875  0.36739  1.0000
  H   H1865     1.0  0.72769  0.67445  0.36333  1.0000
  H   H1866     1.0  0.64029  0.58688  0.11263  1.0000
  H   H1867     1.0  0.98425  0.61993  0.08978  1.0000
  C   C1101     1.0  0.89716  0.74686  0.99845  1.0000
  H   H1868     1.0  0.74247  0.63957  0.42203  1.0000
  H   H1869     1.0  0.73035  0.64666  0.39245  1.0000
  H   H1870     1.0  0.75298  0.64384  0.38479  1.0000
  H   H1871     1.0  0.75493  0.71634  0.41249  1.0000
  C   C1102     1.0  0.67062  0.72214  0.10399  1.0000
  H   H1872     1.0  0.76382  0.70087  0.43506  1.0000
  H   H1873     1.0  0.71773  0.66532  0.41640  1.0000
  H   H1874     1.0  0.70955  0.68321  0.40213  1.0000
  H   H1875     1.0  0.72953  0.68913  0.42463  1.0000
  H   H1876     1.0  0.63049  0.71747  0.14044  1.0000
  H   H1877     1.0  0.70173  0.73510  0.09745  1.0000
  H   H1878     1.0  0.62874  0.59554  0.00899  1.0000
  C   C1103     1.0  0.67598  0.75268  0.04958  1.0000
  H   H1879     1.0  0.64616  0.62378  0.06770  1.0000
  H   H1880     1.0  0.54545  0.57284  0.22546  1.0000
  C   C1104     1.0  0.60267  0.58014  0.21319  1.0000
  H   H1881     1.0  0.60865  0.56889  0.21561  1.0000
  H   H1882     1.0  0.78003  0.72328  0.41817  1.0000
  H   H1883     1.0  0.71348  0.55320  0.18638  1.0000
  H   H1884     1.0  0.96646  0.51697  0.15661  1.0000
  H   H1885     1.0  0.73579  0.61010  0.18281  1.0000
  H   H1886     1.0  0.93260  0.64363  0.37149  1.0000
  H   H1887     1.0  0.92536  0.66467  0.04909  1.0000
  H   H1888     1.0  0.64708  0.66755  0.40016  1.0000
  H   H1889     1.0  0.55801  0.72855  0.14282  1.0000
  H   H1890     1.0  0.96544  0.64609  0.05441  1.0000
  H   H1891     1.0  0.88384  0.52511  0.37619  1.0000
  H   H1892     1.0  0.66955  0.58795  0.08178  1.0000
  C   C1105     1.0  0.79296  0.70580  0.48054  1.0000
  H   H1893     1.0  0.59434  0.61325  0.40903  1.0000
  H   H1894     1.0  0.51857  0.62771  0.33163  1.0000
  C   C1106     1.0  0.50130  0.59853  0.34669  1.0000
  C   C1107     1.0  0.62849  0.58330  0.02411  1.0000
  H   H1895     1.0  0.60881  0.59011  0.22940  1.0000
  N   N76       1.0  0.75290  0.59393  0.19817  1.0000
  H   H1896     1.0  0.95986  0.69713  0.26993  1.0000
  H   H1897     1.0  0.95800  0.73404  0.31130  1.0000
  H   H1898     1.0  0.54611  0.71571  0.11403  1.0000
  H   H1899     1.0  0.56073  0.54718  0.28364  1.0000
  N   N77       1.0  0.65733  0.60376  0.05229  1.0000
  C   C1108     1.0  0.94029  0.65959  0.99993  1.0000
  H   H1900     1.0  0.53889  0.53138  0.24675  1.0000
  H   H1901     1.0  0.55979  0.60183  0.23621  1.0000
  H   H1902     1.0  0.85319  0.69195  0.00099  1.0000
  H   H1903     1.0  0.76739  0.68693  0.30456  1.0000
  C   C1109     1.0  0.53853  0.54308  0.23075  1.0000
  H   H1904     1.0  0.96969  0.75005  0.27936  1.0000
  H   H1905     1.0  0.67591  0.71590  0.04693  1.0000
  C   C1110     1.0  0.68984  0.72800  0.04163  1.0000
  C   C1111     1.0  0.93396  0.65571  0.05357  1.0000
  H   H1906     1.0  0.92615  0.50532  0.36304  1.0000
  H   H1907     1.0  0.63382  0.62514  0.02146  1.0000
  C   C1112     1.0  0.95552  0.74330  0.29273  1.0000
  H   H1908     1.0  0.96577  0.66675  0.47759  1.0000
  N   N78       1.0  0.60560  0.64374  0.39941  1.0000
  C   C1113     1.0  0.61166  0.64368  0.43082  1.0000
  C   C1114     1.0  0.62334  0.64712  0.37901  1.0000
  C   C1115     1.0  0.59041  0.62450  0.39693  1.0000
  C   C1116     1.0  0.59744  0.65893  0.39399  1.0000
  C   C1117     1.0  0.59519  0.63834  0.45578  1.0000
  C   C1118     1.0  0.64007  0.66639  0.37896  1.0000
  C   C1119     1.0  0.58652  0.61879  0.36546  1.0000
  C   C1120     1.0  0.59416  0.66465  0.36173  1.0000
  C   C1121     1.0  0.69267  0.73214  0.00748  1.0000
  H   H1909     1.0  0.62217  0.65781  0.43453  1.0000
  H   H1910     1.0  0.61990  0.64589  0.35560  1.0000
  H   H1911     1.0  0.93135  0.53066  0.39563  1.0000
  C   C1122     1.0  0.94075  0.65848  0.08509  1.0000
  H   H1912     1.0  0.57626  0.62303  0.40788  1.0000
  H   H1913     1.0  0.58312  0.65469  0.40672  1.0000
  H   H1914     1.0  0.60640  0.67205  0.40316  1.0000
  C   C1123     1.0  0.68915  0.73875  0.09094  1.0000
  H   H1915     1.0  0.50895  0.58493  0.19379  1.0000
  H   H1916     1.0  0.57641  0.55798  0.20601  1.0000
  H   H1917     1.0  0.92210  0.61854  0.37819  1.0000
  H   H1918     1.0  0.58368  0.62942  0.35035  1.0000
  H   H1919     1.0  0.63526  0.67830  0.37397  1.0000
  H   H1920     1.0  0.58455  0.60807  0.22091  1.0000
  H   H1921     1.0  0.51013  0.65154  0.30718  1.0000
  H   H1922     1.0  0.57343  0.60558  0.36691  1.0000
  H   H1923     1.0  0.57941  0.65604  0.35607  1.0000
  H   H1924     1.0  0.60492  0.66414  0.34479  1.0000
  H   H1925     1.0  0.59555  0.67962  0.35925  1.0000
  H   H1926     1.0  0.72950  0.59942  0.21982  1.0000
  H   H1927     1.0  0.95799  0.74171  0.23278  1.0000
  C   C1124     1.0  0.50420  0.56586  0.27694  1.0000
  H   H1928     1.0  0.94978  0.55617  0.28120  1.0000
  C   C1125     1.0  0.89591  0.64874  0.41629  1.0000
  H   H1929     1.0  0.91849  0.72438  0.31131  1.0000
  H   H1930     1.0  0.62922  0.63594  0.38460  1.0000
  H   H1931     1.0  0.94778  0.64865  0.09280  1.0000
  S   S329      1.0  0.90814  0.58195  0.48313  1.0000
  C   C1126     1.0  0.69108  0.61601  0.02321  1.0000
  H   H1932     1.0  0.57534  0.58025  0.19894  1.0000
  H   H1933     1.0  0.54800  0.74849  0.10440  1.0000
  C   C1127     1.0  0.94727  0.51619  0.45819  1.0000
  C   C1128     1.0  0.93172  0.66619  0.41269  1.0000
  H   H1934     1.0  0.74869  0.57075  0.17164  1.0000
  C   C1129     1.0  0.51700  0.59200  0.23743  1.0000
  C   C1130     1.0  0.50318  0.61922  0.33972  1.0000
  H   H1935     1.0  0.74415  0.63318  0.21858  1.0000
  H   H1936     1.0  0.77910  0.70623  0.32464  1.0000
  C   C1131     1.0  0.92959  0.70735  0.99405  1.0000
  C   C1132     1.0  0.94009  0.55279  0.30192  1.0000
  H   H1937     1.0  0.93302  0.73111  0.22824  1.0000
  C   C1133     1.0  0.90253  0.71607  0.27343  1.0000
  H   H1938     1.0  0.76342  0.56255  0.24765  1.0000
  H   H1939     1.0  0.88590  0.74308  0.01718  1.0000
  H   H1940     1.0  0.91860  0.60319  0.32514  1.0000
  H   H1941     1.0  0.69184  0.63073  0.01951  1.0000
  C   C1134     1.0  0.50791  0.57960  0.21699  1.0000
  N   N79       1.0  0.69092  0.74451  0.05790  1.0000
  C   C1135     1.0  0.84234  0.68700  0.48734  1.0000
  H   H1942     1.0  0.92892  0.64597  0.46659  1.0000
  C   C1136     1.0  0.92631  0.56359  0.29907  1.0000
  C   C1137     1.0  0.57170  0.52009  0.19692  1.0000
  C   C1138     1.0  0.98287  0.64382  0.10952  1.0000
  C   C1139     1.0  0.94354  0.74045  0.24213  1.0000
  H   H1943     1.0  0.61930  0.63378  0.43515  1.0000
  H   H1944     1.0  0.95005  0.60034  0.35683  1.0000
  C   C1140     1.0  0.49486  0.55349  0.25653  1.0000
  S   S330      1.0  0.63701  0.53568  0.02723  1.0000
  H   H1945     1.0  0.52300  0.59425  0.28309  1.0000
  C   C1141     1.0  0.65549  0.73872  0.04431  1.0000
  H   H1946     1.0  0.93511  0.57793  0.28821  1.0000
  H   H1947     1.0  0.66890  0.70883  0.09490  1.0000
  H   H1948     1.0  0.95993  0.58592  0.33985  1.0000
  C   C1142     1.0  0.64988  0.63006  0.02072  1.0000
  C   C1143     1.0  0.65644  0.62310  0.04984  1.0000
  C   C1144     1.0  0.72285  0.56291  0.20105  1.0000
  H   H1949     1.0  0.65540  0.62606  0.00061  1.0000
  C   C1145     1.0  0.94302  0.53119  0.38022  1.0000
  H   H1950     1.0  0.93037  0.70372  0.26032  1.0000
  H   H1951     1.0  0.67048  0.58726  0.03039  1.0000
  C   C1146     1.0  0.74215  0.60670  0.20333  1.0000
  H   H1952     1.0  0.74423  0.58003  0.24353  1.0000
  H   H1953     1.0  0.93316  0.56243  0.36341  1.0000
  H   H1954     1.0  0.84184  0.70243  0.02487  1.0000
  S   S331      1.0  0.61596  0.52629  0.25006  1.0000
  C   C1147     1.0  0.51564  0.58493  0.26733  1.0000
  H   H1955     1.0  0.92015  0.57723  0.36785  1.0000
  C   C1148     1.0  0.88785  0.66255  0.42877  1.0000
  H   H1956     1.0  0.56023  0.74208  0.07607  1.0000
  H   H1957     1.0  0.93197  0.53729  0.30468  1.0000
  C   C1149     1.0  0.74021  0.57807  0.18213  1.0000
  H   H1958     1.0  0.83584  0.68419  0.46596  1.0000
  H   H1959     1.0  0.79025  0.62208  0.47367  1.0000
  H   H1960     1.0  0.77635  0.66129  0.46135  1.0000
  H   H1961     1.0  0.76305  0.62431  0.15036  1.0000
  H   H1962     1.0  0.56683  0.58418  0.28152  1.0000
  H   H1963     1.0  0.57174  0.54127  0.25295  1.0000
  H   H1964     1.0  0.96444  0.71600  0.24114  1.0000
  N   N80       1.0  0.94967  0.65991  0.02884  1.0000
  H   H1965     1.0  0.92344  0.64088  0.05502  1.0000
  H   H1966     1.0  0.89654  0.54846  0.38485  1.0000
  C   C1150     1.0  0.91041  0.59450  0.30839  1.0000
  H   H1967     1.0  0.97254  0.55161  0.46664  1.0000
  H   H1968     1.0  0.65140  0.66788  0.36119  1.0000
  H   H1969     1.0  0.61310  0.57352  0.02868  1.0000
  N   N81       1.0  0.56988  0.56871  0.24559  1.0000
  Fe  Fe162     1.0  0.97514  0.72941  0.06935  1.0000
  H   H1970     1.0  0.94760  0.69618  0.41334  1.0000
  C   C1151     1.0  0.96068  0.71186  0.26534  1.0000
  H   H1971     1.0  0.90647  0.63102  0.37224  1.0000
  H   H1972     1.0  0.49836  0.65100  0.36003  1.0000
  H   H1973     1.0  0.95025  0.52948  0.44335  1.0000
  H   H1974     1.0  0.58752  0.64825  0.45448  1.0000
  C   C1152     1.0  0.96826  0.64298  0.45897  1.0000
  S   S332      1.0  0.97982  0.67420  0.13217  1.0000
  H   H1975     1.0  0.84483  0.59596  0.47565  1.0000
  C   C1153     1.0  0.55948  0.72737  0.11877  1.0000
  H   H1976     1.0  0.59768  0.74966  0.19899  1.0000
  C   C1154     1.0  0.98513  0.54732  0.46792  1.0000
  H   H1977     1.0  0.89102  0.56599  0.30496  1.0000
  H   H1978     1.0  0.65104  0.61233  0.11215  1.0000
  C   C1155     1.0  0.94718  0.59013  0.34027  1.0000
  N   N82       1.0  0.93996  0.73183  0.27413  1.0000
  H   H1979     1.0  0.51299  0.59809  0.36087  1.0000
  H   H1980     1.0  0.57179  0.72300  0.11392  1.0000
  H   H1981     1.0  0.62664  0.59241  0.06711  1.0000
  C   C1156     1.0  0.91508  0.64693  0.45998  1.0000
  C   C1157     1.0  0.75743  0.58661  0.22783  1.0000
  C   C1158     1.0  0.59010  0.52689  0.20805  1.0000
  C   C1159     1.0  0.54841  0.56261  0.24164  1.0000
  C   C1160     1.0  0.92836  0.57289  0.35097  1.0000
  H   H1982     1.0  0.66245  0.59772  0.12901  1.0000
  H   H1983     1.0  0.89260  0.67602  0.41388  1.0000
  H   H1984     1.0  0.91955  0.59715  0.28737  1.0000
  H   H1985     1.0  0.91600  0.55717  0.28239  1.0000
  H   H1986     1.0  0.65756  0.72557  0.10145  1.0000
  C   C1161     1.0  0.94079  0.71247  0.27499  1.0000
  H   H1987     1.0  0.56990  0.52509  0.17453  1.0000
  S   S333      1.0  0.87464  0.66696  0.00905  1.0000
  H   H1988     1.0  0.60819  0.58859  0.19117  1.0000
  H   H1989     1.0  0.89850  0.59947  0.30339  1.0000
  H   H1990     1.0  0.86746  0.70907  0.02401  1.0000
  S   S334      1.0  0.94913  0.57438  0.47915  1.0000
  C   C1162     1.0  0.56131  0.74562  0.09917  1.0000
  C   C1163     1.0  0.97653  0.63710  0.43572  1.0000
  C   C1164     1.0  0.97612  0.54641  0.35885  1.0000
  C   C1165     1.0  0.98379  0.67542  0.43637  1.0000
  H   H1991     1.0  0.87644  0.54351  0.36158  1.0000
  C   C1166     1.0  0.85504  0.70531  0.00996  1.0000
  H   H1992     1.0  0.98491  0.53259  0.32513  1.0000
  H   H1993     1.0  0.60153  0.63911  0.47761  1.0000
  H   H1994     1.0  0.58779  0.74349  0.05763  1.0000
  C   C1167     1.0  0.49441  0.64374  0.31399  1.0000
  Fe  Fe163     1.0  0.98687  0.74149  0.13064  1.0000
  H   H1995     1.0  0.94049  0.75250  0.32705  1.0000
  H   H1996     1.0  0.68906  0.71870  0.99765  1.0000
  H   H1997     1.0  0.82086  0.64392  0.47359  1.0000
  H   H1998     1.0  0.94711  0.63056  0.03645  1.0000
  H   H1999     1.0  0.97656  0.52756  0.41834  1.0000
  C   C1168     1.0  0.95837  0.64510  0.03323  1.0000
  H   H2000     1.0  0.69840  0.61355  0.00315  1.0000
  H   H2001     1.0  0.98661  0.69016  0.43680  1.0000
  H   H2002     1.0  0.98699  0.53097  0.11020  1.0000
  H   H2003     1.0  0.59904  0.74883  0.11344  1.0000
  C   C1169     1.0  0.60097  0.75362  0.06564  1.0000
  C   C1170     1.0  0.48949  0.65202  0.34139  1.0000
  H   H2004     1.0  0.49300  0.66732  0.33523  1.0000
  Fe  Fe164     1.0  0.98638  0.70434  0.11468  1.0000
  C   C1171     1.0  0.77758  0.67292  0.47372  1.0000
  H   H2005     1.0  0.92295  0.51990  0.48083  1.0000
  H   H2006     1.0  0.61806  0.51551  0.13320  1.0000
  H   H2007     1.0  0.97509  0.63181  0.01047  1.0000
  H   H2008     1.0  0.88387  0.63002  0.47193  1.0000
  H   H2009     1.0  0.80825  0.65891  0.47435  1.0000
  C   C1172     1.0  0.89829  0.63001  0.47712  1.0000
  C   C1173     1.0  0.93622  0.51747  0.48683  1.0000
  C   C1174     1.0  0.49405  0.61635  0.28890  1.0000
  H   H2010     1.0  0.61678  0.51329  0.18697  1.0000
  N   N83       1.0  0.48976  0.62276  0.31789  1.0000
  N   N84       1.0  0.96559  0.51246  0.46214  1.0000
  H   H2011     1.0  0.98207  0.50584  0.16960  1.0000
  H   H2012     1.0  0.85794  0.69587  0.48182  1.0000
  C   C1175     1.0  0.61921  0.75315  0.16330  1.0000
  C   C1176     1.0  0.55566  0.50658  0.21427  1.0000
  H   H2013     1.0  0.64808  0.51041  0.20609  1.0000
  C   C1177     1.0  0.92376  0.64091  0.99560  1.0000
  H   H2014     1.0  0.49840  0.63975  0.25390  1.0000
  H   H2015     1.0  0.85670  0.73350  0.99630  1.0000
  H   H2016     1.0  0.91107  0.74850  0.00829  1.0000
  C   C1178     1.0  0.64273  0.50745  0.18392  1.0000
  C   C1179     1.0  0.57664  0.50651  0.25395  1.0000
  H   H2017     1.0  0.92849  0.62882  0.99772  1.0000
  C   C1180     1.0  0.48838  0.62489  0.26029  1.0000
  H   H2018     1.0  0.72236  0.75364  0.05284  1.0000
  Fe  Fe165     1.0  0.90911  0.55700  0.74360  1.0000
  S   S335      1.0  0.92197  0.56502  0.69637  1.0000
  Fe  Fe166     1.0  0.89358  0.58870  0.74271  1.0000
  S   S336      1.0  0.90561  0.59914  0.69537  1.0000
  S   S337      1.0  0.87929  0.60712  0.76186  1.0000
  Fe  Fe167     1.0  0.89423  0.56886  0.68719  1.0000
  S   S338      1.0  0.87882  0.56386  0.64509  1.0000
  Fe  Fe168     1.0  0.93210  0.59442  0.70851  1.0000
  S   S339      1.0  0.96123  0.61567  0.68988  1.0000
  S   S340      1.0  0.88012  0.55842  0.73376  1.0000
  S   S341      1.0  0.92123  0.58640  0.75649  1.0000
  S   S342      1.0  0.91191  0.53817  0.53341  1.0000
  Fe  Fe169     1.0  0.84032  0.66829  0.91318  1.0000
  S   S343      1.0  0.83079  0.66375  0.96158  1.0000
  S   S344      1.0  0.83747  0.69188  0.88240  1.0000
  Fe  Fe170     1.0  0.85108  0.63386  0.91651  1.0000
  S   S345      1.0  0.84194  0.62679  0.96548  1.0000
  S   S346      1.0  0.86261  0.61319  0.89822  1.0000
  Fe  Fe171     1.0  0.81588  0.63343  0.95427  1.0000
  C   C1181     1.0  0.85687  0.72128  0.98523  1.0000
  Fe  Fe172     1.0  0.85782  0.65773  0.96840  1.0000
  H   H2019     1.0  0.96594  0.56734  0.68487  1.0000
  S   S347      1.0  0.82377  0.63830  0.90523  1.0000
  S   S348      1.0  0.86858  0.66445  0.92010  1.0000
  Fe  Fe173     1.0  0.75138  0.72640  0.88982  1.0000
  S   S349      1.0  0.74728  0.71676  0.84465  1.0000
  H   H2020     1.0  0.64920  0.70395  0.52932  1.0000
  C   C1182     1.0  0.79103  0.65311  0.55133  1.0000
  S   S350      1.0  0.70783  0.72675  0.84670  1.0000
  Fe  Fe174     1.0  0.71602  0.70236  0.86139  1.0000
  S   S351      1.0  0.70109  0.67380  0.84666  1.0000
  Fe  Fe175     1.0  0.73951  0.74191  0.83279  1.0000
  S   S352      1.0  0.72048  0.70983  0.90761  1.0000
  H   H2021     1.0  0.98481  0.66024  0.79722  1.0000
  S   S353      1.0  0.65749  0.53489  0.94187  1.0000
  Fe  Fe176     1.0  0.65105  0.58242  0.93983  1.0000
  S   S354      1.0  0.66130  0.57315  0.89950  1.0000
  S   S355      1.0  0.64679  0.60957  0.94343  1.0000
  Fe  Fe177     1.0  0.63766  0.54481  0.91408  1.0000
  S   S356      1.0  0.62076  0.52900  0.87706  1.0000
  Fe  Fe178     1.0  0.68027  0.56420  0.92971  1.0000
  S   S357      1.0  0.71141  0.57183  0.91107  1.0000
  S   S358      1.0  0.62624  0.55492  0.95263  1.0000
  S   S359      1.0  0.67188  0.57592  0.96887  1.0000
  Fe  Fe179     1.0  0.75002  0.71848  0.63513  1.0000
  S   S360      1.0  0.76700  0.72232  0.67612  1.0000
  Fe  Fe180     1.0  0.70951  0.69941  0.61613  1.0000
  S   S361      1.0  0.71833  0.70896  0.56779  1.0000
  S   S362      1.0  0.67901  0.68380  0.63602  1.0000
  Fe  Fe181     1.0  0.74409  0.70099  0.57602  1.0000
  S   S363      1.0  0.75026  0.68053  0.54768  1.0000
  S   S364      1.0  0.73362  0.68930  0.62381  1.0000
  Fe  Fe182     1.0  0.55263  0.62745  0.58469  1.0000
  S   S365      1.0  0.56582  0.61878  0.54643  1.0000
  S   S366      1.0  0.53739  0.60914  0.62819  1.0000
  Fe  Fe183     1.0  0.56974  0.66970  0.55731  1.0000
  H   H2022     1.0  0.93853  0.50750  0.69599  1.0000
  S   S367      1.0  0.57540  0.69849  0.57301  1.0000
  Fe  Fe184     1.0  0.55607  0.63842  0.51710  1.0000
  Fe  Fe185     1.0  0.59231  0.64454  0.54904  1.0000
  S   S368      1.0  0.62202  0.64355  0.54266  1.0000
  S   S369      1.0  0.54087  0.64561  0.55548  1.0000
  S   S370      1.0  0.58007  0.65202  0.58938  1.0000
  C   C1183     1.0  0.73981  0.74442  0.73275  1.0000
  C   C1184     1.0  0.95394  0.62516  0.60925  1.0000
  H   H2023     1.0  0.60519  0.51699  0.82241  1.0000
  H   H2024     1.0  0.90775  0.64284  0.78243  1.0000
  H   H2025     1.0  0.85719  0.70564  0.93602  1.0000
  C   C1185     1.0  0.56130  0.51957  0.83954  1.0000
  S   S371      1.0  0.52291  0.52353  0.67544  1.0000
  H   H2026     1.0  0.65632  0.74633  0.58805  1.0000
  C   C1186     1.0  0.53312  0.58519  0.64065  1.0000
  C   C1187     1.0  0.53524  0.57279  0.62149  1.0000
  C   C1188     1.0  0.53191  0.55397  0.63253  1.0000
  C   C1189     1.0  0.52653  0.54730  0.66281  1.0000
  C   C1190     1.0  0.52432  0.55966  0.68195  1.0000
  C   C1191     1.0  0.52753  0.57846  0.67088  1.0000
  H   H2027     1.0  0.53929  0.57767  0.59814  1.0000
  H   H2028     1.0  0.53356  0.54450  0.61748  1.0000
  H   H2029     1.0  0.52017  0.55477  0.70528  1.0000
  H   H2030     1.0  0.52579  0.58792  0.68588  1.0000
  C   C1192     1.0  0.66346  0.67192  0.61040  1.0000
  C   C1193     1.0  0.67072  0.66850  0.58366  1.0000
  C   C1194     1.0  0.65792  0.65957  0.56298  1.0000
  C   C1195     1.0  0.63790  0.65427  0.56892  1.0000
  C   C1196     1.0  0.63074  0.65743  0.59590  1.0000
  C   C1197     1.0  0.64345  0.66613  0.61667  1.0000
  H   H2031     1.0  0.68617  0.67253  0.57900  1.0000
  H   H2032     1.0  0.66357  0.65693  0.54231  1.0000
  H   H2033     1.0  0.61542  0.65305  0.60102  1.0000
  H   H2034     1.0  0.63778  0.66869  0.63740  1.0000
  C   C1198     1.0  0.58937  0.72120  0.55430  1.0000
  C   C1199     1.0  0.59793  0.73610  0.57121  1.0000
  C   C1200     1.0  0.75122  0.74686  0.75704  1.0000
  H   H2035     1.0  0.59643  0.73331  0.59518  1.0000
  C   C1201     1.0  0.59761  0.52539  0.86351  1.0000
  C   C1202     1.0  0.59394  0.51933  0.83527  1.0000
  H   H2036     1.0  0.55081  0.74560  0.61701  1.0000
  H   H2037     1.0  0.97442  0.57563  0.76451  1.0000
  C   C1203     1.0  0.89278  0.73145  0.97751  1.0000
  C   C1204     1.0  0.58290  0.52839  0.87980  1.0000
  H   H2038     1.0  0.78371  0.66251  0.55809  1.0000
  C   C1205     1.0  0.64961  0.73793  0.53178  1.0000
  C   C1206     1.0  0.97370  0.61382  0.74565  1.0000
  H   H2039     1.0  0.59456  0.59920  0.56084  1.0000
  H   H2040     1.0  0.79825  0.54548  0.93688  1.0000
  C   C1207     1.0  0.77459  0.55549  0.86940  1.0000
  H   H2041     1.0  0.91198  0.66456  0.75919  1.0000
  C   C1208     1.0  0.74424  0.73648  0.70819  1.0000
  H   H2042     1.0  0.95907  0.58978  0.64694  1.0000
  H   H2043     1.0  0.73511  0.73430  0.68996  1.0000
  H   H2044     1.0  0.87196  0.69852  0.95933  1.0000
  C   C1209     1.0  0.68514  0.65643  0.87325  1.0000
  C   C1210     1.0  0.67955  0.66087  0.90035  1.0000
  C   C1211     1.0  0.66744  0.64644  0.92176  1.0000
  C   C1212     1.0  0.66126  0.62761  0.91622  1.0000
  C   C1213     1.0  0.66665  0.62329  0.88892  1.0000
  C   C1214     1.0  0.67841  0.63768  0.86735  1.0000
  H   H2045     1.0  0.68449  0.67540  0.90477  1.0000
  H   H2046     1.0  0.66311  0.64986  0.94275  1.0000
  H   H2047     1.0  0.66166  0.60890  0.88423  1.0000
  H   H2048     1.0  0.68270  0.63424  0.84637  1.0000
  C   C1215     1.0  0.76507  0.60494  0.95795  1.0000
  C   C1216     1.0  0.76681  0.60206  0.92822  1.0000
  C   C1217     1.0  0.75024  0.59184  0.91421  1.0000
  C   C1218     1.0  0.73175  0.58469  0.92960  1.0000
  C   C1219     1.0  0.72996  0.58788  0.95916  1.0000
  C   C1220     1.0  0.74658  0.59785  0.97330  1.0000
  H   H2049     1.0  0.78091  0.60775  0.91604  1.0000
  H   H2050     1.0  0.75168  0.58960  0.89124  1.0000
  H   H2051     1.0  0.71584  0.58235  0.97129  1.0000
  C   C1221     1.0  0.80254  0.53492  0.89699  1.0000
  C   C1222     1.0  0.81948  0.70037  0.89297  1.0000
  C   C1223     1.0  0.81027  0.70744  0.87118  1.0000
  C   C1224     1.0  0.79588  0.71425  0.87931  1.0000
  C   C1225     1.0  0.79107  0.71450  0.90930  1.0000
  C   C1226     1.0  0.80063  0.70784  0.93100  1.0000
  C   C1227     1.0  0.81451  0.70051  0.92291  1.0000
  H   H2052     1.0  0.81415  0.70752  0.84795  1.0000
  H   H2053     1.0  0.78947  0.62048  0.51244  1.0000
  H   H2054     1.0  0.79698  0.70804  0.95422  1.0000
  H   H2055     1.0  0.82152  0.69523  0.93988  1.0000
  C   C1228     1.0  0.92857  0.52040  0.72987  1.0000
  H   H2056     1.0  0.81328  0.56686  0.85676  1.0000
  C   C1229     1.0  0.76609  0.68516  0.51524  1.0000
  C   C1230     1.0  0.84059  0.66863  0.50654  1.0000
  C   C1231     1.0  0.59149  0.72496  0.52331  1.0000
  H   H2057     1.0  0.78444  0.73009  0.73110  1.0000
  H   H2058     1.0  0.96793  0.69505  0.98649  1.0000
  H   H2059     1.0  0.91836  0.59668  0.57029  1.0000
  H   H2060     1.0  0.56795  0.55071  0.65955  1.0000
  C   C1232     1.0  0.64913  0.73109  0.58562  1.0000
  H   H2061     1.0  0.84881  0.66217  0.49333  1.0000
  S   S372      1.0  0.53831  0.51632  0.82573  1.0000
  C   C1233     1.0  0.87458  0.60839  0.79992  1.0000
  C   C1234     1.0  0.87772  0.59628  0.82234  1.0000
  C   C1235     1.0  0.87420  0.59810  0.85234  1.0000
  C   C1236     1.0  0.86752  0.61201  0.86019  1.0000
  C   C1237     1.0  0.86439  0.62412  0.83779  1.0000
  C   C1238     1.0  0.86783  0.62225  0.80779  1.0000
  H   H2062     1.0  0.88288  0.58554  0.81655  1.0000
  H   H2063     1.0  0.87663  0.58865  0.86956  1.0000
  H   H2064     1.0  0.85920  0.63485  0.84355  1.0000
  H   H2065     1.0  0.86534  0.63166  0.79056  1.0000
  C   C1239     1.0  0.88834  0.55655  0.61464  1.0000
  C   C1240     1.0  0.89918  0.54514  0.61833  1.0000
  C   C1241     1.0  0.90632  0.53948  0.59330  1.0000
  C   C1242     1.0  0.90294  0.54546  0.56455  1.0000
  C   C1243     1.0  0.89218  0.55692  0.56100  1.0000
  C   C1244     1.0  0.88473  0.56225  0.58594  1.0000
  H   H2066     1.0  0.90181  0.54047  0.64041  1.0000
  H   H2067     1.0  0.91447  0.53045  0.59625  1.0000
  H   H2068     1.0  0.88899  0.56115  0.53911  1.0000
  H   H2069     1.0  0.87610  0.57083  0.58299  1.0000
  H   H2070     1.0  0.92808  0.61327  0.82890  1.0000
  H   H2071     1.0  0.58528  0.53266  0.90177  1.0000
  H   H2072     1.0  0.94856  0.56826  0.63052  1.0000
  C   C1245     1.0  0.98481  0.56146  0.71614  1.0000
  C   C1246     1.0  0.62449  0.69697  0.56018  1.0000
  H   H2073     1.0  0.97236  0.60902  0.57391  1.0000
  C   C1247     1.0  0.78013  0.70306  0.50575  1.0000
  H   H2074     1.0  0.57557  0.56017  0.62202  1.0000
  C   C1248     1.0  0.87172  0.71097  0.94486  1.0000
  H   H2075     1.0  0.77562  0.64090  0.92641  1.0000
  H   H2076     1.0  0.89451  0.72976  0.90988  1.0000
  H   H2077     1.0  0.81088  0.53882  0.87502  1.0000
  C   C1249     1.0  0.78241  0.56397  0.89804  1.0000
  H   H2078     1.0  0.72962  0.66348  0.96207  1.0000
  H   H2079     1.0  0.65348  0.69798  0.56592  1.0000
  Fe  Fe186     1.0  0.51273  0.50670  0.72160  1.0000
  C   C1250     1.0  0.88739  0.71479  0.91905  1.0000
  H   H2080     1.0  0.57361  0.51236  0.80128  1.0000
  H   H2081     1.0  0.91108  0.66379  0.79833  1.0000
  C   C1251     1.0  0.92670  0.60962  0.58036  1.0000
  H   H2082     1.0  0.77327  0.55419  0.91732  1.0000
  H   H2083     1.0  0.92066  0.52620  0.71502  1.0000
  C   C1252     1.0  0.98635  0.62084  0.76746  1.0000
  S   S373      1.0  0.78553  0.61733  0.97671  1.0000
  H   H2084     1.0  0.78319  0.54867  0.85832  1.0000
  H   H2085     1.0  0.84756  0.63536  0.51751  1.0000
  C   C1253     1.0  0.77187  0.73393  0.73157  1.0000
  C   C1254     1.0  0.95050  0.59155  0.54906  1.0000
  H   H2086     1.0  0.55366  0.52783  0.88072  1.0000
  H   H2087     1.0  0.62045  0.69633  0.58414  1.0000
  H   H2088     1.0  0.89936  0.63083  0.50130  1.0000
  H   H2089     1.0  0.97975  0.64189  0.62947  1.0000
  C   C1255     1.0  0.98177  0.67054  0.78133  1.0000
  H   H2090     1.0  0.96040  0.60191  0.75170  1.0000
  N   N85       1.0  0.80367  0.56864  0.90206  1.0000
  C   C1256     1.0  0.81011  0.58325  0.92344  1.0000
  C   C1257     1.0  0.81646  0.57683  0.87357  1.0000
  C   C1258     1.0  0.80716  0.55157  0.91548  1.0000
  C   C1259     1.0  0.79962  0.57753  0.95494  1.0000
  C   C1260     1.0  0.81567  0.59529  0.85818  1.0000
  H   H2091     1.0  0.82594  0.58760  0.92607  1.0000
  H   H2092     1.0  0.80799  0.59630  0.91481  1.0000
  H   H2093     1.0  0.83190  0.57966  0.87766  1.0000
  H   H2094     1.0  0.82262  0.55567  0.92071  1.0000
  H   H2095     1.0  0.72745  0.74859  0.73308  1.0000
  S   S374      1.0  0.58388  0.66366  0.51694  1.0000
  H   H2096     1.0  0.84310  0.71643  0.97411  1.0000
  H   H2097     1.0  0.82267  0.59809  0.83523  1.0000
  H   H2098     1.0  0.82407  0.60749  0.86966  1.0000
  N   N86       1.0  0.71128  0.68326  0.75077  1.0000
  C   C1261     1.0  0.70054  0.69649  0.74659  1.0000
  C   C1262     1.0  0.71794  0.68061  0.72034  1.0000
  C   C1263     1.0  0.72854  0.69233  0.76822  1.0000
  C   C1264     1.0  0.69739  0.66501  0.76748  1.0000
  C   C1265     1.0  0.69637  0.70476  0.77460  1.0000
  C   C1266     1.0  0.70173  0.67186  0.69992  1.0000
  C   C1267     1.0  0.74603  0.68634  0.76465  1.0000
  C   C1268     1.0  0.70503  0.64912  0.77414  1.0000
  H   H2099     1.0  0.70867  0.70872  0.72973  1.0000
  H   H2100     1.0  0.68623  0.68941  0.73773  1.0000
  H   H2101     1.0  0.72663  0.67163  0.72140  1.0000
  H   H2102     1.0  0.72794  0.69441  0.70845  1.0000
  H   H2103     1.0  0.73472  0.70780  0.76181  1.0000
  H   H2104     1.0  0.72406  0.69034  0.79234  1.0000
  H   H2105     1.0  0.69238  0.66747  0.78938  1.0000
  H   H2106     1.0  0.68358  0.65929  0.75667  1.0000
  H   H2107     1.0  0.68765  0.71341  0.76879  1.0000
  H   H2108     1.0  0.68790  0.69374  0.79280  1.0000
  H   H2109     1.0  0.70985  0.71438  0.78295  1.0000
  H   H2110     1.0  0.70838  0.67035  0.67852  1.0000
  H   H2111     1.0  0.69169  0.65754  0.70929  1.0000
  H   H2112     1.0  0.69354  0.68102  0.69450  1.0000
  H   H2113     1.0  0.75356  0.69123  0.74203  1.0000
  H   H2114     1.0  0.74221  0.67102  0.76985  1.0000
  H   H2115     1.0  0.75679  0.69336  0.78029  1.0000
  H   H2116     1.0  0.71276  0.65083  0.79478  1.0000
  H   H2117     1.0  0.71448  0.64803  0.75566  1.0000
  H   H2118     1.0  0.69259  0.63534  0.77727  1.0000
  N   N87       1.0  0.60630  0.58737  0.85763  1.0000
  C   C1269     1.0  0.61112  0.57646  0.83470  1.0000
  C   C1270     1.0  0.58482  0.58319  0.85772  1.0000
  C   C1271     1.0  0.61106  0.58054  0.88761  1.0000
  C   C1272     1.0  0.61848  0.60798  0.84900  1.0000
  C   C1273     1.0  0.63174  0.57618  0.83388  1.0000
  C   C1274     1.0  0.57768  0.58873  0.82815  1.0000
  C   C1275     1.0  0.59979  0.58284  0.91526  1.0000
  C   C1276     1.0  0.61510  0.62210  0.86816  1.0000
  H   H2119     1.0  0.60078  0.56149  0.83789  1.0000
  H   H2120     1.0  0.60952  0.58213  0.81189  1.0000
  H   H2121     1.0  0.57981  0.59017  0.87463  1.0000
  H   H2122     1.0  0.57645  0.56780  0.86418  1.0000
  H   H2123     1.0  0.60831  0.56521  0.88933  1.0000
  H   H2124     1.0  0.62680  0.58759  0.89057  1.0000
  H   H2125     1.0  0.63413  0.61051  0.85003  1.0000
  H   H2126     1.0  0.61754  0.61263  0.82532  1.0000
  H   H2127     1.0  0.63442  0.56942  0.85497  1.0000
  H   H2128     1.0  0.63322  0.56748  0.81651  1.0000
  H   H2129     1.0  0.64320  0.59041  0.82821  1.0000
  H   H2130     1.0  0.58531  0.60389  0.81996  1.0000
  H   H2131     1.0  0.57883  0.57987  0.81087  1.0000
  H   H2132     1.0  0.56201  0.58616  0.83177  1.0000
  H   H2133     1.0  0.58449  0.57269  0.91734  1.0000
  H   H2134     1.0  0.60024  0.59731  0.91568  1.0000
  H   H2135     1.0  0.60639  0.57960  0.93550  1.0000
  H   H2136     1.0  0.62349  0.62338  0.88811  1.0000
  H   H2137     1.0  0.59966  0.61874  0.87489  1.0000
  H   H2138     1.0  0.62003  0.63619  0.85484  1.0000
  C   C1277     1.0  0.97822  0.62244  0.71635  1.0000
  H   H2139     1.0  0.97033  0.55146  0.77157  1.0000
  H   H2140     1.0  0.96211  0.59288  0.53192  1.0000
  H   H2141     1.0  0.80067  0.59473  0.85664  1.0000
  C   C1278     1.0  0.57598  0.51656  0.82327  1.0000
  H   H2142     1.0  0.96149  0.62154  0.55137  1.0000
  H   H2143     1.0  0.80677  0.52392  0.90901  1.0000
  C   C1279     1.0  0.64659  0.70633  0.55261  1.0000
  H   H2144     1.0  0.96727  0.58742  0.61016  1.0000
  H   H2145     1.0  0.61654  0.70404  0.54672  1.0000
  C   C1280     1.0  0.68690  0.73069  0.52514  1.0000
  H   H2146     1.0  0.80360  0.56674  0.96799  1.0000
  H   H2147     1.0  0.84884  0.67291  0.52633  1.0000
  H   H2148     1.0  0.94610  0.62314  0.63150  1.0000
  H   H2149     1.0  0.98761  0.53230  0.77991  1.0000
  H   H2150     1.0  0.78896  0.66410  0.90728  1.0000
  H   H2151     1.0  0.93068  0.62144  0.56197  1.0000
  H   H2152     1.0  0.81917  0.67489  0.54553  1.0000
  H   H2153     1.0  0.90676  0.60101  0.62125  1.0000
  N   N88       1.0  0.74675  0.65535  0.90886  1.0000
  C   C1281     1.0  0.76149  0.66126  0.93159  1.0000
  C   C1282     1.0  0.73287  0.66519  0.91319  1.0000
  C   C1283     1.0  0.75748  0.66186  0.87842  1.0000
  C   C1284     1.0  0.73696  0.63413  0.91399  1.0000
  H   H2154     1.0  0.71140  0.64422  0.94658  1.0000
  C   C1285     1.0  0.72057  0.65949  0.94318  1.0000
  C   C1286     1.0  0.74555  0.66349  0.85202  1.0000
  C   C1287     1.0  0.71901  0.62476  0.89695  1.0000
  H   H2155     1.0  0.75485  0.65495  0.95441  1.0000
  H   H2156     1.0  0.58487  0.71365  0.51004  1.0000
  H   H2157     1.0  0.72248  0.66299  0.89586  1.0000
  H   H2158     1.0  0.74095  0.68078  0.91066  1.0000
  H   H2159     1.0  0.76902  0.67618  0.87800  1.0000
  H   H2160     1.0  0.76513  0.65245  0.87295  1.0000
  H   H2161     1.0  0.74735  0.62754  0.90807  1.0000
  H   H2162     1.0  0.73280  0.62893  0.93800  1.0000
  H   H2163     1.0  0.76692  0.67679  0.93206  1.0000
  H   H2164     1.0  0.80525  0.67417  0.51457  1.0000
  H   H2165     1.0  0.93799  0.51692  0.80233  1.0000
  H   H2166     1.0  0.71059  0.66722  0.94328  1.0000
  S   S375      1.0  0.74640  0.75330  0.87690  1.0000
  Fe  Fe187     1.0  0.64785  0.54758  0.97933  1.0000
  H   H2167     1.0  0.73258  0.65065  0.85086  1.0000
  H   H2168     1.0  0.75480  0.66612  0.83103  1.0000
  H   H2169     1.0  0.74121  0.67577  0.85254  1.0000
  H   H2170     1.0  0.72321  0.62047  0.87594  1.0000
  H   H2171     1.0  0.71040  0.63350  0.89222  1.0000
  H   H2172     1.0  0.70888  0.61186  0.91081  1.0000
  H   H2173     1.0  0.58937  0.63171  0.67591  1.0000
  H   H2174     1.0  0.80759  0.62929  0.54766  1.0000
  H   H2175     1.0  0.75977  0.54456  0.87492  1.0000
  H   H2176     1.0  0.91820  0.62627  0.61136  1.0000
  Fe  Fe188     1.0  0.71507  0.73598  0.89185  1.0000
  C   C1288     1.0  0.95807  0.60844  0.56707  1.0000
  H   H2177     1.0  0.89881  0.70964  0.92620  1.0000
  C   C1289     1.0  0.60148  0.74356  0.50951  1.0000
  H   H2178     1.0  0.57314  0.60776  0.67768  1.0000
  C   C1290     1.0  0.67738  0.73280  0.55461  1.0000
  H   H2179     1.0  0.77917  0.57697  0.89791  1.0000
  H   H2180     1.0  0.77272  0.56637  0.85321  1.0000
  C   C1291     1.0  0.97566  0.63084  0.61421  1.0000
  H   H2181     1.0  0.93959  0.71533  0.97524  1.0000
  H   H2182     1.0  0.57554  0.60283  0.61139  1.0000
  C   C1292     1.0  0.56493  0.52555  0.86783  1.0000
  H   H2183     1.0  0.84433  0.73531  0.93248  1.0000
  H   H2184     1.0  0.59798  0.58144  0.58479  1.0000
  H   H2185     1.0  0.89917  0.61228  0.59096  1.0000
  H   H2186     1.0  0.59904  0.61771  0.59755  1.0000
  Fe  Fe189     1.0  0.73600  0.73660  0.58316  1.0000
  H   H2187     1.0  0.78675  0.52820  0.89470  1.0000
  N   N89       1.0  0.65569  0.72702  0.55618  1.0000
  H   H2188     1.0  0.78125  0.71473  0.51805  1.0000
  N   N90       1.0  0.87410  0.72707  0.96271  1.0000
  H   H2189     1.0  0.86047  0.73241  0.90418  1.0000
  C   C1293     1.0  0.76717  0.74141  0.75650  1.0000
  H   H2190     1.0  0.64213  0.71807  0.63167  1.0000
  H   H2191     1.0  0.77618  0.74342  0.77500  1.0000
  N   N91       1.0  0.94677  0.65005  0.77008  1.0000
  C   C1294     1.0  0.96777  0.66059  0.75862  1.0000
  C   C1295     1.0  0.93661  0.63919  0.74564  1.0000
  C   C1296     1.0  0.94630  0.63636  0.79656  1.0000
  C   C1297     1.0  0.93846  0.66416  0.77873  1.0000
  H   H2192     1.0  0.68168  0.72442  0.57241  1.0000
  C   C1298     1.0  0.93771  0.65112  0.71581  1.0000
  C   C1299     1.0  0.92621  0.62335  0.81120  1.0000
  C   C1300     1.0  0.91614  0.65816  0.77946  1.0000
  H   H2193     1.0  0.97379  0.65098  0.74899  1.0000
  H   H2194     1.0  0.96917  0.67172  0.74010  1.0000
  H   H2195     1.0  0.92107  0.63083  0.75196  1.0000
  H   H2196     1.0  0.94275  0.62848  0.74101  1.0000
  H   H2197     1.0  0.95397  0.62712  0.79039  1.0000
  H   H2198     1.0  0.95408  0.64391  0.81473  1.0000
  H   H2199     1.0  0.94294  0.66841  0.80090  1.0000
  H   H2200     1.0  0.94456  0.67736  0.76293  1.0000
  H   H2201     1.0  0.61938  0.68222  0.55490  1.0000
  C   C1301     1.0  0.93816  0.51496  0.77907  1.0000
  H   H2202     1.0  0.97094  0.64907  0.98663  1.0000
  H   H2203     1.0  0.93406  0.66359  0.71858  1.0000
  H   H2204     1.0  0.95226  0.65560  0.70376  1.0000
  H   H2205     1.0  0.92714  0.64232  0.70143  1.0000
  H   H2206     1.0  0.91686  0.61468  0.79553  1.0000
  H   H2207     1.0  0.91878  0.63134  0.82229  1.0000
  C   C1302     1.0  0.76050  0.73155  0.70721  1.0000
  C   C1303     1.0  0.85914  0.74140  0.92115  1.0000
  H   H2208     1.0  0.82985  0.64539  0.55668  1.0000
  H   H2209     1.0  0.66791  0.72905  0.62099  1.0000
  H   H2210     1.0  0.62887  0.61457  0.59017  1.0000
  H   H2211     1.0  0.90740  0.69135  0.96694  1.0000
  S   S376      1.0  0.91490  0.53525  0.77470  1.0000
  H   H2212     1.0  0.78874  0.71956  0.86240  1.0000
  C   C1304     1.0  0.91210  0.61249  0.60257  1.0000
  S   S377      1.0  0.76275  0.72964  0.58791  1.0000
  S   S378      1.0  0.72502  0.72768  0.63093  1.0000
  H   H2213     1.0  0.95277  0.63795  0.59707  1.0000
  C   C1305     1.0  0.92817  0.52289  0.75996  1.0000
  S   S379      1.0  0.50439  0.51759  0.76191  1.0000
  H   H2214     1.0  0.88053  0.70731  0.90021  1.0000
  C   C1306     1.0  0.82190  0.63930  0.53748  1.0000
  H   H2215     1.0  0.98417  0.58826  0.69439  1.0000
  H   H2216     1.0  0.78035  0.64215  0.54017  1.0000
  H   H2217     1.0  0.79455  0.64665  0.57213  1.0000
  H   H2218     1.0  0.78833  0.65979  0.94668  1.0000
  H   H2219     1.0  0.90540  0.73604  0.96064  1.0000
  H   H2220     1.0  0.75401  0.65626  0.50619  1.0000
  H   H2221     1.0  0.97282  0.52443  0.50350  1.0000
  H   H2222     1.0  0.93118  0.50428  0.50235  1.0000
  H   H2223     1.0  0.91906  0.64211  0.97280  1.0000
  C   C1307     1.0  0.95445  0.58391  0.62592  1.0000
  H   H2224     1.0  0.63886  0.62431  0.62347  1.0000
  C   C1308     1.0  0.83203  0.62716  0.52455  1.0000
  H   H2225     1.0  0.63340  0.72868  0.58711  1.0000
  H   H2226     1.0  0.94478  0.52954  0.49846  1.0000
  H   H2227     1.0  0.93776  0.59140  0.53709  1.0000
  C   C1309     1.0  0.77950  0.65611  0.92740  1.0000
  H   H2228     1.0  0.92978  0.59099  0.63385  1.0000
  H   H2229     1.0  0.82457  0.62013  0.50580  1.0000
  N   N92       1.0  0.59797  0.59814  0.63607  1.0000
  H   H2230     1.0  0.56852  0.58213  0.65471  1.0000
  H   H2231     1.0  0.92823  0.57824  0.60374  1.0000
  C   C1310     1.0  0.93845  0.59018  0.61391  1.0000
  H   H2232     1.0  0.63379  0.73474  0.53488  1.0000
  H   H2233     1.0  0.55110  0.75213  0.57852  1.0000
  H   H2234     1.0  0.78364  0.57279  0.95467  1.0000
  N   N93       1.0  0.82020  0.65472  0.51593  1.0000
  C   C1311     1.0  0.98205  0.56576  0.76855  1.0000
  H   H2235     1.0  0.94696  0.57782  0.56289  1.0000
  S   S380      1.0  0.77313  0.72275  0.92084  1.0000
  C   C1312     1.0  0.80950  0.66507  0.53115  1.0000
  H   H2236     1.0  0.88927  0.75181  0.93063  1.0000
  N   N94       1.0  0.94467  0.60820  0.59299  1.0000
  H   H2237     1.0  0.98253  0.61452  0.79032  1.0000
  C   C1313     1.0  0.65355  0.72062  0.61350  1.0000
  C   C1314     1.0  0.58300  0.58108  0.65432  1.0000
  H   H2238     1.0  0.58654  0.58042  0.67793  1.0000
  C   C1315     1.0  0.58920  0.59021  0.58249  1.0000
  H   H2239     1.0  0.57787  0.62368  0.64359  1.0000
  C   C1316     1.0  0.58441  0.61942  0.66311  1.0000
  H   H2240     1.0  0.61492  0.58228  0.62127  1.0000
  H   H2241     1.0  0.59285  0.55777  0.64789  1.0000
  C   C1317     1.0  0.87490  0.74449  0.94335  1.0000
  C   C1318     1.0  0.60203  0.61458  0.65393  1.0000
  H   H2242     1.0  0.60876  0.61219  0.67467  1.0000
  H   H2243     1.0  0.61269  0.62773  0.64148  1.0000
  H   H2244     1.0  0.57389  0.58080  0.58076  1.0000
  H   H2245     1.0  0.65175  0.73349  0.50976  1.0000
  C   C1319     1.0  0.59040  0.60291  0.60729  1.0000
  H   H2246     1.0  0.62235  0.59284  0.65348  1.0000
  H   H2247     1.0  0.64574  0.60693  0.60879  1.0000
  C   C1320     1.0  0.61679  0.59520  0.63162  1.0000
  C   C1321     1.0  0.63328  0.61133  0.61242  1.0000
  C   C1322     1.0  0.58001  0.56156  0.64486  1.0000
  H   H2248     1.0  0.68411  0.73909  0.50591  1.0000
  H   H2249     1.0  0.97916  0.61905  0.62469  1.0000
  C   C1323     1.0  0.97410  0.57388  0.70347  1.0000
  H   H2250     1.0  0.97344  0.54709  0.72197  1.0000
  H   H2251     1.0  0.70288  0.73608  0.52641  1.0000
  H   H2252     1.0  0.77888  0.63525  0.49251  1.0000
  H   H2253     1.0  0.95092  0.66298  0.98044  1.0000
  H   H2254     1.0  0.80436  0.59006  0.96723  1.0000
  H   H2255     1.0  0.68228  0.71570  0.52125  1.0000
  H   H2256     1.0  0.97643  0.67969  0.79347  1.0000
  H   H2257     1.0  0.96327  0.57477  0.72007  1.0000
  C   C1324     1.0  0.79126  0.63054  0.49247  1.0000
  H   H2258     1.0  0.97894  0.56719  0.81587  1.0000
  C   C1325     1.0  0.76487  0.67015  0.49903  1.0000
  H   H2259     1.0  0.83591  0.69557  0.49904  1.0000
  C   C1326     1.0  0.94847  0.50461  0.76822  1.0000
  H   H2260     1.0  0.83153  0.61578  0.54201  1.0000
  H   H2261     1.0  0.70784  0.75253  0.61000  1.0000
  S   S381      1.0  0.69260  0.74344  0.91788  1.0000
  H   H2262     1.0  0.68447  0.74764  0.55896  1.0000
  H   H2263     1.0  0.65345  0.70657  0.61019  1.0000
  H   H2264     1.0  0.98489  0.63709  0.59315  1.0000
  C   C1327     1.0  0.93860  0.50969  0.71916  1.0000
  H   H2265     1.0  0.98716  0.52799  0.74132  1.0000
  H   H2266     1.0  0.89319  0.71859  0.99039  1.0000
  C   C1328     1.0  0.91132  0.69383  0.98925  1.0000
  H   H2267     1.0  0.98400  0.68226  0.99029  1.0000
  H   H2268     1.0  0.60825  0.78756  0.13578  1.0000
  H   H2269     1.0  0.68198  0.95034  0.47332  1.0000
  S   S382      1.0  0.50027  0.99753  0.28012  1.0000
  H   H2270     1.0  0.94750  0.76851  0.29322  1.0000
  C   C1329     1.0  0.58934  0.97940  0.34003  1.0000
  H   H2271     1.0  0.68860  0.98285  0.35961  1.0000
  H   H2272     1.0  0.66436  0.83027  0.47049  1.0000
  H   H2273     1.0  0.61047  0.77225  0.09827  1.0000
  H   H2274     1.0  0.75609  0.90483  0.17812  1.0000
  Fe  Fe190     1.0  0.52043  0.96816  0.23212  1.0000
  S   S383      1.0  0.53175  0.94806  0.21070  1.0000
  H   H2275     1.0  0.56631  0.99139  0.11104  1.0000
  S   S384      1.0  0.51114  0.96030  0.28097  1.0000
  H   H2276     1.0  0.63505  0.98314  0.38865  1.0000
  Fe  Fe191     1.0  0.65366  0.78620  0.09198  1.0000
  S   S385      1.0  0.65052  0.78691  0.04280  1.0000
  Fe  Fe192     1.0  0.67406  0.82970  0.08652  1.0000
  S   S386      1.0  0.67295  0.83299  0.03710  1.0000
  S   S387      1.0  0.68324  0.85475  0.11321  1.0000
  Fe  Fe193     1.0  0.64238  0.81200  0.04706  1.0000
  S   S388      1.0  0.61811  0.81694  0.02368  1.0000
  Fe  Fe194     1.0  0.68125  0.80759  0.03746  1.0000
  C   C1330     1.0  0.62353  0.99182  0.09743  1.0000
  S   S389      1.0  0.64294  0.80963  0.09652  1.0000
  S   S390      1.0  0.68498  0.80602  0.08657  1.0000
  H   H2277     1.0  0.62509  0.83219  0.46282  1.0000
  H   H2278     1.0  0.67946  0.86615  0.37574  1.0000
  Fe  Fe195     1.0  0.73837  0.96484  0.07469  1.0000
  S   S391      1.0  0.72689  0.96887  0.11872  1.0000
  S   S392      1.0  0.73915  0.93780  0.05991  1.0000
  Fe  Fe196     1.0  0.71489  0.98746  0.09174  1.0000
  S   S393      1.0  0.68439  0.98359  0.10602  1.0000
  H   H2279     1.0  0.67054  0.98376  0.40590  1.0000
  H   H2280     1.0  0.74266  0.92991  0.99864  1.0000
  S   S394      1.0  0.72412  0.98129  0.04768  1.0000
  H   H2281     1.0  0.60753  0.76621  0.04887  1.0000
  Fe  Fe197     1.0  0.57474  0.89091  0.05226  1.0000
  N   N95       1.0  0.60213  0.98411  0.09303  1.0000
  S   S395      1.0  0.57916  0.86751  0.08139  1.0000
  Fe  Fe198     1.0  0.55867  0.92223  0.05239  1.0000
  H   H2282     1.0  0.96527  0.76736  0.31792  1.0000
  S   S396      1.0  0.54232  0.93828  0.07394  1.0000
  H   H2283     1.0  0.66667  0.97895  0.00364  1.0000
  C   C1331     1.0  0.62221  0.98668  0.39338  1.0000
  Fe  Fe199     1.0  0.59829  0.92963  0.02110  1.0000
  H   H2284     1.0  0.72736  0.95440  0.00247  1.0000
  S   S397      1.0  0.54629  0.89255  0.04023  1.0000
  S   S398      1.0  0.58580  0.91955  0.06811  1.0000
  Fe  Fe200     1.0  0.72633  0.96393  0.38100  1.0000
  S   S399      1.0  0.72056  0.96544  0.33280  1.0000
  S   S400      1.0  0.70330  0.94382  0.41642  1.0000
  C   C1332     1.0  0.63608  0.89924  0.00873  1.0000
  Fe  Fe201     1.0  0.75274  0.97445  0.32332  1.0000
  S   S401      1.0  0.76030  0.96132  0.28450  1.0000
  H   H2285     1.0  0.62238  0.98974  0.41682  1.0000
  S   S402      1.0  0.75832  0.97073  0.37195  1.0000
  H   H2286     1.0  0.55576  0.76832  0.05268  1.0000
  H   H2287     1.0  0.62608  0.85541  0.45221  1.0000
  H   H2288     1.0  0.71479  0.98024  0.27298  1.0000
  C   C1333     1.0  0.76226  0.97391  0.24912  1.0000
  C   C1334     1.0  0.74901  0.96625  0.22819  1.0000
  C   C1335     1.0  0.75134  0.97568  0.19921  1.0000
  H   H2289     1.0  0.73939  0.99008  0.48323  1.0000
  C   C1336     1.0  0.78090  0.94462  0.13011  1.0000
  H   H2290     1.0  0.73685  0.95310  0.23458  1.0000
  H   H2291     1.0  0.74075  0.97004  0.18355  1.0000
  C   C1337     1.0  0.66898  0.97434  0.07854  1.0000
  C   C1338     1.0  0.67481  0.98097  0.04860  1.0000
  C   C1339     1.0  0.66225  0.97360  0.02678  1.0000
  C   C1340     1.0  0.64393  0.95945  0.03482  1.0000
  C   C1341     1.0  0.63834  0.95254  0.06476  1.0000
  C   C1342     1.0  0.65074  0.96014  0.08662  1.0000
  H   H2292     1.0  0.62300  0.88738  0.01913  1.0000
  H   H2293     1.0  0.70038  0.99197  0.25625  1.0000
  H   H2294     1.0  0.62451  0.94133  0.07115  1.0000
  H   H2295     1.0  0.64631  0.95484  0.10978  1.0000
  C   C1343     1.0  0.69842  0.87777  0.09760  1.0000
  C   C1344     1.0  0.69857  0.89327  0.11179  1.0000
  C   C1345     1.0  0.71041  0.91181  0.09986  1.0000
  C   C1346     1.0  0.72279  0.91494  0.07431  1.0000
  C   C1347     1.0  0.72266  0.89946  0.06016  1.0000
  C   C1348     1.0  0.71033  0.88097  0.07150  1.0000
  H   H2296     1.0  0.68929  0.89089  0.13191  1.0000
  H   H2297     1.0  0.71016  0.92364  0.11065  1.0000
  H   H2298     1.0  0.73222  0.90170  0.04043  1.0000
  H   H2299     1.0  0.71036  0.86915  0.06043  1.0000
  C   C1349     1.0  0.58955  0.85326  0.06502  1.0000
  C   C1350     1.0  0.59018  0.85250  0.03440  1.0000
  C   C1351     1.0  0.59891  0.84127  0.02189  1.0000
  C   C1352     1.0  0.60758  0.83121  0.03983  1.0000
  C   C1353     1.0  0.60712  0.83216  0.07043  1.0000
  C   C1354     1.0  0.59774  0.84279  0.08303  1.0000
  H   H2300     1.0  0.58371  0.86041  0.02059  1.0000
  H   H2301     1.0  0.68731  0.99132  0.45266  1.0000
  H   H2302     1.0  0.61364  0.82445  0.08453  1.0000
  H   H2303     1.0  0.59713  0.84320  0.10679  1.0000
  C   C1355     1.0  0.53497  0.94594  0.17247  1.0000
  C   C1356     1.0  0.52945  0.95641  0.15027  1.0000
  C   C1357     1.0  0.53158  0.95370  0.12028  1.0000
  C   C1358     1.0  0.53952  0.94072  0.11209  1.0000
  C   C1359     1.0  0.54520  0.93035  0.13426  1.0000
  C   C1360     1.0  0.54284  0.93291  0.16429  1.0000
  H   H2304     1.0  0.52342  0.96652  0.15622  1.0000
  H   H2305     1.0  0.52715  0.96180  0.10328  1.0000
  H   H2306     1.0  0.55129  0.92029  0.12830  1.0000
  H   H2307     1.0  0.54710  0.92469  0.18132  1.0000
  C   C1361     1.0  0.71581  0.91448  0.43237  1.0000
  C   C1362     1.0  0.70146  0.92192  0.43589  1.0000
  H   H2308     1.0  0.65974  0.79914  0.42982  1.0000
  H   H2309     1.0  0.65911  0.92368  0.01782  1.0000
  H   H2310     1.0  0.70300  0.87042  0.38795  1.0000
  C   C1363     1.0  0.77785  0.99100  0.24089  1.0000
  C   C1364     1.0  0.76467  0.91349  0.15775  1.0000
  C   C1365     1.0  0.59310  0.78612  0.14079  1.0000
  H   H2311     1.0  0.59141  0.78705  0.16493  1.0000
  S   S403      1.0  0.64540  0.75639  0.11575  1.0000
  H   H2312     1.0  0.49901  0.91115  0.19598  1.0000
  H   H2313     1.0  0.72848  0.92207  0.41717  1.0000
  S   S404      1.0  0.58925  0.90088  0.00630  1.0000
  H   H2314     1.0  0.59072  0.79832  0.12903  1.0000
  H   H2315     1.0  0.68884  0.99207  0.04229  1.0000
  H   H2316     1.0  0.79183  0.94485  0.18246  1.0000
  S   S405      1.0  0.73087  0.99437  0.38235  1.0000
  C   C1366     1.0  0.57918  0.77968  0.08203  1.0000
  H   H2317     1.0  0.64572  0.89402  0.99621  1.0000
  H   H2318     1.0  0.66723  0.96317  0.48372  1.0000
  C   C1367     1.0  0.68512  0.91184  0.45589  1.0000
  H   H2319     1.0  0.69089  0.94367  0.07602  1.0000
  H   H2320     1.0  0.95501  0.77082  0.24577  1.0000
  H   H2321     1.0  0.69319  0.93003  0.04754  1.0000
  C   C1368     1.0  0.57830  0.76700  0.13390  1.0000
  C   C1369     1.0  0.78045  0.00014  0.21182  1.0000
  H   H2322     1.0  0.63721  0.91879  0.03996  1.0000
  S   S406      1.0  0.98250  0.75704  0.16855  1.0000
  H   H2323     1.0  0.79403  0.94093  0.12966  1.0000
  H   H2324     1.0  0.65453  0.81719  0.39282  1.0000
  N   N96       1.0  0.70960  0.98773  0.47933  1.0000
  H   H2325     1.0  0.59406  0.79080  0.07853  1.0000
  H   H2326     1.0  0.77480  0.95580  0.18592  1.0000
  C   C1370     1.0  0.59170  0.97241  0.12171  1.0000
  H   H2327     1.0  0.68254  0.81481  0.44186  1.0000
  H   H2328     1.0  0.61244  0.98446  0.30739  1.0000
  C   C1371     1.0  0.61119  0.98461  0.33183  1.0000
  H   H2329     1.0  0.70115  0.98025  0.43540  1.0000
  H   H2330     1.0  0.63109  0.90767  0.99208  1.0000
  C   C1372     1.0  0.95178  0.75880  0.30823  1.0000
  C   C1373     1.0  0.72250  0.96055  0.48682  1.0000
  H   H2331     1.0  0.57439  0.79022  0.03812  1.0000
  H   H2332     1.0  0.68121  0.76254  0.02881  1.0000
  H   H2333     1.0  0.58060  0.75604  0.14943  1.0000
  C   C1374     1.0  0.68734  0.99590  0.36424  1.0000
  H   H2334     1.0  0.56621  0.98231  0.07590  1.0000
  Fe  Fe202     1.0  0.56192  0.90487  0.99490  1.0000
  H   H2335     1.0  0.59912  0.84047  0.99826  1.0000
  H   H2336     1.0  0.60876  0.97424  0.39191  1.0000
  H   H2337     1.0  0.49526  0.88942  0.15365  1.0000
  H   H2338     1.0  0.62322  0.76820  0.15877  1.0000
  H   H2339     1.0  0.66403  0.79868  0.46806  1.0000
  H   H2340     1.0  0.78823  0.99692  0.25678  1.0000
  C   C1375     1.0  0.68313  0.89457  0.47224  1.0000
  H   H2341     1.0  0.76711  0.95575  0.00076  1.0000
  H   H2342     1.0  0.50238  0.91441  0.14469  1.0000
  C   C1376     1.0  0.76806  0.92987  0.21438  1.0000
  N   N97       1.0  0.65425  0.90309  0.05664  1.0000
  C   C1377     1.0  0.66515  0.91838  0.07512  1.0000
  C   C1378     1.0  0.63707  0.88922  0.07617  1.0000
  C   C1379     1.0  0.64699  0.91215  0.03129  1.0000
  C   C1380     1.0  0.66781  0.89426  0.04536  1.0000
  C   C1381     1.0  0.68289  0.93488  0.05916  1.0000
  C   C1382     1.0  0.64197  0.87998  0.10487  1.0000
  H   H2343     1.0  0.62108  0.83921  0.42521  1.0000
  C   C1383     1.0  0.65854  0.87373  0.03784  1.0000
  H   H2344     1.0  0.65525  0.92452  0.08496  1.0000
  H   H2345     1.0  0.67088  0.91249  0.09424  1.0000
  H   H2346     1.0  0.62804  0.87768  0.06417  1.0000
  H   H2347     1.0  0.62702  0.89612  0.08290  1.0000
  C   C1384     1.0  0.49034  0.90134  0.15463  1.0000
  C   C1385     1.0  0.69747  0.88711  0.46868  1.0000
  S   S407      1.0  0.70519  0.80521  0.00724  1.0000
  H   H2348     1.0  0.67801  0.89388  0.06232  1.0000
  H   H2349     1.0  0.67854  0.94434  0.04357  1.0000
  H   H2350     1.0  0.79369  0.98286  0.01046  1.0000
  H   H2351     1.0  0.70510  0.78315  0.06627  1.0000
  H   H2352     1.0  0.62897  0.86765  0.11444  1.0000
  H   H2353     1.0  0.65383  0.87486  0.10098  1.0000
  H   H2354     1.0  0.64583  0.88983  0.12197  1.0000
  H   H2355     1.0  0.73535  0.95740  0.48004  1.0000
  H   H2356     1.0  0.49306  0.93842  0.18932  1.0000
  H   H2357     1.0  0.79787  0.97203  0.14562  1.0000
  C   C1386     1.0  0.72594  0.98092  0.47402  1.0000
  H   H2358     1.0  0.64364  0.86941  0.03079  1.0000
  S   S408      1.0  0.62849  0.95068  0.00698  1.0000
  N   N98       1.0  0.65937  0.83715  0.42490  1.0000
  C   C1387     1.0  0.65753  0.82294  0.45146  1.0000
  C   C1388     1.0  0.65174  0.85131  0.43542  1.0000
  C   C1389     1.0  0.68067  0.84659  0.41439  1.0000
  C   C1390     1.0  0.64783  0.82667  0.40122  1.0000
  C   C1391     1.0  0.66659  0.80821  0.44697  1.0000
  C   C1392     1.0  0.62974  0.84381  0.44434  1.0000
  C   C1393     1.0  0.68745  0.86608  0.39568  1.0000
  C   C1394     1.0  0.64553  0.83862  0.37339  1.0000
  H   H2359     1.0  0.56993  0.78630  0.09254  1.0000
  H   H2360     1.0  0.64208  0.81469  0.45931  1.0000
  Fe  Fe203     1.0  0.52722  0.99100  0.28617  1.0000
  H   H2361     1.0  0.64295  0.99374  0.28903  1.0000
  H   H2362     1.0  0.58636  0.98399  0.36133  1.0000
  H   H2363     1.0  0.57585  0.96603  0.11967  1.0000
  H   H2364     1.0  0.71002  0.95007  0.47798  1.0000
  H   H2365     1.0  0.63310  0.81675  0.41049  1.0000
  C   C1395     1.0  0.71379  0.89718  0.44866  1.0000
  C   C1396     1.0  0.59852  0.98143  0.03653  1.0000
  C   C1397     1.0  0.59780  0.97175  0.06826  1.0000
  H   H2366     1.0  0.79708  0.97254  0.10640  1.0000
  H   H2367     1.0  0.70967  0.97759  0.23544  1.0000
  Fe  Fe204     1.0  0.76247  0.00158  0.37066  1.0000
  H   H2368     1.0  0.58175  0.96383  0.34300  1.0000
  S   S409      1.0  0.69532  0.86493  0.48745  1.0000
  H   H2369     1.0  0.67703  0.90312  0.02542  1.0000
  H   H2370     1.0  0.65726  0.84097  0.35581  1.0000
  H   H2371     1.0  0.64510  0.85235  0.37768  1.0000
  C   C1398     1.0  0.59764  0.95580  0.13258  1.0000
  H   H2372     1.0  0.77908  0.91224  0.15891  1.0000
  C   C1399     1.0  0.71632  0.77695  0.06683  1.0000
  H   H2373     1.0  0.75804  0.97141  0.01630  1.0000
  H   H2374     1.0  0.61537  0.97276  0.34076  1.0000
  C   C1400     1.0  0.74816  0.93657  0.15261  1.0000
  H   H2375     1.0  0.61185  0.99401  0.03006  1.0000
  C   C1401     1.0  0.75490  0.90334  0.13153  1.0000
  H   H2376     1.0  0.68534  0.83733  0.40122  1.0000
  C   C1402     1.0  0.73056  0.92472  0.17462  1.0000
  H   H2377     1.0  0.57910  0.76921  0.03808  1.0000
  H   H2378     1.0  0.77419  0.94079  0.10897  1.0000
  C   C1403     1.0  0.71290  0.98781  0.25199  1.0000
  H   H2379     1.0  0.56340  0.99750  0.38180  1.0000
  H   H2380     1.0  0.71263  0.76523  0.02588  1.0000
  H   H2381     1.0  0.68667  0.87710  0.40914  1.0000
  H   H2382     1.0  0.75021  0.95147  0.15398  1.0000
  H   H2383     1.0  0.74363  0.93442  0.12973  1.0000
  H   H2384     1.0  0.77631  0.97158  0.12828  1.0000
  H   H2385     1.0  0.77467  0.93851  0.23228  1.0000
  H   H2386     1.0  0.67048  0.88700  0.48749  1.0000
  H   H2387     1.0  0.76332  0.90974  0.10992  1.0000
  H   H2388     1.0  0.75385  0.88848  0.13484  1.0000
  H   H2389     1.0  0.73987  0.90281  0.13038  1.0000
  H   H2390     1.0  0.94553  0.76453  0.21137  1.0000
  C   C1404     1.0  0.67734  0.99647  0.39059  1.0000
  C   C1405     1.0  0.57167  0.77633  0.05107  1.0000
  H   H2391     1.0  0.72955  0.93254  0.19346  1.0000
  H   H2392     1.0  0.73033  0.91072  0.18325  1.0000
  H   H2393     1.0  0.71705  0.92171  0.16307  1.0000
  C   C1406     1.0  0.71090  0.75957  0.04977  1.0000
  H   H2394     1.0  0.65465  0.86363  0.41854  1.0000
  C   C1407     1.0  0.78829  0.96637  0.12786  1.0000
  H   H2395     1.0  0.58313  0.96034  0.07237  1.0000
  N   N99       1.0  0.76698  0.93387  0.15671  1.0000
  C   C1408     1.0  0.77597  0.94193  0.18411  1.0000
  H   H2396     1.0  0.77229  0.91744  0.21684  1.0000
  C   C1409     1.0  0.76498  0.96922  0.99556  1.0000
  S   S410      1.0  0.49331  0.97315  0.22213  1.0000
  H   H2397     1.0  0.75223  0.92535  0.21879  1.0000
  S   S411      1.0  0.76635  0.98988  0.07370  1.0000
  S   S412      1.0  0.54512  0.99513  0.32718  1.0000
  N   N100      1.0  0.62462  0.00325  0.34014  1.0000
  H   H2398     1.0  0.65947  0.85745  0.45474  1.0000
  H   H2399     1.0  0.66895  0.95798  0.44652  1.0000
  H   H2400     1.0  0.65899  0.86358  0.05670  1.0000
  H   H2401     1.0  0.72497  0.89154  0.44569  1.0000
  H   H2402     1.0  0.59780  0.94695  0.11483  1.0000
  H   H2403     1.0  0.68976  0.84881  0.43365  1.0000
  H   H2404     1.0  0.58570  0.98525  0.03342  1.0000
  H   H2405     1.0  0.59814  0.97136  0.02044  1.0000
  H   H2406     1.0  0.72998  0.98209  0.44983  1.0000
  H   H2407     1.0  0.60787  0.96417  0.06744  1.0000
  H   H2408     1.0  0.61191  0.96072  0.14217  1.0000
  C   C1410     1.0  0.57318  0.99465  0.08797  1.0000
  Fe  Fe205     1.0  0.75355  0.99522  0.11592  1.0000
  H   H2409     1.0  0.49383  0.91391  0.24369  1.0000
  H   H2410     1.0  0.63137  0.83101  0.36455  1.0000
  H   H2411     1.0  0.67389  0.91741  0.45872  1.0000
  H   H2412     1.0  0.73141  0.00076  0.18541  1.0000
  H   H2413     1.0  0.58271  0.98556  0.32242  1.0000
  H   H2414     1.0  0.72993  0.78803  0.05598  1.0000
  S   S413      1.0  0.57211  0.93458  0.00594  1.0000
  H   H2415     1.0  0.62875  0.98025  0.10308  1.0000
  S   S414      1.0  0.53804  0.99844  0.23760  1.0000
  H   H2416     1.0  0.71908  0.77362  0.09012  1.0000
  H   H2417     1.0  0.58689  0.94658  0.15070  1.0000
  C   C1411     1.0  0.59755  0.75939  0.09622  1.0000
  C   C1412     1.0  0.76737  0.99247  0.19078  1.0000
  Fe  Fe206     1.0  0.72798  0.99621  0.33363  1.0000
  H   H2418     1.0  0.59350  0.98139  0.14007  1.0000
  N   N101      1.0  0.57916  0.76280  0.10215  1.0000
  C   C1413     1.0  0.67735  0.96200  0.46614  1.0000
  C   C1414     1.0  0.59539  0.00030  0.08790  1.0000
  H   H2419     1.0  0.63803  0.99539  0.05300  1.0000
  C   C1415     1.0  0.69443  0.98102  0.45731  1.0000
  H   H2420     1.0  0.64859  0.99380  0.34272  1.0000
  H   H2421     1.0  0.56365  0.76669  0.14087  1.0000
  H   H2422     1.0  0.70756  0.99808  0.19828  1.0000
  H   H2423     1.0  0.66757  0.87190  0.01928  1.0000
  H   H2424     1.0  0.62640  0.00022  0.11660  1.0000
  H   H2425     1.0  0.67423  0.76157  0.06652  1.0000
  H   H2426     1.0  0.92888  0.76068  0.24287  1.0000
  C   C1416     1.0  0.94308  0.76025  0.23575  1.0000
  H   H2427     1.0  0.74305  0.99955  0.23614  1.0000
  Fe  Fe207     1.0  0.50990  0.00280  0.23144  1.0000
  H   H2428     1.0  0.72130  0.95256  0.96583  1.0000
  H   H2429     1.0  0.55817  0.93587  0.66564  1.0000
  H   H2430     1.0  0.53182  0.92642  0.67383  1.0000
  Fe  Fe208     1.0  0.64007  0.83664  0.57209  1.0000
  S   S415      1.0  0.64033  0.83541  0.52263  1.0000
  S   S416      1.0  0.61970  0.85001  0.58905  1.0000
  Fe  Fe209     1.0  0.66900  0.81738  0.57846  1.0000
  S   S417      1.0  0.67157  0.81518  0.52995  1.0000
  S   S418      1.0  0.68239  0.80257  0.61086  1.0000
  Fe  Fe210     1.0  0.67266  0.84504  0.52334  1.0000
  H   H2431     1.0  0.65393  0.76581  0.51014  1.0000
  Fe  Fe211     1.0  0.63922  0.80584  0.53344  1.0000
  H   H2432     1.0  0.58426  0.79047  0.52396  1.0000
  S   S419      1.0  0.67267  0.84803  0.57226  1.0000
  S   S420      1.0  0.63643  0.80631  0.58252  1.0000
  H   H2433     1.0  0.61234  0.95753  0.79111  1.0000
  H   H2434     1.0  0.72085  0.95846  0.51141  1.0000
  H   H2435     1.0  0.78141  0.80125  0.71208  1.0000
  C   C1417     1.0  0.54613  0.93162  0.68321  1.0000
  Fe  Fe212     1.0  0.58227  0.87745  0.73480  1.0000
  S   S421      1.0  0.60362  0.90451  0.74737  1.0000
  S   S422      1.0  0.59436  0.85573  0.72221  1.0000
  Fe  Fe213     1.0  0.54858  0.89035  0.74449  1.0000
  S   S423      1.0  0.56734  0.91823  0.75765  1.0000
  S   S424      1.0  0.51765  0.88522  0.73547  1.0000
  Fe  Fe214     1.0  0.58746  0.91855  0.71979  1.0000
  S   S425      1.0  0.60007  0.94455  0.68703  1.0000
  Fe  Fe215     1.0  0.58163  0.90180  0.78466  1.0000
  S   S426      1.0  0.59461  0.91161  0.82745  1.0000
  S   S427      1.0  0.56784  0.89188  0.70428  1.0000
  S   S428      1.0  0.56119  0.87337  0.77455  1.0000
  C   C1418     1.0  0.58088  0.90895  0.86133  1.0000
  C   C1419     1.0  0.59065  0.91542  0.88637  1.0000
  C   C1420     1.0  0.58044  0.91213  0.91439  1.0000
  C   C1421     1.0  0.56033  0.90233  0.91756  1.0000
  C   C1422     1.0  0.55048  0.89643  0.89231  1.0000
  C   C1423     1.0  0.56070  0.89971  0.86428  1.0000
  H   H2436     1.0  0.60627  0.92259  0.88425  1.0000
  H   H2437     1.0  0.58817  0.91677  0.93364  1.0000
  H   H2438     1.0  0.53492  0.88887  0.89458  1.0000
  H   H2439     1.0  0.55302  0.89467  0.84515  1.0000
  C   C1424     1.0  0.61958  0.96163  0.70096  1.0000
  C   C1425     1.0  0.62638  0.95747  0.72796  1.0000
  C   C1426     1.0  0.64170  0.97135  0.73937  1.0000
  H   H2440     1.0  0.67054  0.78046  0.98214  1.0000
  C   C1427     1.0  0.62838  0.97955  0.68501  1.0000
  H   H2441     1.0  0.61963  0.94373  0.74045  1.0000
  H   H2442     1.0  0.62333  0.98276  0.66391  1.0000
  C   C1428     1.0  0.50920  0.90284  0.74393  1.0000
  C   C1429     1.0  0.51388  0.91138  0.76990  1.0000
  H   H2443     1.0  0.59147  0.96067  0.75701  1.0000
  H   H2444     1.0  0.52314  0.90744  0.78468  1.0000
  H   H2445     1.0  0.56614  0.80673  0.91367  1.0000
  H   H2446     1.0  0.54645  0.80084  0.63408  1.0000
  H   H2447     1.0  0.54632  0.93727  0.82485  1.0000
  C   C1430     1.0  0.64983  0.98955  0.72419  1.0000
  C   C1431     1.0  0.61239  0.85075  0.62631  1.0000
  C   C1432     1.0  0.61894  0.84262  0.65035  1.0000
  C   C1433     1.0  0.61295  0.84390  0.67962  1.0000
  C   C1434     1.0  0.60058  0.85348  0.68511  1.0000
  C   C1435     1.0  0.59378  0.86131  0.66101  1.0000
  C   C1436     1.0  0.59966  0.85993  0.63179  1.0000
  H   H2448     1.0  0.62875  0.83550  0.64645  1.0000
  H   H2449     1.0  0.61821  0.83772  0.69814  1.0000
  H   H2450     1.0  0.58402  0.86847  0.66490  1.0000
  H   H2451     1.0  0.59439  0.86613  0.61333  1.0000
  C   C1437     1.0  0.48917  0.92112  0.73235  1.0000
  H   H2452     1.0  0.50849  0.93001  0.79845  1.0000
  S   S429      1.0  0.54731  0.89564  0.95292  1.0000
  C   C1438     1.0  0.73631  0.98931  0.94179  1.0000
  C   C1439     1.0  0.64347  0.99354  0.69670  1.0000
  H   H2453     1.0  0.61508  0.76578  0.57071  1.0000
  C   C1440     1.0  0.69605  0.79102  0.59485  1.0000
  C   C1441     1.0  0.70749  0.79875  0.56813  1.0000
  C   C1442     1.0  0.71957  0.79014  0.55705  1.0000
  N   N102      1.0  0.75210  0.96822  0.97029  1.0000
  H   H2454     1.0  0.56490  0.98266  0.72018  1.0000
  C   C1443     1.0  0.69629  0.77433  0.60992  1.0000
  H   H2455     1.0  0.70756  0.81174  0.55652  1.0000
  H   H2456     1.0  0.72875  0.79645  0.53675  1.0000
  C   C1444     1.0  0.68067  0.76484  0.95295  1.0000
  C   C1445     1.0  0.76179  0.82372  0.61217  1.0000
  H   H2457     1.0  0.72986  0.79416  0.69805  1.0000
  H   H2458     1.0  0.60784  0.87840  0.96626  1.0000
  C   C1446     1.0  0.60230  0.87148  0.94633  1.0000
  H   H2459     1.0  0.54692  0.91933  0.69727  1.0000
  H   H2460     1.0  0.55075  0.96089  0.81012  1.0000
  C   C1447     1.0  0.56813  0.85251  0.86946  1.0000
  H   H2461     1.0  0.53766  0.94943  0.63553  1.0000
  H   H2462     1.0  0.64668  0.96823  0.76057  1.0000
  H   H2463     1.0  0.66626  0.75654  0.94726  1.0000
  C   C1448     1.0  0.76926  0.79235  0.70010  1.0000
  H   H2464     1.0  0.60240  0.77646  0.61454  1.0000
  H   H2465     1.0  0.55021  0.99252  0.70088  1.0000
  N   N103      1.0  0.64385  0.91298  0.66135  1.0000
  C   C1449     1.0  0.64398  0.89667  0.64558  1.0000
  C   C1450     1.0  0.62300  0.91030  0.66884  1.0000
  C   C1451     1.0  0.65384  0.91377  0.68972  1.0000
  C   C1452     1.0  0.65446  0.93107  0.64134  1.0000
  C   C1453     1.0  0.66403  0.89591  0.63810  1.0000
  C   C1454     1.0  0.61178  0.91371  0.64246  1.0000
  C   C1455     1.0  0.64665  0.89532  0.71125  1.0000
  C   C1456     1.0  0.65524  0.94935  0.65365  1.0000
  H   H2466     1.0  0.63497  0.88306  0.65875  1.0000
  H   H2467     1.0  0.63716  0.89655  0.62420  1.0000
  H   H2468     1.0  0.62178  0.91943  0.68566  1.0000
  H   H2469     1.0  0.61458  0.89577  0.67972  1.0000
  H   H2470     1.0  0.66979  0.91821  0.68505  1.0000
  H   H2471     1.0  0.65209  0.92481  0.70241  1.0000
  H   H2472     1.0  0.66987  0.93299  0.63653  1.0000
  H   H2473     1.0  0.64875  0.93067  0.61900  1.0000
  H   H2474     1.0  0.66182  0.88263  0.62833  1.0000
  H   H2475     1.0  0.67296  0.90763  0.62114  1.0000
  H   H2476     1.0  0.67212  0.89563  0.65797  1.0000
  H   H2477     1.0  0.61741  0.92879  0.63310  1.0000
  H   H2478     1.0  0.61177  0.90477  0.62478  1.0000
  H   H2479     1.0  0.59640  0.91005  0.65048  1.0000
  H   H2480     1.0  0.64994  0.88392  0.70201  1.0000
  H   H2481     1.0  0.63091  0.89024  0.71769  1.0000
  H   H2482     1.0  0.65416  0.89793  0.73198  1.0000
  H   H2483     1.0  0.66834  0.95529  0.66596  1.0000
  H   H2484     1.0  0.64242  0.94738  0.66857  1.0000
  H   H2485     1.0  0.65546  0.95997  0.63507  1.0000
  S   S430      1.0  0.62161  0.78180  0.50840  1.0000
  H   H2486     1.0  0.87351  0.75516  0.95719  1.0000
  H   H2487     1.0  0.56121  0.78052  0.54488  1.0000
  H   H2488     1.0  0.55203  0.82431  0.61671  1.0000
  H   H2489     1.0  0.76857  0.95444  0.94868  1.0000
  N   N104      1.0  0.56966  0.85141  0.92679  1.0000
  H   H2490     1.0  0.51727  0.95299  0.68682  1.0000
  C   C1457     1.0  0.69672  0.76177  0.94073  1.0000
  S   S431      1.0  0.73606  0.76366  0.55866  1.0000
  C   C1458     1.0  0.74926  0.95833  0.91677  1.0000
  H   H2491     1.0  0.69390  0.96621  0.51573  1.0000
  H   H2492     1.0  0.54294  0.85179  0.97737  1.0000
  C   C1459     1.0  0.58773  0.79590  0.62435  1.0000
  C   C1460     1.0  0.49304  0.92889  0.75907  1.0000
  H   H2493     1.0  0.56891  0.81993  0.63984  1.0000
  H   H2494     1.0  0.57720  0.95504  0.84060  1.0000
  H   H2495     1.0  0.54768  0.80676  0.93930  1.0000
  H   H2496     1.0  0.59450  0.98749  0.83670  1.0000
  H   H2497     1.0  0.68737  0.76823  0.63051  1.0000
  H   H2498     1.0  0.71278  0.78812  0.66986  1.0000
  H   H2499     1.0  0.52770  0.97699  0.67093  1.0000
  C   C1461     1.0  0.55841  0.81371  0.62341  1.0000
  C   C1462     1.0  0.56857  0.81013  0.59566  1.0000
  H   H2500     1.0  0.49324  0.90123  0.70503  1.0000
  H   H2501     1.0  0.55133  0.77358  0.62942  1.0000
  C   C1463     1.0  0.57801  0.86157  0.89630  1.0000
  H   H2502     1.0  0.75541  0.83423  0.60484  1.0000
  C   C1464     1.0  0.57617  0.99546  0.80799  1.0000
  H   H2503     1.0  0.57328  0.82942  0.95648  1.0000
  H   H2504     1.0  0.59866  0.00314  0.75242  1.0000
  C   C1465     1.0  0.71529  0.77264  0.94816  1.0000
  C   C1466     1.0  0.68305  0.77837  0.97277  1.0000
  C   C1467     1.0  0.76760  0.80406  0.67134  1.0000
  H   H2505     1.0  0.54479  0.77690  0.59278  1.0000
  H   H2506     1.0  0.75603  0.78788  0.71558  1.0000
  H   H2507     1.0  0.57525  0.85712  0.97210  1.0000
  H   H2508     1.0  0.73208  0.79445  0.97375  1.0000
  H   H2509     1.0  0.59350  0.86348  0.89247  1.0000
  H   H2510     1.0  0.77228  0.77973  0.69613  1.0000
  H   H2511     1.0  0.74281  0.98980  0.91925  1.0000
  H   H2512     1.0  0.53498  0.94080  0.71944  1.0000
  H   H2513     1.0  0.76367  0.81562  0.67892  1.0000
  H   H2514     1.0  0.76351  0.99868  0.96006  1.0000
  H   H2515     1.0  0.74059  0.76761  0.67926  1.0000
  C   C1468     1.0  0.53862  0.84062  0.96234  1.0000
  H   H2516     1.0  0.54182  0.82838  0.97188  1.0000
  H   H2517     1.0  0.53661  0.98362  0.75072  1.0000
  C   C1469     1.0  0.55677  0.77559  0.60565  1.0000
  Fe  Fe216     1.0  0.49441  0.99946  0.69881  1.0000
  H   H2518     1.0  0.61878  0.97834  0.84702  1.0000
  H   H2519     1.0  0.51995  0.96758  0.72953  1.0000
  H   H2520     1.0  0.61820  0.99485  0.75031  1.0000
  C   C1470     1.0  0.52888  0.95765  0.64104  1.0000
  H   H2521     1.0  0.58126  0.82340  0.58824  1.0000
  H   H2522     1.0  0.77699  0.76605  0.62071  1.0000
  C   C1471     1.0  0.53006  0.96343  0.67280  1.0000
  C   C1472     1.0  0.57994  0.86427  0.94909  1.0000
  H   H2523     1.0  0.72771  0.76893  0.64830  1.0000
  C   C1473     1.0  0.70157  0.78901  0.98064  1.0000
  H   H2524     1.0  0.60077  0.80919  0.61927  1.0000
  H   H2525     1.0  0.57598  0.87692  0.94800  1.0000
  H   H2526     1.0  0.57302  0.80581  0.53526  1.0000
  H   H2527     1.0  0.72776  0.77044  0.93889  1.0000
  H   H2528     1.0  0.71242  0.77054  0.69890  1.0000
  C   C1474     1.0  0.50553  0.92410  0.77769  1.0000
  H   H2529     1.0  0.65646  0.76553  0.54889  1.0000
  C   C1475     1.0  0.77181  0.77152  0.63969  1.0000
  H   H2530     1.0  0.77432  0.97816  0.93384  1.0000
  H   H2531     1.0  0.63154  0.96488  0.83338  1.0000
  H   H2532     1.0  0.56080  0.94936  0.71558  1.0000
  H   H2533     1.0  0.74993  0.94489  0.91088  1.0000
  C   C1476     1.0  0.49695  0.90785  0.72508  1.0000
  N   N105      1.0  0.59252  0.97158  0.79939  1.0000
  C   C1477     1.0  0.70806  0.76553  0.59850  1.0000
  C   C1478     1.0  0.58949  0.97266  0.76671  1.0000
  C   C1479     1.0  0.57709  0.95417  0.81627  1.0000
  H   H2534     1.0  0.50176  0.98508  0.83461  1.0000
  H   H2535     1.0  0.73956  0.81388  0.64781  1.0000
  C   C1480     1.0  0.72007  0.77361  0.57237  1.0000
  C   C1481     1.0  0.55587  0.94925  0.80867  1.0000
  H   H2536     1.0  0.57498  0.86243  0.84905  1.0000
  H   H2537     1.0  0.75381  0.78000  0.61034  1.0000
  C   C1482     1.0  0.74644  0.80726  0.63254  1.0000
  H   H2538     1.0  0.57449  0.97108  0.76267  1.0000
  H   H2539     1.0  0.67557  0.76464  0.52381  1.0000
  C   C1483     1.0  0.55856  0.75693  0.59866  1.0000
  C   C1484     1.0  0.57082  0.99451  0.65174  1.0000
  H   H2540     1.0  0.79403  0.98361  0.97111  1.0000
  H   H2541     1.0  0.77488  0.83104  0.62366  1.0000
  H   H2542     1.0  0.58034  0.79732  0.64516  1.0000
  C   C1485     1.0  0.74938  0.98676  0.96597  1.0000
  H   H2543     1.0  0.77649  0.79787  0.61516  1.0000
  H   H2544     1.0  0.59262  0.78331  0.57172  1.0000
  N   N106      1.0  0.75373  0.79370  0.64969  1.0000
  C   C1486     1.0  0.54846  0.84841  0.93074  1.0000
  C   C1487     1.0  0.71768  0.78623  0.96794  1.0000
  C   C1488     1.0  0.61183  0.96958  0.80246  1.0000
  H   H2545     1.0  0.55069  0.81842  0.90183  1.0000
  C   C1489     1.0  0.65967  0.75964  0.52892  1.0000
  C   C1490     1.0  0.59340  0.98917  0.81232  1.0000
  H   H2546     1.0  0.76072  0.75915  0.65302  1.0000
  C   C1491     1.0  0.55839  0.81564  0.92089  1.0000
  H   H2547     1.0  0.57957  0.97460  0.67803  1.0000
  H   H2548     1.0  0.56626  0.96561  0.64824  1.0000
  H   H2549     1.0  0.55250  0.85013  0.87013  1.0000
  H   H2550     1.0  0.75510  0.96880  0.89668  1.0000
  H   H2551     1.0  0.73627  0.92848  0.96080  1.0000
  C   C1492     1.0  0.56653  0.97427  0.66639  1.0000
  C   C1493     1.0  0.54774  0.94718  0.70296  1.0000
  H   H2552     1.0  0.60681  0.95301  0.84683  1.0000
  H   H2553     1.0  0.57784  0.87599  0.89446  1.0000
  N   N107      1.0  0.57470  0.79342  0.59915  1.0000
  C   C1494     1.0  0.55054  0.97892  0.71090  1.0000
  C   C1495     1.0  0.76379  0.78630  0.62744  1.0000
  C   C1496     1.0  0.58629  0.79424  0.57069  1.0000
  H   H2554     1.0  0.57058  0.83941  0.86655  1.0000
  C   C1497     1.0  0.72218  0.78313  0.68401  1.0000
  C   C1498     1.0  0.57530  0.79262  0.54235  1.0000
  C   C1499     1.0  0.73285  0.95247  0.98032  1.0000
  C   C1500     1.0  0.53478  0.97195  0.73713  1.0000
  H   H2555     1.0  0.57344  0.75718  0.59606  1.0000
  N   N108      1.0  0.54852  0.96575  0.68757  1.0000
  C   C1501     1.0  0.60839  0.75456  0.55740  1.0000
  H   H2556     1.0  0.53961  0.83886  0.91559  1.0000
  C   C1502     1.0  0.73629  0.77756  0.66486  1.0000
  H   H2557     1.0  0.59912  0.80780  0.56674  1.0000
  H   H2558     1.0  0.60769  0.85992  0.94521  1.0000
  H   H2559     1.0  0.78252  0.81126  0.66025  1.0000
  H   H2560     1.0  0.68779  0.98644  0.51313  1.0000
  H   H2561     1.0  0.72127  0.97877  0.94518  1.0000
  H   H2562     1.0  0.55351  0.94426  0.78652  1.0000
  H   H2563     1.0  0.53611  0.96034  0.75220  1.0000
  C   C1503     1.0  0.61723  0.96630  0.83445  1.0000
  H   H2564     1.0  0.55835  0.80870  0.57799  1.0000
  H   H2565     1.0  0.54647  0.86191  0.92465  1.0000
  C   C1504     1.0  0.57322  0.83331  0.93218  1.0000
  H   H2566     1.0  0.60857  0.88236  0.92687  1.0000
  H   H2567     1.0  0.58789  0.83528  0.92241  1.0000
  H   H2568     1.0  0.51356  0.94872  0.63820  1.0000
  H   H2569     1.0  0.78460  0.77784  0.65234  1.0000
  H   H2570     1.0  0.60060  0.98952  0.72377  1.0000
  C   C1505     1.0  0.73276  0.93227  0.98258  1.0000
  H   H2571     1.0  0.52264  0.83599  0.96159  1.0000
  H   H2572     1.0  0.58025  0.94141  0.81289  1.0000
  C   C1506     1.0  0.60984  0.75847  0.52648  1.0000
  C   C1507     1.0  0.60260  0.99111  0.74759  1.0000
  H   H2573     1.0  0.73489  0.79967  0.61836  1.0000
  H   H2574     1.0  0.53249  0.97024  0.62432  1.0000
  H   H2575     1.0  0.86079  0.75522  0.90896  1.0000
  H   H2576     1.0  0.60536  0.78422  0.65023  1.0000
  C   C1508     1.0  0.76192  0.96501  0.94287  1.0000
  H   H2577     1.0  0.76591  0.81885  0.59168  1.0000
  C   C1509     1.0  0.78563  0.98466  0.99105  1.0000
  H   H2578     1.0  0.73381  0.95605  0.92088  1.0000
  C   C1510     1.0  0.59478  0.77981  0.63319  1.0000
  H   H2579     1.0  0.70629  0.98167  0.55714  1.0000
  C   C1511     1.0  0.70025  0.98182  0.51060  1.0000
  H   H2580     1.0  0.55771  0.99633  0.64360  1.0000
  S   S432      1.0  0.74618  0.75807  0.78656  1.0000
  H   H2581     1.0  0.74337  0.98941  0.98712  1.0000
  H   H2582     1.0  0.58173  0.99796  0.63251  1.0000
  H   H2583     1.0  0.56910  0.99185  0.78727  1.0000
  H   H2584     1.0  0.56517  0.98967  0.82724  1.0000
  H   H2585     1.0  0.62403  0.98229  0.79156  1.0000
  H   H2586     1.0  0.72764  0.98764  0.53257  1.0000
  C   C1512     1.0  0.71362  0.98946  0.53537  1.0000
  H   H2587     1.0  0.60697  0.00140  0.80391  1.0000
  H   H2588     1.0  0.58266  0.76691  0.64353  1.0000
  H   H2589     1.0  0.89905  0.76075  0.98638  1.0000
  H   H2590     1.0  0.78553  0.99905  0.99046  1.0000
  H   H2591     1.0  0.71797  0.92211  0.99077  1.0000
  H   H2592     1.0  0.73518  0.00326  0.94270  1.0000
