data_image0
_chemical_formula_structural       FeSHFeSHFeS4CHSFe2S2FeS2H2SHSH2SFeS2FeS3FeS2FeS2FeSFeS3C6H4C2NHC2H3C4H2CHC6H4C6H4C6H4C6H4C6H2CHNC8H23C2H4CSH3FeH2C2HCH2C2H4CFeCH4CH3CHCHCHFeH3CH2CH3SCSH2C2HFeH3NHNC4H3CH4CH4C2SHSH2CNFeHC2H4CH5CH4CH3FeH2NHCH7SHFeCHC4HCHCHCH9CH2CH2CHCH4CHFeS2HCHSFeSHSFeS2FeS2FeS2FeSFeHS2HSCFeS2HC6H4CHC4H3C8H6C6H12C2NC8H22CH2CH3CH8CH3CHCH4CH3CSHNFeNHC4SH7CHCH3NC8H5SH2CH4CH3SFeCH3NHFeHFeH9C3HS2H6SHS2H3SC5HCHC2NCHC2HC4H4NH2FeHNC6HCH3CHCH5CH5SH2CHCHCH3CH3FeH5C2H5CHCH5NH6CHCFeC2HSHCHCH2S2CHSC4H8C2HC5HSC2H3C6H2CH4CH2CSH3NHCH2CH4CH3CHCNH4C2HCH2C3HC2HCH3CFeHSNCH2CH3C2H2CH5CH5SC2H3CH3CHNH3CHFeH4CHCH4CSHSCHCHC3H4C7H3CH4NH6CHNH2CH3C3NH5SCHCH2C2H5CH3CH2CH3CH2CHCHCH3SH4SNH2CHFeCH4NH2CH2CHFeHCHSH3SH4FeSH3FeS2C2HC3HCH3CHC3H3C6H4C6H6CH3C2H2C2H3FeH2C2HCNH2CHSH7CSH3C2NH2SCHCHCHC2HCHCH2NCH3SFeCSH2CH4C2SC2FeS3CFeCS2FeSHFeCHFeS2FeS2FeS2FeS2HS2FeS2FeS2FeHFeS3HSHFeSC4H3CHC6H4SH2CHC2FeC6H4C6H4C6H4C6H4C6H5NH2CHSHCHCHSFe2H3NCHCHC3HCHCH13C2SCHC2H4CHCH7CH8NHC2HCH7CH6SHCHCHC2HC2HCH11NCHC2HSH2CHCH5C2SH4CH4NCH3CH3CSH4C2FeCH2CHCH3CFeH3CH2CSHNHSNHFeSHFeS2FeS2FeHS2FeS2FeS2FeSFeS3FeS2CHS2C6H4SC7H4C6H4SHC6H4NC8H15NH7CHCH3CH2CH2NHCH2CHCH6CHCH3CH5FeC2H2SCH8CNC6H12C3H2CH4CHC2H2CHCH2FeH9FeH3CH2SH3CSHCHCHS2CFeCHSHCSHCSHCHC2SH5C3H6C6H3C6H15CHC2H2CHSHCNSH3C2H3NCH2CSCH3FeH2C3HC4H8CHCHCHCH2FeHC2SHSC2SH2SC6H4NHC7H6SH3NH2C2HNH2CH4CHCHC2HCH4FeHCH2CH4CHCH2CH3C2HCHFeCFeH14CH5C2H4FeS2FeS2HFeS2FeS2FeSFeS3FeSNHFeS2HCSHFeS2C6H4C3H5CHC6H4C6H3C4HCH2CH4SFeC3HNH3C2HSCSH2CHS2C2H3C4H12CH2NH10CHFeH3CH2CHCHC2H2CHCHCH5NH5NH4CH4CHCHCH3C3H2C2H5SCH5C3H6SFeCFeSH4FeS2FeSCFeS2FeS2FeSFeS3HCHS2FeS2C3SFeS2FeS2FeSFeS3C6H6SCHC3FeH2C7H3C6H4C6H4C6HCH2C6H4C6H3CFeHCHSH2CH2C2HCSH2CHNC8H20NCNC3H15CH9FeH5CHFeH2SH4CSH2CFeC2H2C2H3CH4CHSHCH2CHSFeH4C2HCNH5CHCHCH5CHCSH4C2H3NH3CHNHCH3CH2SHFeS2FeS2FeS2FeSFeS3FeS2HCS2FeS2CH2SH2C6H4CH2C3SHC6H6C6H4CH3FeHCH6FeH3FeH7FeH3CHCH3SH4C2H3CFeHCNC7H7C2H3CH9CHSH6N2SC2H6SH2FeH4C2HCH2NHCHNC6H3CH3SH2C3H3C4H5C2H4SCH6FeC2H2CH2FeSHFeS2FeS2FeS2FeS2FeS2FeSFeHS2FeS2FeS2FeSFeS3CH2FeS2H2CHSCH2CHFeCHC2H2C2H2C6H4C6H4C6H4C6H4C6H3C7H4NC8H20CH2CH10C4H4C3HCH2SC3H5CH2CH2CHSNC8H24CHCH2CHCSCHNHCSHCHNH3SH2SCFeH2CHC2H2NHCH2CHSH5CH2C3H3NHC2H3SCHCH3CH2CHFeH2C2H5SC2H2NH5SCS2H2CSCHCHC3H9CH3SC7H4C6H2FeC2HCH4CHCHCNH3C2H4C3H3C2NSH2C3H12FeH3C4H2C2FeNH2CHC2H2CH11CH2CH2CH3CH2C2SFeH2CH7SCH2SH2SNSC2HCHCHFeHCH3C6H4NC8H15SCH4C2HC3HCHCH10CNCH6CSH2CHFeCH3C2
_chemical_formula_sum              "Fe144 S288 H1728 C1008 N72"
_cell_length_a       52.0557
_cell_length_b       52.1384
_cell_length_c       52.1437
_cell_angle_alpha    89.9075
_cell_angle_beta     89.8691
_cell_angle_gamma    89.875

_space_group_name_H-M_alt    "P 1"
_space_group_IT_number       1

loop_
  _space_group_symop_operation_xyz
  'x, y, z'

loop_
  _atom_site_type_symbol
  _atom_site_label
  _atom_site_symmetry_multiplicity
  _atom_site_fract_x
  _atom_site_fract_y
  _atom_site_fract_z
  _atom_site_occupancy
  Fe  Fe1       1.0  0.24994  0.02154  0.13558  1.0000
  S   S1        1.0  0.24474  0.03531  0.09497  1.0000
  H   H1        1.0  0.25475  0.13111  0.11559  1.0000
  Fe  Fe2       1.0  0.19204  0.01746  0.14358  1.0000
  S   S2        1.0  0.18290  0.03142  0.10401  1.0000
  H   H2        1.0  0.44294  0.47091  0.19282  1.0000
  Fe  Fe3       1.0  0.21370  0.06033  0.11107  1.0000
  S   S3        1.0  0.21143  0.10280  0.10292  1.0000
  S   S4        1.0  0.22061  0.04859  0.15195  1.0000
  S   S5        1.0  0.01919  0.10429  0.22902  1.0000
  S   S6        1.0  0.07995  0.18598  0.00953  1.0000
  C   C1        1.0  0.06271  0.20016  0.19273  1.0000
  H   H3        1.0  0.09690  0.00670  0.10641  1.0000
  S   S7        1.0  0.15750  0.00696  0.16761  1.0000
  Fe  Fe4       1.0  0.42742  0.11412  0.24089  1.0000
  Fe  Fe5       1.0  0.08694  0.21791  0.03755  1.0000
  S   S8        1.0  0.06633  0.22433  0.07524  1.0000
  S   S9        1.0  0.12894  0.20959  0.04269  1.0000
  Fe  Fe6       1.0  0.04338  0.10330  0.19312  1.0000
  S   S10       1.0  0.03334  0.14353  0.18217  1.0000
  S   S11       1.0  0.08656  0.10315  0.18965  1.0000
  H   H4        1.0  0.36941  0.44299  0.14753  1.0000
  H   H5        1.0  0.41467  0.01916  0.20844  1.0000
  S   S12       1.0  0.01242  0.08601  0.16857  1.0000
  H   H6        1.0  0.38736  0.41791  0.16212  1.0000
  S   S13       1.0  0.41290  0.07599  0.22504  1.0000
  H   H7        1.0  0.05662  0.19577  0.17274  1.0000
  H   H8        1.0  0.27096  0.34832  0.11551  1.0000
  S   S14       1.0  0.43590  0.14820  0.21291  1.0000
  Fe  Fe7       1.0  0.43274  0.34558  0.16196  1.0000
  S   S15       1.0  0.45712  0.34275  0.19744  1.0000
  S   S16       1.0  0.39264  0.36132  0.16941  1.0000
  Fe  Fe8       1.0  0.46964  0.30407  0.18145  1.0000
  S   S17       1.0  0.46843  0.26849  0.20874  1.0000
  S   S18       1.0  0.46310  0.36612  0.13955  1.0000
  S   S19       1.0  0.44365  0.30657  0.14708  1.0000
  Fe  Fe9       1.0  0.24326  0.43812  0.04976  1.0000
  S   S20       1.0  0.24752  0.39519  0.04891  1.0000
  S   S21       1.0  0.24137  0.46253  0.01215  1.0000
  Fe  Fe10      1.0  0.23448  0.43738  0.11036  1.0000
  S   S22       1.0  0.23900  0.39446  0.11197  1.0000
  S   S23       1.0  0.22596  0.46222  0.14664  1.0000
  Fe  Fe11      1.0  0.27190  0.39987  0.08435  1.0000
  S   S24       1.0  0.30818  0.37548  0.08256  1.0000
  Fe  Fe12      1.0  0.21450  0.39361  0.07644  1.0000
  S   S25       1.0  0.17963  0.36748  0.07396  1.0000
  S   S26       1.0  0.26935  0.44306  0.08426  1.0000
  S   S27       1.0  0.20823  0.43631  0.07582  1.0000
  C   C2        1.0  0.36974  0.36592  0.14483  1.0000
  C   C3        1.0  0.34662  0.37871  0.15051  1.0000
  C   C4        1.0  0.32784  0.38254  0.13145  1.0000
  C   C5        1.0  0.33194  0.37321  0.10665  1.0000
  C   C6        1.0  0.35501  0.36031  0.10104  1.0000
  C   C7        1.0  0.37394  0.35683  0.11998  1.0000
  H   H9        1.0  0.34323  0.38580  0.16971  1.0000
  H   H10       1.0  0.31009  0.39238  0.13603  1.0000
  H   H11       1.0  0.35828  0.35296  0.08191  1.0000
  H   H12       1.0  0.39166  0.34695  0.11538  1.0000
  C   C8        1.0  0.21277  0.32525  0.12136  1.0000
  C   C9        1.0  0.19483  0.45425  0.23070  1.0000
  N   N1        1.0  0.38817  0.27915  0.21489  1.0000
  H   H13       1.0  0.19383  0.39426  0.02682  1.0000
  C   C10       1.0  0.21398  0.45827  0.17900  1.0000
  C   C11       1.0  0.47481  0.43801  0.13021  1.0000
  H   H14       1.0  0.00852  0.15010  0.06750  1.0000
  H   H15       1.0  0.14476  0.48106  0.16337  1.0000
  H   H16       1.0  0.20913  0.30209  0.01221  1.0000
  C   C12       1.0  0.44479  0.18175  0.21240  1.0000
  C   C13       1.0  0.44441  0.19532  0.18890  1.0000
  C   C14       1.0  0.45149  0.22159  0.18731  1.0000
  C   C15       1.0  0.45945  0.23494  0.20922  1.0000
  H   H17       1.0  0.41506  0.26499  0.18652  1.0000
  H   H18       1.0  0.10430  0.01048  0.18330  1.0000
  C   C16       1.0  0.11274  0.46420  0.23385  1.0000
  H   H19       1.0  0.39676  0.31805  0.20206  1.0000
  C   C17       1.0  0.04561  0.20027  0.08671  1.0000
  C   C18       1.0  0.03411  0.18251  0.07028  1.0000
  C   C19       1.0  0.01749  0.16372  0.08027  1.0000
  C   C20       1.0  0.01276  0.16231  0.10674  1.0000
  C   C21       1.0  0.02421  0.18015  0.12308  1.0000
  C   C22       1.0  0.04049  0.19910  0.11305  1.0000
  H   H20       1.0  0.03768  0.18351  0.04987  1.0000
  H   H21       1.0  0.27494  0.30243  0.03788  1.0000
  H   H22       1.0  0.02004  0.17969  0.14334  1.0000
  H   H23       1.0  0.04923  0.21292  0.12562  1.0000
  C   C23       1.0  0.17148  0.29336  0.02701  1.0000
  C   C24       1.0  0.19391  0.30823  0.02497  1.0000
  C   C25       1.0  0.19677  0.33092  0.03932  1.0000
  C   C26       1.0  0.17714  0.33897  0.05579  1.0000
  C   C27       1.0  0.15468  0.32419  0.05774  1.0000
  C   C28       1.0  0.15186  0.30145  0.04348  1.0000
  H   H24       1.0  0.20402  0.41840  0.17593  1.0000
  H   H25       1.0  0.21420  0.34206  0.03780  1.0000
  H   H26       1.0  0.13933  0.33034  0.07036  1.0000
  H   H27       1.0  0.13447  0.29021  0.04516  1.0000
  C   C29       1.0  0.15795  0.12908  0.03850  1.0000
  C   C30       1.0  0.17020  0.14709  0.05409  1.0000
  C   C31       1.0  0.18691  0.13884  0.07359  1.0000
  C   C32       1.0  0.19128  0.11259  0.07769  1.0000
  C   C33       1.0  0.17922  0.09461  0.06196  1.0000
  C   C34       1.0  0.16265  0.10286  0.04238  1.0000
  H   H28       1.0  0.16687  0.16733  0.05107  1.0000
  H   H29       1.0  0.19627  0.15283  0.08565  1.0000
  H   H30       1.0  0.18272  0.07436  0.06477  1.0000
  H   H31       1.0  0.15333  0.08887  0.03027  1.0000
  C   C35       1.0  0.10492  0.07583  0.18210  1.0000
  C   C36       1.0  0.09531  0.05095  0.18494  1.0000
  C   C37       1.0  0.11147  0.02972  0.18040  1.0000
  C   C38       1.0  0.13700  0.03341  0.17247  1.0000
  C   C39       1.0  0.14617  0.05829  0.16874  1.0000
  C   C40       1.0  0.13029  0.07940  0.17387  1.0000
  H   H32       1.0  0.07576  0.04809  0.19140  1.0000
  H   H33       1.0  0.09817  0.18306  0.17713  1.0000
  H   H34       1.0  0.16576  0.06133  0.16258  1.0000
  H   H35       1.0  0.13783  0.09861  0.17168  1.0000
  C   C41       1.0  0.32601  0.05742  0.21957  1.0000
  C   C42       1.0  0.29942  0.05305  0.21806  1.0000
  C   C43       1.0  0.28854  0.04175  0.19611  1.0000
  C   C44       1.0  0.30424  0.03444  0.17560  1.0000
  C   C45       1.0  0.33081  0.03896  0.17705  1.0000
  C   C46       1.0  0.34164  0.05068  0.19880  1.0000
  H   H36       1.0  0.03623  0.26033  0.18612  1.0000
  H   H37       1.0  0.26808  0.03820  0.19529  1.0000
  C   C47       1.0  0.34653  0.30633  0.20784  1.0000
  H   H38       1.0  0.48621  0.45499  0.13591  1.0000
  N   N2        1.0  0.09779  0.12622  0.09343  1.0000
  C   C48       1.0  0.10260  0.15380  0.08586  1.0000
  C   C49       1.0  0.09210  0.11174  0.06908  1.0000
  C   C50       1.0  0.12201  0.11605  0.10578  1.0000
  C   C51       1.0  0.07568  0.12580  0.11216  1.0000
  C   C52       1.0  0.11142  0.17187  0.10753  1.0000
  C   C53       1.0  0.06766  0.12008  0.05459  1.0000
  C   C54       1.0  0.12577  0.08671  0.10638  1.0000
  C   C55       1.0  0.06391  0.09950  0.11890  1.0000
  H   H39       1.0  0.11730  0.15493  0.07031  1.0000
  H   H40       1.0  0.08504  0.16278  0.07774  1.0000
  H   H41       1.0  0.09028  0.09086  0.07233  1.0000
  H   H42       1.0  0.10851  0.11341  0.05551  1.0000
  H   H43       1.0  0.13927  0.12367  0.09573  1.0000
  H   H44       1.0  0.12360  0.12281  0.12597  1.0000
  H   H45       1.0  0.08145  0.13434  0.13083  1.0000
  H   H46       1.0  0.05983  0.13852  0.10568  1.0000
  H   H47       1.0  0.09679  0.17356  0.12292  1.0000
  H   H48       1.0  0.13020  0.16600  0.11566  1.0000
  H   H49       1.0  0.11398  0.19143  0.09940  1.0000
  H   H50       1.0  0.05028  0.11910  0.06687  1.0000
  H   H51       1.0  0.06960  0.13954  0.04622  1.0000
  H   H52       1.0  0.06460  0.10689  0.03818  1.0000
  H   H53       1.0  0.10972  0.07659  0.11586  1.0000
  H   H54       1.0  0.14344  0.08230  0.11748  1.0000
  H   H55       1.0  0.12913  0.07888  0.08689  1.0000
  H   H56       1.0  0.07296  0.09133  0.13634  1.0000
  H   H57       1.0  0.06470  0.08518  0.10341  1.0000
  H   H58       1.0  0.04308  0.10217  0.12278  1.0000
  H   H59       1.0  0.15154  0.43183  0.00844  1.0000
  H   H60       1.0  0.42975  0.40201  0.21014  1.0000
  H   H61       1.0  0.99691  0.23456  0.17656  1.0000
  C   C56       1.0  0.38891  0.43436  0.14877  1.0000
  C   C57       1.0  0.38352  0.28154  0.16538  1.0000
  H   H62       1.0  0.26831  0.09402  0.08829  1.0000
  H   H63       1.0  0.37104  0.01860  0.23277  1.0000
  H   H64       1.0  0.14646  0.40302  0.02754  1.0000
  H   H65       1.0  0.43715  0.43501  0.21490  1.0000
  C   C58       1.0  0.45971  0.22143  0.23274  1.0000
  S   S28       1.0  0.09307  0.24803  0.00698  1.0000
  H   H66       1.0  0.43878  0.18531  0.17166  1.0000
  H   H67       1.0  0.39095  0.27188  0.14788  1.0000
  H   H68       1.0  0.38997  0.30172  0.16423  1.0000
  Fe  Fe13      1.0  0.21450  0.00474  0.09148  1.0000
  H   H69       1.0  0.25689  0.08842  0.13236  1.0000
  H   H70       1.0  0.25940  0.11975  0.16689  1.0000
  C   C59       1.0  0.40250  0.30416  0.21696  1.0000
  C   C60       1.0  0.01156  0.22730  0.19026  1.0000
  H   H71       1.0  0.30371  0.33195  0.14604  1.0000
  C   C61       1.0  0.08416  0.24314  0.18793  1.0000
  H   H72       1.0  0.16484  0.42890  0.03967  1.0000
  H   H73       1.0  0.00489  0.23298  0.20964  1.0000
  C   C62       1.0  0.09003  0.24049  0.15897  1.0000
  C   C63       1.0  0.21398  0.47949  0.19584  1.0000
  H   H74       1.0  0.47936  0.43418  0.10975  1.0000
  H   H75       1.0  0.30511  0.15663  0.09690  1.0000
  H   H76       1.0  0.19922  0.42286  0.00909  1.0000
  H   H77       1.0  0.29684  0.05666  0.10477  1.0000
  C   C64       1.0  0.18570  0.40649  0.01129  1.0000
  Fe  Fe14      1.0  0.00765  0.14378  0.21654  1.0000
  C   C65       1.0  0.28405  0.15363  0.09724  1.0000
  H   H78       1.0  0.23627  0.40866  0.99399  1.0000
  H   H79       1.0  0.48412  0.42171  0.22354  1.0000
  H   H80       1.0  0.07670  0.25227  0.14720  1.0000
  H   H81       1.0  0.10966  0.24785  0.15500  1.0000
  C   C66       1.0  0.25539  0.28432  0.11182  1.0000
  H   H82       1.0  0.21945  0.31234  0.08304  1.0000
  H   H83       1.0  0.35368  0.09481  0.13384  1.0000
  H   H84       1.0  0.29232  0.30738  0.08089  1.0000
  C   C67       1.0  0.31778  0.11532  0.12712  1.0000
  H   H85       1.0  0.21803  0.34206  0.13327  1.0000
  C   C68       1.0  0.30290  0.07127  0.09061  1.0000
  H   H86       1.0  0.48404  0.46616  0.24101  1.0000
  C   C69       1.0  0.27563  0.13464  0.11838  1.0000
  H   H87       1.0  0.21416  0.36615  0.99872  1.0000
  Fe  Fe15      1.0  0.13481  0.23742  0.01025  1.0000
  H   H88       1.0  0.03989  0.23630  0.16235  1.0000
  H   H89       1.0  0.28583  0.07391  0.14125  1.0000
  H   H90       1.0  0.29718  0.10956  0.07869  1.0000
  C   C70       1.0  0.19485  0.43303  0.21389  1.0000
  H   H91       1.0  0.27322  0.33396  0.07133  1.0000
  H   H92       1.0  0.22763  0.27179  0.08099  1.0000
  C   C71       1.0  0.20429  0.43497  0.18837  1.0000
  H   H93       1.0  0.31832  0.13149  0.14106  1.0000
  H   H94       1.0  0.11929  0.45406  0.21633  1.0000
  H   H95       1.0  0.32884  0.12187  0.11003  1.0000
  S   S29       1.0  0.29174  0.01870  0.14831  1.0000
  C   C72       1.0  0.23406  0.26694  0.10058  1.0000
  S   S30       1.0  0.48596  0.32373  0.08494  1.0000
  H   H96       1.0  0.26690  0.08899  0.17951  1.0000
  H   H97       1.0  0.18742  0.41487  0.22064  1.0000
  C   C73       1.0  0.20469  0.47751  0.22140  1.0000
  C   C74       1.0  0.08930  0.18716  0.19609  1.0000
  H   H98       1.0  0.19266  0.32853  0.11497  1.0000
  Fe  Fe16      1.0  0.47678  0.32687  0.12768  1.0000
  H   H99       1.0  0.32404  0.07382  0.09114  1.0000
  H   H100      1.0  0.01154  0.20610  0.18854  1.0000
  H   H101      1.0  0.39383  0.42729  0.12934  1.0000
  N   N3        1.0  0.25660  0.31163  0.10220  1.0000
  H   H102      1.0  0.43627  0.42533  0.12420  1.0000
  N   N4        1.0  0.43572  0.44659  0.15988  1.0000
  C   C75       1.0  0.43857  0.42184  0.17461  1.0000
  C   C76       1.0  0.44556  0.44241  0.13296  1.0000
  C   C77       1.0  0.40796  0.45481  0.15849  1.0000
  C   C78       1.0  0.42711  0.42153  0.20194  1.0000
  H   H103      1.0  0.08194  0.26403  0.19197  1.0000
  H   H104      1.0  0.42990  0.40558  0.16391  1.0000
  H   H105      1.0  0.45916  0.41663  0.17681  1.0000
  C   C79       1.0  0.13076  0.49157  0.17563  1.0000
  H   H106      1.0  0.44032  0.45879  0.12026  1.0000
  H   H107      1.0  0.40098  0.46162  0.17751  1.0000
  H   H108      1.0  0.28718  0.05821  0.23404  1.0000
  H   H109      1.0  0.31140  0.32286  0.11424  1.0000
  C   C80       1.0  0.16047  0.41804  0.02192  1.0000
  H   H110      1.0  0.40621  0.42550  0.20219  1.0000
  H   H111      1.0  0.32699  0.07380  0.13501  1.0000
  H   H112      1.0  0.48151  0.42109  0.14117  1.0000
  H   H113      1.0  0.47097  0.46087  0.17642  1.0000
  C   C81       1.0  0.26983  0.32801  0.12208  1.0000
  C   C82       1.0  0.26286  0.29767  0.05483  1.0000
  S   S31       1.0  0.16891  0.26499  0.00860  1.0000
  H   H114      1.0  0.25870  0.32841  0.14030  1.0000
  S   S32       1.0  0.13579  0.13845  0.01478  1.0000
  H   H115      1.0  0.35682  0.31585  0.19193  1.0000
  H   H116      1.0  0.27710  0.14536  0.13675  1.0000
  C   C83       1.0  0.03787  0.23918  0.18335  1.0000
  N   N5        1.0  0.06096  0.22864  0.19748  1.0000
  Fe  Fe17      1.0  0.00099  0.12670  0.16024  1.0000
  H   H117      1.0  0.26530  0.27683  0.05834  1.0000
  C   C84       1.0  0.28880  0.09706  0.09379  1.0000
  C   C85       1.0  0.23038  0.32312  0.09759  1.0000
  H   H118      1.0  0.39926  0.22256  0.21901  1.0000
  H   H119      1.0  0.29828  0.06330  0.07141  1.0000
  H   H120      1.0  0.29817  0.29957  0.13654  1.0000
  H   H121      1.0  0.34307  0.03336  0.16123  1.0000
  C   C86       1.0  0.39391  0.26730  0.18911  1.0000
  H   H122      1.0  0.32733  0.30106  0.20025  1.0000
  H   H123      1.0  0.10311  0.19749  0.20829  1.0000
  H   H124      1.0  0.27486  0.17253  0.10087  1.0000
  H   H125      1.0  0.38570  0.24772  0.18765  1.0000
  H   H126      1.0  0.27724  0.14736  0.07808  1.0000
  C   C87       1.0  0.27215  0.31358  0.07780  1.0000
  H   H127      1.0  0.33351  0.09566  0.16108  1.0000
  H   H128      1.0  0.12943  0.01346  0.11593  1.0000
  H   H129      1.0  0.45119  0.23135  0.16900  1.0000
  H   H130      1.0  0.21294  0.30769  0.13331  1.0000
  C   C88       1.0  0.45084  0.46719  0.17334  1.0000
  H   H131      1.0  0.34930  0.26497  0.21145  1.0000
  H   H132      1.0  0.08940  0.22037  0.15223  1.0000
  H   H133      1.0  0.23216  0.34273  0.08924  1.0000
  Fe  Fe18      1.0  0.48836  0.36176  0.17417  1.0000
  H   H134      1.0  0.27417  0.27451  0.10861  1.0000
  H   H135      1.0  0.24283  0.30209  0.04941  1.0000
  N   N6        1.0  0.29030  0.10961  0.11982  1.0000
  H   H136      1.0  0.04900  0.18992  0.20554  1.0000
  C   C89       1.0  0.29727  0.31972  0.12985  1.0000
  H   H137      1.0  0.21717  0.26627  0.11362  1.0000
  H   H138      1.0  0.10186  0.23763  0.19827  1.0000
  H   H139      1.0  0.36227  0.28056  0.16445  1.0000
  H   H140      1.0  0.36209  0.05417  0.19961  1.0000
  H   H141      1.0  0.25216  0.28428  0.13296  1.0000
  H   H142      1.0  0.08650  0.16800  0.20511  1.0000
  H   H143      1.0  0.24131  0.24690  0.09970  1.0000
  S   S33       1.0  0.00645  0.17973  0.24154  1.0000
  H   H144      1.0  0.29248  0.11120  0.17400  1.0000
  Fe  Fe19      1.0  0.12258  0.17974  0.01258  1.0000
  C   C90       1.0  0.11671  0.01012  0.09931  1.0000
  H   H145      1.0  0.11624  0.02832  0.08821  1.0000
  C   C91       1.0  0.33326  0.09338  0.13990  1.0000
  C   C92       1.0  0.27397  0.10419  0.16634  1.0000
  C   C93       1.0  0.27664  0.09290  0.13914  1.0000
  C   C94       1.0  0.45235  0.19525  0.23438  1.0000
  H   H146      1.0  0.11398  0.47881  0.17833  1.0000
  C   C95       1.0  0.37928  0.00120  0.24208  1.0000
  H   H147      1.0  0.16295  0.36393  0.01037  1.0000
  C   C96       1.0  0.05701  0.23424  0.22561  1.0000
  H   H148      1.0  0.40570  0.47154  0.14541  1.0000
  C   C97       1.0  0.10520  0.49233  0.22834  1.0000
  H   H149      1.0  0.36869  0.23169  0.23335  1.0000
  H   H150      1.0  0.15370  0.48096  0.20834  1.0000
  H   H151      1.0  0.42334  0.30097  0.21327  1.0000
  H   H152      1.0  0.09566  0.45373  0.24117  1.0000
  H   H153      1.0  0.41302  0.01318  0.17487  1.0000
  H   H154      1.0  0.03895  0.22543  0.23272  1.0000
  H   H155      1.0  0.05486  0.25528  0.22878  1.0000
  H   H156      1.0  0.09713  0.23207  0.23976  1.0000
  H   H157      1.0  0.34276  0.32064  0.22317  1.0000
  C   C98       1.0  0.35959  0.28202  0.21911  1.0000
  H   H158      1.0  0.14357  0.99511  0.07122  1.0000
  H   H159      1.0  0.09032  0.49214  0.21303  1.0000
  C   C99       1.0  0.41222  0.00381  0.19400  1.0000
  H   H160      1.0  0.37148  0.00398  0.19082  1.0000
  H   H161      1.0  0.33027  0.99978  0.22262  1.0000
  C   C100      1.0  0.39889  0.26158  0.23537  1.0000
  H   H162      1.0  0.42025  0.26127  0.23469  1.0000
  C   C101      1.0  0.38984  0.23340  0.23477  1.0000
  H   H163      1.0  0.35526  0.28236  0.24005  1.0000
  H   H164      1.0  0.40792  0.33784  0.24083  1.0000
  H   H165      1.0  0.46111  0.49241  0.14066  1.0000
  H   H166      1.0  0.14634  0.40986  0.42010  1.0000
  C   C102      1.0  0.15034  0.46444  0.42171  1.0000
  H   H167      1.0  0.36286  0.03054  0.36424  1.0000
  Fe  Fe20      1.0  0.41870  0.09569  0.29597  1.0000
  S   S34       1.0  0.45286  0.09297  0.26939  1.0000
  S   S35       1.0  0.42500  0.10337  0.33836  1.0000
  H   H168      1.0  0.06232  0.33101  0.43025  1.0000
  C   C103      1.0  0.31875  0.09146  0.33522  1.0000
  H   H169      1.0  0.30519  0.03226  0.28811  1.0000
  S   S36       1.0  0.40235  0.05755  0.28450  1.0000
  Fe  Fe21      1.0  0.29520  0.19680  0.47205  1.0000
  S   S37       1.0  0.29402  0.15425  0.46580  1.0000
  H   H170      1.0  0.20811  0.44046  0.47296  1.0000
  S   S38       1.0  0.35713  0.15222  0.47649  1.0000
  Fe  Fe22      1.0  0.33060  0.15987  0.44322  1.0000
  S   S39       1.0  0.33089  0.14539  0.40222  1.0000
  S   S40       1.0  0.33125  0.20262  0.44828  1.0000
  Fe  Fe23      1.0  0.06667  0.22539  0.37588  1.0000
  S   S41       1.0  0.06351  0.22178  0.41897  1.0000
  S   S42       1.0  0.06143  0.19009  0.35042  1.0000
  Fe  Fe24      1.0  0.08688  0.28028  0.38011  1.0000
  S   S43       1.0  0.08549  0.27994  0.42322  1.0000
  S   S44       1.0  0.10170  0.31064  0.35253  1.0000
  Fe  Fe25      1.0  0.10321  0.24012  0.42045  1.0000
  S   S45       1.0  0.13639  0.21860  0.44185  1.0000
  Fe  Fe26      1.0  0.04590  0.26172  0.41805  1.0000
  H   H171      1.0  0.39588  0.22374  0.25280  1.0000
  S   S46       1.0  0.10636  0.24195  0.37756  1.0000
  S   S47       1.0  0.04726  0.26385  0.37474  1.0000
  H   H172      1.0  0.39247  0.18688  0.38700  1.0000
  S   S48       1.0  0.12374  0.47197  0.30427  1.0000
  C   C104      1.0  0.04481  0.34142  0.42400  1.0000
  Fe  Fe27      1.0  0.13010  0.45837  0.34483  1.0000
  S   S49       1.0  0.10757  0.43090  0.37022  1.0000
  S   S50       1.0  0.17272  0.45443  0.33989  1.0000
  H   H173      1.0  0.22877  0.40625  0.40285  1.0000
  C   C105      1.0  0.10552  0.34378  0.35857  1.0000
  C   C106      1.0  0.11205  0.36005  0.33808  1.0000
  C   C107      1.0  0.11370  0.38674  0.34160  1.0000
  C   C108      1.0  0.10828  0.39740  0.36557  1.0000
  C   C109      1.0  0.10225  0.38112  0.38623  1.0000
  C   C110      1.0  0.10143  0.35436  0.38288  1.0000
  H   H174      1.0  0.11556  0.35199  0.31928  1.0000
  H   H175      1.0  0.11844  0.39911  0.32559  1.0000
  H   H176      1.0  0.09831  0.38925  0.40490  1.0000
  H   H177      1.0  0.09744  0.34193  0.39899  1.0000
  C   C111      1.0  0.22511  0.22041  0.45733  1.0000
  H   H178      1.0  0.17363  0.17965  0.45579  1.0000
  C   C112      1.0  0.18417  0.19739  0.45388  1.0000
  C   C113      1.0  0.17081  0.21992  0.44667  1.0000
  C   C114      1.0  0.18505  0.24261  0.44442  1.0000
  C   C115      1.0  0.21176  0.24289  0.45005  1.0000
  H   H179      1.0  0.04691  0.37558  0.37825  1.0000
  H   H180      1.0  0.17538  0.26020  0.43907  1.0000
  H   H181      1.0  0.17233  0.37147  0.41934  1.0000
  C   C116      1.0  0.35857  0.06976  0.34759  1.0000
  C   C117      1.0  0.33013  0.04873  0.31706  1.0000
  C   C118      1.0  0.40073  0.11833  0.35652  1.0000
  C   C119      1.0  0.40003  0.11470  0.38322  1.0000
  C   C120      1.0  0.37928  0.12411  0.39780  1.0000
  C   C121      1.0  0.35924  0.13726  0.38570  1.0000
  C   C122      1.0  0.36051  0.14174  0.35920  1.0000
  C   C123      1.0  0.38123  0.13240  0.34465  1.0000
  H   H182      1.0  0.41504  0.10370  0.39246  1.0000
  H   H183      1.0  0.37814  0.12010  0.41814  1.0000
  H   H184      1.0  0.34508  0.15199  0.34978  1.0000
  H   H185      1.0  0.38186  0.13562  0.32417  1.0000
  H   H186      1.0  0.30661  0.05551  0.40255  1.0000
  H   H187      1.0  0.15808  0.44049  0.45430  1.0000
  C   C124      1.0  0.02280  0.18267  0.27126  1.0000
  C   C125      1.0  0.03651  0.16222  0.28195  1.0000
  C   C126      1.0  0.04825  0.16491  0.30613  1.0000
  C   C127      1.0  0.04679  0.18816  0.31973  1.0000
  C   C128      1.0  0.03346  0.20879  0.30882  1.0000
  C   C129      1.0  0.02140  0.20597  0.28477  1.0000
  H   H188      1.0  0.03788  0.14421  0.27176  1.0000
  H   H189      1.0  0.05844  0.14881  0.31439  1.0000
  H   H190      1.0  0.03211  0.22675  0.31910  1.0000
  H   H191      1.0  0.45295  0.18537  0.25263  1.0000
  H   H192      1.0  0.29243  0.06099  0.30148  1.0000
  H   H193      1.0  0.32272  0.10494  0.35125  1.0000
  H   H194      1.0  0.29163  0.03135  0.31966  1.0000
  H   H195      1.0  0.45401  0.15565  0.46722  1.0000
  H   H196      1.0  0.07291  0.23093  0.26386  1.0000
  H   H197      1.0  0.02158  0.38593  0.39837  1.0000
  H   H198      1.0  0.38963  0.05090  0.36826  1.0000
  H   H199      1.0  0.29742  0.09008  0.33458  1.0000
  C   C130      1.0  0.22174  0.42277  0.39160  1.0000
  C   C131      1.0  0.03482  0.33092  0.34053  1.0000
  N   N7        1.0  0.14193  0.16859  0.37025  1.0000
  C   C132      1.0  0.15741  0.18663  0.38679  1.0000
  C   C133      1.0  0.11603  0.16571  0.38303  1.0000
  C   C134      1.0  0.13843  0.18129  0.34446  1.0000
  C   C135      1.0  0.15642  0.14360  0.36783  1.0000
  C   C136      1.0  0.18444  0.19393  0.37698  1.0000
  C   C137      1.0  0.11617  0.15334  0.40994  1.0000
  C   C138      1.0  0.12387  0.16596  0.32390  1.0000
  C   C139      1.0  0.14075  0.11956  0.36013  1.0000
  H   H200      1.0  0.14681  0.20494  0.38986  1.0000
  H   H201      1.0  0.16046  0.17834  0.40619  1.0000
  H   H202      1.0  0.10235  0.15461  0.37128  1.0000
  H   H203      1.0  0.10657  0.18479  0.38509  1.0000
  H   H204      1.0  0.12825  0.19998  0.34673  1.0000
  H   H205      1.0  0.15725  0.18579  0.33550  1.0000
  H   H206      1.0  0.17236  0.14565  0.35368  1.0000
  H   H207      1.0  0.16591  0.13880  0.38638  1.0000
  H   H208      1.0  0.19463  0.20445  0.39246  1.0000
  H   H209      1.0  0.19637  0.17697  0.37222  1.0000
  H   H210      1.0  0.18352  0.20730  0.36044  1.0000
  H   H211      1.0  0.09606  0.14903  0.41566  1.0000
  H   H212      1.0  0.12712  0.13514  0.41060  1.0000
  H   H213      1.0  0.12372  0.16670  0.42461  1.0000
  H   H214      1.0  0.12106  0.17842  0.30682  1.0000
  H   H215      1.0  0.10444  0.16006  0.33011  1.0000
  H   H216      1.0  0.13512  0.14910  0.31737  1.0000
  H   H217      1.0  0.15134  0.10886  0.34501  1.0000
  H   H218      1.0  0.12136  0.12331  0.35247  1.0000
  H   H219      1.0  0.13906  0.10615  0.37663  1.0000
  H   H220      1.0  0.44641  0.13400  0.44101  1.0000
  H   H221      1.0  0.22579  0.41122  0.47427  1.0000
  C   C140      1.0  0.01125  0.33455  0.35823  1.0000
  H   H222      1.0  0.33896  0.02972  0.32123  1.0000
  H   H223      1.0  0.44808  0.17730  0.36210  1.0000
  C   C141      1.0  0.23035  0.11070  0.48984  1.0000
  H   H224      1.0  0.41235  0.30842  0.25774  1.0000
  H   H225      1.0  0.18227  0.40284  0.45733  1.0000
  H   H226      1.0  0.38335  0.03716  0.33714  1.0000
  C   C142      1.0  0.37426  0.04555  0.35451  1.0000
  H   H227      1.0  0.34831  0.10604  0.30799  1.0000
  H   H228      1.0  0.02982  0.33686  0.43844  1.0000
  H   H229      1.0  0.05513  0.33180  0.38547  1.0000
  H   H230      1.0  0.32008  0.12525  0.31066  1.0000
  H   H231      1.0  0.33967  0.06170  0.39610  1.0000
  H   H232      1.0  0.15944  0.42167  0.39093  1.0000
  H   H233      1.0  0.32085  0.03216  0.36334  1.0000
  H   H234      1.0  0.19117  0.38272  0.39238  1.0000
  C   C143      1.0  0.16938  0.44856  0.43799  1.0000
  H   H235      1.0  0.04944  0.36215  0.42445  1.0000
  H   H236      1.0  0.31553  0.08571  0.38901  1.0000
  H   H237      1.0  0.04569  0.31344  0.34601  1.0000
  C   C144      1.0  0.31992  0.06488  0.38876  1.0000
  H   H238      1.0  0.29519  0.05346  0.35804  1.0000
  C   C145      1.0  0.20288  0.44022  0.40629  1.0000
  H   H239      1.0  0.02242  0.38356  0.33925  1.0000
  H   H240      1.0  0.31883  0.09600  0.29314  1.0000
  H   H241      1.0  0.36928  0.07893  0.33157  1.0000
  H   H242      1.0  0.13368  0.45289  0.41535  1.0000
  C   C146      1.0  0.07780  0.22441  0.24415  1.0000
  H   H243      1.0  0.14255  0.48033  0.43359  1.0000
  H   H244      1.0  0.23927  0.43398  0.38688  1.0000
  H   H245      1.0  0.15964  0.47337  0.40487  1.0000
  C   C147      1.0  0.19690  0.41133  0.44419  1.0000
  S   S51       1.0  0.01057  0.28137  0.43796  1.0000
  H   H246      1.0  0.44719  0.24038  0.43668  1.0000
  N   N8        1.0  0.33089  0.06564  0.34041  1.0000
  Fe  Fe28      1.0  0.16707  0.47087  0.29985  1.0000
  N   N9        1.0  0.18387  0.42757  0.42408  1.0000
  H   H247      1.0  0.44015  0.20632  0.37714  1.0000
  C   C148      1.0  0.30314  0.04325  0.30626  1.0000
  C   C149      1.0  0.46176  0.22591  0.43084  1.0000
  C   C150      1.0  0.31621  0.05295  0.36193  1.0000
  C   C151      1.0  0.21692  0.42528  0.46091  1.0000
  S   S52       1.0  0.39418  0.11811  0.26845  1.0000
  H   H248      1.0  0.02095  0.41067  0.35981  1.0000
  H   H249      1.0  0.20694  0.39458  0.43576  1.0000
  H   H250      1.0  0.02839  0.32812  0.32044  1.0000
  H   H251      1.0  0.21423  0.45528  0.41620  1.0000
  H   H252      1.0  0.22217  0.26079  0.44888  1.0000
  H   H253      1.0  0.01073  0.22189  0.27674  1.0000
  H   H254      1.0  0.18285  0.46271  0.44658  1.0000
  C   C152      1.0  0.02562  0.37480  0.38060  1.0000
  H   H255      1.0  0.34212  0.05691  0.30138  1.0000
  C   C153      1.0  0.16468  0.41179  0.40916  1.0000
  H   H256      1.0  0.42734  0.13446  0.46942  1.0000
  H   H257      1.0  0.19262  0.45118  0.39125  1.0000
  H   H258      1.0  0.03143  0.31165  0.39862  1.0000
  N   N10       1.0  0.43152  0.18628  0.42626  1.0000
  C   C154      1.0  0.41980  0.16700  0.44450  1.0000
  C   C155      1.0  0.41093  0.20580  0.42019  1.0000
  C   C156      1.0  0.45387  0.19884  0.43980  1.0000
  C   C157      1.0  0.44053  0.17204  0.40275  1.0000
  C   C158      1.0  0.43832  0.14683  0.45593  1.0000
  C   C159      1.0  0.38727  0.19556  0.40571  1.0000
  C   C160      1.0  0.36348  0.99720  0.26697  1.0000
  C   C161      1.0  0.45077  0.18822  0.38020  1.0000
  H   H259      1.0  0.41049  0.17693  0.46099  1.0000
  H   H260      1.0  0.40429  0.15592  0.43505  1.0000
  H   H261      1.0  0.41833  0.22193  0.40850  1.0000
  H   H262      1.0  0.40391  0.21500  0.43818  1.0000
  H   H263      1.0  0.44970  0.20102  0.46061  1.0000
  S   S53       1.0  0.25880  0.22234  0.46561  1.0000
  H   H264      1.0  0.45642  0.15864  0.40770  1.0000
  H   H265      1.0  0.42541  0.15907  0.39523  1.0000
  C   C162      1.0  0.17241  0.38407  0.40215  1.0000
  H   H266      1.0  0.36041  0.08377  0.36349  1.0000
  H   H267      1.0  0.04817  0.34746  0.34090  1.0000
  H   H268      1.0  0.37615  0.18169  0.41736  1.0000
  H   H269      1.0  0.37404  0.21180  0.40161  1.0000
  C   C163      1.0  0.03720  0.33209  0.39693  1.0000
  H   H270      1.0  0.21311  0.41604  0.37335  1.0000
  H   H271      1.0  0.22091  0.18005  0.46380  1.0000
  H   H272      1.0  0.39911  0.00671  0.24782  1.0000
  S   S54       1.0  0.18181  0.45062  0.26267  1.0000
  Fe  Fe29      1.0  0.43500  0.05537  0.25657  1.0000
  C   C164      1.0  0.32722  0.10516  0.31033  1.0000
  H   H273      1.0  0.47134  0.18650  0.43876  1.0000
  H   H274      1.0  0.47156  0.19231  0.38255  1.0000
  H   H275      1.0  0.23272  0.43352  0.44923  1.0000
  N   N11       1.0  0.01655  0.34741  0.38356  1.0000
  H   H276      1.0  0.37387  0.00625  0.28318  1.0000
  Fe  Fe30      1.0  0.35602  0.19488  0.48337  1.0000
  H   H277      1.0  0.00477  0.10471  0.30255  1.0000
  Fe  Fe31      1.0  0.38125  0.07951  0.25398  1.0000
  H   H278      1.0  0.15795  0.37611  0.38870  1.0000
  H   H279      1.0  0.12781  0.46261  0.24868  1.0000
  H   H280      1.0  0.34483  0.00754  0.26571  1.0000
  H   H281      1.0  0.39402  0.26880  0.25486  1.0000
  H   H282      1.0  0.46579  0.23128  0.24992  1.0000
  H   H283      1.0  0.99627  0.35420  0.41940  1.0000
  H   H284      1.0  0.38028  0.31954  0.24986  1.0000
  H   H285      1.0  0.99664  0.34519  0.34699  1.0000
  H   H286      1.0  0.47994  0.23131  0.44057  1.0000
  C   C165      1.0  0.01470  0.39039  0.35787  1.0000
  C   C166      1.0  0.21105  0.19752  0.45866  1.0000
  C   C167      1.0  0.40035  0.31802  0.24298  1.0000
  H   H287      1.0  0.07805  0.20313  0.24495  1.0000
  S   S55       1.0  0.45468  0.01575  0.24978  1.0000
  S   S56       1.0  0.33892  0.07027  0.24816  1.0000
  H   H288      1.0  0.22034  0.10582  0.47171  1.0000
  H   H289      1.0  0.46521  0.22713  0.40997  1.0000
  H   H290      1.0  0.00278  0.31515  0.36142  1.0000
  H   H291      1.0  0.24932  0.11870  0.48444  1.0000
  H   H292      1.0  0.99351  0.39041  0.35705  1.0000
  H   H293      1.0  0.21075  0.14676  0.49186  1.0000
  S   S57       1.0  0.39290  0.21895  0.49251  1.0000
  H   H294      1.0  0.49240  0.01493  0.62464  1.0000
  S   S58       1.0  0.25384  0.00873  0.61984  1.0000
  S   S59       1.0  0.25432  0.02016  0.54344  1.0000
  H   H295      1.0  0.24844  0.18522  0.55241  1.0000
  H   H296      1.0  0.46295  0.28673  0.66776  1.0000
  H   H297      1.0  0.30738  0.02574  0.72612  1.0000
  S   S60       1.0  0.31558  0.12548  0.53488  1.0000
  C   C168      1.0  0.42516  0.21557  0.50502  1.0000
  C   C169      1.0  0.45384  0.25666  0.58473  1.0000
  C   C170      1.0  0.24801  0.48801  0.71382  1.0000
  C   C171      1.0  0.47751  0.21209  0.52279  1.0000
  C   C172      1.0  0.34645  0.45458  0.70198  1.0000
  H   H298      1.0  0.22230  0.03384  0.71533  1.0000
  C   C173      1.0  0.27853  0.01919  0.69554  1.0000
  H   H299      1.0  0.31517  0.03911  0.69552  1.0000
  C   C174      1.0  0.46154  0.19026  0.52126  1.0000
  C   C175      1.0  0.47529  0.28137  0.65118  1.0000
  N   N12       1.0  0.47214  0.26910  0.60326  1.0000
  C   C176      1.0  0.43102  0.27340  0.57602  1.0000
  H   H300      1.0  0.25991  0.02613  0.73975  1.0000
  C   C177      1.0  0.27281  0.04858  0.54105  1.0000
  C   C178      1.0  0.27558  0.06066  0.51705  1.0000
  H   H301      1.0  0.29127  0.09299  0.49610  1.0000
  C   C179      1.0  0.30003  0.09534  0.53633  1.0000
  C   C180      1.0  0.29742  0.08315  0.56026  1.0000
  C   C181      1.0  0.28397  0.05985  0.56262  1.0000
  C   C182      1.0  0.44118  0.23737  0.50642  1.0000
  H   H302      1.0  0.20249  0.08804  0.53447  1.0000
  H   H303      1.0  0.30576  0.09185  0.57712  1.0000
  H   H304      1.0  0.28203  0.05075  0.58118  1.0000
  H   H305      1.0  0.32804  0.44754  0.69375  1.0000
  N   N13       1.0  0.26249  0.99890  0.70871  1.0000
  H   H306      1.0  0.23861  0.99320  0.67524  1.0000
  H   H307      1.0  0.36536  0.41950  0.68941  1.0000
  Fe  Fe32      1.0  0.32045  0.15096  0.49972  1.0000
  H   H308      1.0  0.47877  0.25272  0.51583  1.0000
  N   N14       1.0  0.22508  0.13910  0.52998  1.0000
  C   C183      1.0  0.23096  0.11677  0.54748  1.0000
  C   C184      1.0  0.24984  0.15318  0.52471  1.0000
  C   C185      1.0  0.20890  0.09762  0.55229  1.0000
  C   C186      1.0  0.20567  0.15622  0.54293  1.0000
  C   C187      1.0  0.28925  0.08388  0.51464  1.0000
  C   C188      1.0  0.26078  0.16859  0.54742  1.0000
  H   H309      1.0  0.44546  0.25860  0.63379  1.0000
  C   C189      1.0  0.19817  0.18091  0.52816  1.0000
  H   H310      1.0  0.24751  0.10549  0.54015  1.0000
  H   H311      1.0  0.23719  0.12360  0.56667  1.0000
  H   H312      1.0  0.46413  0.24985  0.56729  1.0000
  C   C190      1.0  0.30641  0.02224  0.70520  1.0000
  H   H313      1.0  0.17036  0.48866  0.69682  1.0000
  C   C191      1.0  0.21393  0.13019  0.50492  1.0000
  H   H314      1.0  0.18733  0.14576  0.54605  1.0000
  H   H315      1.0  0.21169  0.16149  0.56272  1.0000
  H   H316      1.0  0.24478  0.46894  0.72138  1.0000
  H   H317      1.0  0.43733  0.29077  0.56550  1.0000
  H   H318      1.0  0.37877  0.48944  0.71701  1.0000
  C   C192      1.0  0.36690  0.48273  0.73345  1.0000
  H   H319      1.0  0.26411  0.15642  0.56453  1.0000
  H   H320      1.0  0.27977  0.17644  0.54188  1.0000
  H   H321      1.0  0.44475  0.29126  0.62550  1.0000
  H   H322      1.0  0.20122  0.02085  0.69163  1.0000
  H   H323      1.0  0.21607  0.08212  0.56512  1.0000
  S   S61       1.0  0.31996  0.19351  0.50780  1.0000
  H   H324      1.0  0.18186  0.17728  0.51494  1.0000
  H   H325      1.0  0.19253  0.19607  0.54204  1.0000
  C   C193      1.0  0.45814  0.27476  0.62801  1.0000
  H   H326      1.0  0.26516  0.13953  0.51882  1.0000
  C   C194      1.0  0.36395  0.43118  0.70717  1.0000
  H   H327      1.0  0.30487  0.48410  0.70978  1.0000
  C   C195      1.0  0.43568  0.19194  0.51264  1.0000
  H   H328      1.0  0.48801  0.29794  0.64729  1.0000
  H   H329      1.0  0.21411  0.18930  0.51690  1.0000
  H   H330      1.0  0.38380  0.43703  0.71218  1.0000
  C   C196      1.0  0.23658  0.99878  0.69576  1.0000
  H   H331      1.0  0.46730  0.30906  0.59228  1.0000
  H   H332      1.0  0.41901  0.26210  0.56254  1.0000
  H   H333      1.0  0.26710  0.05199  0.50026  1.0000
  Fe  Fe33      1.0  0.25443  0.99478  0.57910  1.0000
  H   H334      1.0  0.35568  0.46553  0.68610  1.0000
  H   H335      1.0  0.26965  0.03849  0.69772  1.0000
  H   H336      1.0  0.24809  0.16645  0.50804  1.0000
  H   H337      1.0  0.46918  0.17182  0.52702  1.0000
  H   H338      1.0  0.41854  0.27893  0.59237  1.0000
  C   C197      1.0  0.46696  0.23571  0.51520  1.0000
  C   C198      1.0  0.22173  0.02443  0.69633  1.0000
  H   H339      1.0  0.19232  0.10665  0.56214  1.0000
  H   H340      1.0  0.19450  0.12176  0.50776  1.0000
  H   H341      1.0  0.44546  0.23893  0.59324  1.0000
  H   H342      1.0  0.22911  0.03779  0.68144  1.0000
  H   H343      1.0  0.29013  0.45202  0.73225  1.0000
  C   C199      1.0  0.48252  0.29404  0.59284  1.0000
  H   H344      1.0  0.42392  0.17488  0.51185  1.0000
  C   C200      1.0  0.48763  0.22465  0.61930  1.0000
  H   H345      1.0  0.23306  0.09252  0.50053  1.0000
  H   H346      1.0  0.31083  0.42448  0.72733  1.0000
  H   H347      1.0  0.23252  0.47849  0.67673  1.0000
  H   H348      1.0  0.48114  0.28664  0.55097  1.0000
  H   H349      1.0  0.35628  0.41847  0.72240  1.0000
  N   N15       1.0  0.34160  0.47176  0.72466  1.0000
  H   H350      1.0  0.31871  0.00565  0.70003  1.0000
  H   H351      1.0  0.47063  0.22500  0.63201  1.0000
  H   H352      1.0  0.43359  0.25578  0.50049  1.0000
  H   H353      1.0  0.27948  0.01563  0.67447  1.0000
  H   H354      1.0  0.48433  0.21020  0.60399  1.0000
  H   H355      1.0  0.99699  0.29010  0.52029  1.0000
  C   C201      1.0  0.30610  0.44058  0.74036  1.0000
  H   H356      1.0  0.48703  0.26472  0.65742  1.0000
  C   C202      1.0  0.26091  0.00495  0.73698  1.0000
  Fe  Fe34      1.0  0.47920  0.38856  0.76731  1.0000
  C   C203      1.0  0.00680  0.05818  0.77808  1.0000
  C   C204      1.0  0.23190  0.39665  0.97710  1.0000
  H   H357      1.0  0.43536  0.36359  0.80851  1.0000
  S   S62       1.0  0.07298  0.21909  0.93852  1.0000
  H   H358      1.0  0.01483  0.29241  0.81902  1.0000
  C   C205      1.0  0.99581  0.28329  0.86938  1.0000
  H   H359      1.0  0.45068  0.40602  0.81860  1.0000
  C   C206      1.0  0.32981  0.45712  0.74672  1.0000
  H   H360      1.0  0.41711  0.46097  0.85827  1.0000
  H   H361      1.0  0.01882  0.23859  0.86357  1.0000
  S   S63       1.0  0.00574  0.09275  0.78159  1.0000
  S   S64       1.0  0.30972  0.47434  0.82244  1.0000
  C   C207      1.0  0.44757  0.39306  0.83526  1.0000
  H   H362      1.0  0.18063  0.41537  0.92441  1.0000
  S   S65       1.0  0.28725  0.46688  0.89634  1.0000
  C   C208      1.0  0.25492  0.46361  0.98021  1.0000
  C   C209      1.0  0.27375  0.44635  0.97160  1.0000
  C   C210      1.0  0.28327  0.44771  0.94609  1.0000
  C   C211      1.0  0.27459  0.46657  0.92865  1.0000
  H   H363      1.0  0.45433  0.44250  0.87793  1.0000
  H   H364      1.0  0.38579  0.44892  0.86458  1.0000
  H   H365      1.0  0.20860  0.36522  0.96555  1.0000
  H   H366      1.0  0.29764  0.43405  0.93986  1.0000
  H   H367      1.0  0.45735  0.20580  0.97566  1.0000
  H   H368      1.0  0.15699  0.41799  0.96884  1.0000
  H   H369      1.0  0.48991  0.40999  0.88362  1.0000
  H   H370      1.0  0.28098  0.43184  0.98458  1.0000
  C   C212      1.0  0.17619  0.39948  0.93794  1.0000
  C   C213      1.0  0.00910  0.17514  0.92698  1.0000
  H   H371      1.0  0.42696  0.35636  0.84080  1.0000
  C   C214      1.0  0.42834  0.37220  0.82669  1.0000
  C   C215      1.0  0.02606  0.10335  0.89096  1.0000
  C   C216      1.0  0.04777  0.20119  0.92434  1.0000
  C   C217      1.0  0.04497  0.20171  0.89750  1.0000
  C   C218      1.0  0.02443  0.18896  0.88545  1.0000
  H   H372      1.0  0.02261  0.18937  0.86483  1.0000
  S   S66       1.0  0.43790  0.40259  0.76165  1.0000
  C   C219      1.0  0.02990  0.18753  0.93901  1.0000
  C   C220      1.0  0.17653  0.40996  0.96558  1.0000
  H   H373      1.0  0.05880  0.21212  0.88600  1.0000
  H   H374      1.0  0.02091  0.23924  0.80413  1.0000
  H   H375      1.0  0.03177  0.18705  0.95967  1.0000
  C   C221      1.0  0.42350  0.42861  0.77813  1.0000
  C   C222      1.0  0.39659  0.42947  0.78066  1.0000
  C   C223      1.0  0.38447  0.44978  0.79383  1.0000
  C   C224      1.0  0.39913  0.46977  0.80395  1.0000
  C   C225      1.0  0.42600  0.46892  0.80139  1.0000
  C   C226      1.0  0.43816  0.44839  0.78868  1.0000
  H   H376      1.0  0.38514  0.41411  0.77276  1.0000
  H   H377      1.0  0.36386  0.44995  0.79636  1.0000
  C   C227      1.0  0.25584  0.48391  0.93728  1.0000
  H   H378      1.0  0.45887  0.44804  0.78671  1.0000
  H   H379      1.0  0.41603  0.40978  0.90954  1.0000
  H   H380      1.0  0.46714  0.27963  0.95480  1.0000
  H   H381      1.0  0.04768  0.05760  0.77132  1.0000
  C   C228      1.0  0.03054  0.04600  0.77292  1.0000
  H   H382      1.0  0.05703  0.15383  0.82545  1.0000
  H   H383      1.0  0.04605  0.13566  0.91002  1.0000
  C   C229      1.0  0.01743  0.24933  0.84518  1.0000
  S   S67       1.0  0.13205  0.20647  0.98021  1.0000
  H   H384      1.0  0.42576  0.37499  0.87917  1.0000
  H   H385      1.0  0.39841  0.40490  0.86032  1.0000
  H   H386      1.0  0.41025  0.44519  0.88830  1.0000
  N   N16       1.0  0.44010  0.40827  0.85878  1.0000
  H   H387      1.0  0.46615  0.38297  0.83807  1.0000
  C   C230      1.0  0.44056  0.39017  0.88134  1.0000
  H   H388      1.0  0.46232  0.23139  0.93618  1.0000
  H   H389      1.0  0.01993  0.08418  0.89773  1.0000
  C   C231      1.0  0.00578  0.06693  0.85414  1.0000
  H   H390      1.0  0.29870  0.43199  0.75844  1.0000
  H   H391      1.0  0.05943  0.10429  0.91715  1.0000
  H   H392      1.0  0.08432  0.05681  0.88583  1.0000
  H   H393      1.0  0.45001  0.41733  0.91245  1.0000
  C   C232      1.0  0.01054  0.00343  0.77100  1.0000
  H   H394      1.0  0.48248  0.22282  0.99114  1.0000
  H   H395      1.0  0.00780  0.11435  0.88916  1.0000
  H   H396      1.0  0.17984  0.33482  0.97820  1.0000
  C   C233      1.0  0.20906  0.37853  0.98207  1.0000
  H   H397      1.0  0.22238  0.00856  0.75418  1.0000
  C   C234      1.0  0.05591  0.13298  0.82977  1.0000
  N   N17       1.0  0.99462  0.26718  0.84542  1.0000
  H   H398      1.0  0.43789  0.38707  0.92273  1.0000
  H   H399      1.0  0.05149  0.05798  0.89336  1.0000
  H   H400      1.0  0.05090  0.01031  0.76551  1.0000
  H   H401      1.0  0.04389  0.12430  0.81456  1.0000
  C   C235      1.0  0.99554  0.28359  0.82161  1.0000
  C   C236      1.0  0.16262  0.37152  0.99039  1.0000
  H   H402      1.0  0.15698  0.39164  0.93310  1.0000
  C   C237      1.0  0.16344  0.34750  0.97316  1.0000
  H   H403      1.0  0.03567  0.26029  0.84376  1.0000
  H   H404      1.0  0.02605  0.14066  0.85735  1.0000
  C   C238      1.0  0.41337  0.41904  0.85456  1.0000
  C   C239      1.0  0.40657  0.44487  0.86746  1.0000
  C   C240      1.0  0.04154  0.11515  0.91322  1.0000
  H   H405      1.0  0.40999  0.42267  0.83382  1.0000
  C   C241      1.0  0.00614  0.17596  0.90019  1.0000
  C   C242      1.0  0.43583  0.40220  0.90784  1.0000
  H   H406      1.0  0.03501  0.21679  0.82577  1.0000
  C   C243      1.0  0.01851  0.30222  0.87109  1.0000
  H   H407      1.0  0.03727  0.29214  0.87182  1.0000
  H   H408      1.0  0.45887  0.44230  0.84428  1.0000
  H   H409      1.0  0.40898  0.37999  0.82245  1.0000
  C   C244      1.0  0.45928  0.42976  0.86164  1.0000
  Fe  Fe35      1.0  0.08965  0.21501  0.97899  1.0000
  H   H410      1.0  0.45926  0.37974  0.88218  1.0000
  S   S68       1.0  0.99606  0.16258  0.81053  1.0000
  N   N18       1.0  0.03957  0.10218  0.86534  1.0000
  C   C245      1.0  0.04432  0.12949  0.85687  1.0000
  H   H411      1.0  0.01680  0.31322  0.88926  1.0000
  H   H412      1.0  0.07577  0.12538  0.82850  1.0000
  C   C246      1.0  0.06515  0.08870  0.86689  1.0000
  H   H413      1.0  0.00866  0.10393  0.83746  1.0000
  H   H414      1.0  0.02968  0.11442  0.93095  1.0000
  H   H415      1.0  0.19106  0.38486  0.93403  1.0000
  C   C247      1.0  0.06517  0.06107  0.87745  1.0000
  C   C248      1.0  0.01828  0.22977  0.82302  1.0000
  H   H416      1.0  0.05766  0.13950  0.87011  1.0000
  H   H417      1.0  0.01687  0.05157  0.86366  1.0000
  C   C249      1.0  0.47929  0.22934  0.94906  1.0000
  H   H418      1.0  0.14325  0.38033  0.98804  1.0000
  H   H419      1.0  0.18904  0.42730  0.96592  1.0000
  H   H420      1.0  0.07398  0.08722  0.84750  1.0000
  H   H421      1.0  0.07944  0.10014  0.87787  1.0000
  H   H422      1.0  0.32365  0.47049  0.76220  1.0000
  C   C250      1.0  0.03246  0.01900  0.76957  1.0000
  H   H423      1.0  0.24940  0.38501  0.97327  1.0000
  H   H424      1.0  0.06134  0.04704  0.86190  1.0000
  H   H425      1.0  0.14582  0.33598  0.97664  1.0000
  H   H426      1.0  0.48500  0.27032  0.98186  1.0000
  H   H427      1.0  0.03413  0.08295  0.82881  1.0000
  S   S69       1.0  0.48233  0.34768  0.78101  1.0000
  C   C251      1.0  0.24615  0.48240  0.96273  1.0000
  C   C252      1.0  0.02254  0.08972  0.84548  1.0000
  H   H428      1.0  0.34412  0.44415  0.75579  1.0000
  H   H429      1.0  0.47823  0.26842  0.91260  1.0000
  H   H430      1.0  0.22885  0.40904  0.96006  1.0000
  C   C253      1.0  0.48699  0.27470  0.96115  1.0000
  H   H431      1.0  0.43749  0.48428  0.80924  1.0000
  H   H432      1.0  0.16403  0.35209  0.95249  1.0000
  H   H433      1.0  0.45353  0.23929  0.98120  1.0000
  C   C254      1.0  0.46783  0.22434  0.97594  1.0000
  H   H434      1.0  0.99732  0.27091  0.88672  1.0000
  N   N19       1.0  0.18346  0.39139  0.98666  1.0000
  H   H435      1.0  0.01856  0.31645  0.85528  1.0000
  H   H436      1.0  0.99512  0.16503  0.93856  1.0000
  H   H437      1.0  0.99434  0.26563  0.74378  1.0000
  C   C255      1.0  0.48746  0.42170  0.86604  1.0000
  H   H438      1.0  0.00095  0.21755  0.82241  1.0000
  Fe  Fe36      1.0  0.29468  0.49167  0.85973  1.0000
  H   H439      1.0  0.48747  0.22341  0.89832  1.0000
  H   H440      1.0  0.99664  0.05832  0.83693  1.0000
  H   H441      1.0  0.48916  0.21135  0.94296  1.0000
  H   H442      1.0  0.27876  0.99853  0.74689  1.0000
  C   C256      1.0  0.23771  0.99386  0.75199  1.0000
  H   H443      1.0  0.37891  0.46764  0.74265  1.0000
  C   C257      1.0  0.11142  0.93569  0.05686  1.0000
  H   H444      1.0  0.09597  0.92747  0.06891  1.0000
  H   H445      1.0  0.13139  0.54767  0.20408  1.0000
  H   H446      1.0  0.14430  0.92546  0.07942  1.0000
  H   H447      1.0  0.17891  0.90661  0.00796  1.0000
  C   C258      1.0  0.35494  0.96508  0.22106  1.0000
  S   S70       1.0  0.17787  0.86516  0.04576  1.0000
  H   H448      1.0  0.23397  0.78841  0.05133  1.0000
  S   S71       1.0  0.22192  0.98877  0.13079  1.0000
  C   C259      1.0  0.33176  0.98133  0.21226  1.0000
  H   H449      1.0  0.27858  0.77688  0.04488  1.0000
  C   C260      1.0  0.27599  0.81902  0.04457  1.0000
  H   H450      1.0  0.10770  0.92642  0.14123  1.0000
  C   C261      1.0  0.03172  0.79112  0.03463  1.0000
  C   C262      1.0  0.27340  0.84073  0.00296  1.0000
  C   C263      1.0  0.09949  0.55028  0.23075  1.0000
  H   H451      1.0  0.28964  0.79068  0.01493  1.0000
  H   H452      1.0  0.04005  0.79967  0.05156  1.0000
  H   H453      1.0  0.27291  0.86880  0.06464  1.0000
  H   H454      1.0  0.01090  0.72329  0.03042  1.0000
  C   C264      1.0  0.15542  0.96501  0.10904  1.0000
  C   C265      1.0  0.20201  0.94965  0.05177  1.0000
  C   C266      1.0  0.20425  0.93315  0.07282  1.0000
  C   C267      1.0  0.19699  0.90725  0.07058  1.0000
  C   C268      1.0  0.18759  0.89758  0.04728  1.0000
  C   C269      1.0  0.18598  0.91388  0.02604  1.0000
  C   C270      1.0  0.19325  0.93979  0.02828  1.0000
  H   H455      1.0  0.21140  0.94039  0.09086  1.0000
  H   H456      1.0  0.19852  0.89467  0.08704  1.0000
  H   H457      1.0  0.26578  0.81534  0.06300  1.0000
  C   C271      1.0  0.28856  0.79346  0.03596  1.0000
  H   H458      1.0  0.48026  0.97490  0.22414  1.0000
  H   H459      1.0  0.14953  0.95122  0.05861  1.0000
  H   H460      1.0  0.38581  0.97429  0.18218  1.0000
  H   H461      1.0  0.29086  0.85117  0.00941  1.0000
  N   N20       1.0  0.25791  0.83117  0.02553  1.0000
  H   H462      1.0  0.33247  0.98500  0.19129  1.0000
  H   H463      1.0  0.00598  0.74576  0.08260  1.0000
  H   H464      1.0  0.02377  0.72600  0.10392  1.0000
  H   H465      1.0  0.34925  0.95583  0.23929  1.0000
  H   H466      1.0  0.03665  0.87527  0.00267  1.0000
  H   H467      1.0  0.03489  0.73583  0.05218  1.0000
  C   C272      1.0  0.22220  0.79851  0.03683  1.0000
  H   H468      1.0  0.00822  0.68059  0.11147  1.0000
  N   N21       1.0  0.13089  0.96247  0.09393  1.0000
  H   H469      1.0  0.22906  0.86121  0.02539  1.0000
  H   H470      1.0  0.11100  0.98685  0.06641  1.0000
  C   C273      1.0  0.13529  0.94344  0.07254  1.0000
  H   H471      1.0  0.48641  0.68946  0.02828  1.0000
  H   H472      1.0  0.31372  0.97056  0.21590  1.0000
  H   H473      1.0  0.03642  0.69421  0.07566  1.0000
  C   C274      1.0  0.14403  0.49855  0.20110  1.0000
  C   C275      1.0  0.10845  0.95582  0.11100  1.0000
  C   C276      1.0  0.05703  0.87539  0.99647  1.0000
  N   N22       1.0  0.99653  0.70522  0.08013  1.0000
  H   H474      1.0  0.20538  0.49394  0.23397  1.0000
  H   H475      1.0  0.15044  0.94078  0.14322  1.0000
  H   H476      1.0  0.24811  0.89061  0.05557  1.0000
  H   H477      1.0  0.04257  0.71021  0.03100  1.0000
  H   H478      1.0  0.18274  0.94586  0.13391  1.0000
  S   S72       1.0  0.15714  0.80347  0.01229  1.0000
  C   C277      1.0  0.02704  0.71821  0.04328  1.0000
  H   H479      1.0  0.27298  0.88358  0.03315  1.0000
  C   C278      1.0  0.11595  0.53489  0.21150  1.0000
  H   H480      1.0  0.10885  0.96796  0.12861  1.0000
  H   H481      1.0  0.46367  0.50676  0.17156  1.0000
  C   C279      1.0  0.45186  0.49350  0.15979  1.0000
  C   C280      1.0  0.16320  0.94225  0.12624  1.0000
  H   H482      1.0  0.42877  0.99039  0.19483  1.0000
  H   H483      1.0  0.06669  0.89058  0.00781  1.0000
  H   H484      1.0  0.19157  0.95240  0.01186  1.0000
  H   H485      1.0  0.22154  0.49761  0.18910  1.0000
  H   H486      1.0  0.12024  0.91421  0.11171  1.0000
  C   C281      1.0  0.38624  0.98981  0.19688  1.0000
  H   H487      1.0  0.21022  0.78364  0.02739  1.0000
  H   H488      1.0  0.06650  0.85713  0.00185  1.0000
  H   H489      1.0  0.17754  0.53229  0.22784  1.0000
  C   C282      1.0  0.23848  0.81198  0.01606  1.0000
  H   H490      1.0  0.29190  0.83241  0.04939  1.0000
  H   H491      1.0  0.28584  0.53902  0.99775  1.0000
  C   C283      1.0  0.04718  0.78790  0.01257  1.0000
  H   H492      1.0  0.17181  0.96915  0.09595  1.0000
  H   H493      1.0  0.23287  0.84595  0.05537  1.0000
  H   H494      1.0  0.11722  0.92053  0.04300  1.0000
  C   C284      1.0  0.24383  0.85292  0.03841  1.0000
  H   H495      1.0  0.20872  0.81201  0.04634  1.0000
  H   H496      1.0  0.08181  0.53976  0.23624  1.0000
  C   C285      1.0  0.10601  0.92757  0.12002  1.0000
  H   H497      1.0  0.15461  0.98165  0.12201  1.0000
  C   C286      1.0  0.01922  0.69806  0.06353  1.0000
  H   H498      1.0  0.08669  0.92003  0.11509  1.0000
  C   C287      1.0  0.00550  0.78370  0.03498  1.0000
  H   H499      1.0  0.12495  0.50895  0.16479  1.0000
  H   H500      1.0  0.10371  0.95179  0.04532  1.0000
  H   H501      1.0  0.15992  0.51178  0.19589  1.0000
  S   S73       1.0  0.08010  0.79858  0.01305  1.0000
  H   H502      1.0  0.16422  0.92377  0.11591  1.0000
  H   H503      1.0  0.01629  0.67988  0.05309  1.0000
  H   H504      1.0  0.35685  0.94881  0.20731  1.0000
  H   H505      1.0  0.09316  0.56847  0.22159  1.0000
  S   S74       1.0  0.20842  0.98288  0.05425  1.0000
  N   N23       1.0  0.38011  0.97924  0.22320  1.0000
  H   H506      1.0  0.43256  0.50231  0.15791  1.0000
  H   H507      1.0  0.99403  0.78657  0.05206  1.0000
  C   C288      1.0  0.26078  0.87503  0.04832  1.0000
  H   H508      1.0  0.22455  0.82116  0.00283  1.0000
  Fe  Fe37      1.0  0.16292  0.84608  0.00953  1.0000
  C   C289      1.0  0.12597  0.98824  0.08144  1.0000
  H   H509      1.0  0.24782  0.79669  0.00451  1.0000
  H   H510      1.0  0.48753  0.72374  0.03273  1.0000
  H   H511      1.0  0.10323  0.53127  0.19479  1.0000
  H   H512      1.0  0.40299  0.94550  0.21477  1.0000
  N   N24       1.0  0.12701  0.51010  0.22150  1.0000
  H   H513      1.0  0.15480  0.55511  0.24103  1.0000
  H   H514      1.0  0.30862  0.79264  0.04316  1.0000
  C   C290      1.0  0.00434  0.72865  0.09532  1.0000
  H   H515      1.0  0.99750  0.64956  0.07450  1.0000
  H   H516      1.0  0.41999  0.97017  0.23082  1.0000
  C   C291      1.0  0.40110  0.96042  0.22996  1.0000
  H   H517      1.0  0.48996  0.92975  0.23456  1.0000
  Fe  Fe38      1.0  0.11867  0.80972  0.99297  1.0000
  H   H518      1.0  0.09007  0.96084  0.10127  1.0000
  C   C292      1.0  0.99419  0.77269  0.01325  1.0000
  H   H519      1.0  0.03615  0.60636  0.31764  1.0000
  S   S75       1.0  0.41436  0.75938  0.47032  1.0000
  H   H520      1.0  0.25560  0.62815  0.47644  1.0000
  H   H521      1.0  0.25893  0.82223  0.44091  1.0000
  H   H522      1.0  0.04296  0.62690  0.39208  1.0000
  S   S76       1.0  0.20315  0.50457  0.38813  1.0000
  H   H523      1.0  0.06850  0.54733  0.36657  1.0000
  H   H524      1.0  0.26932  0.84119  0.46734  1.0000
  H   H525      1.0  0.05880  0.56499  0.39499  1.0000
  H   H526      1.0  0.47413  0.86904  0.44798  1.0000
  Fe  Fe39      1.0  0.48768  0.85939  0.30088  1.0000
  S   S77       1.0  0.46509  0.82235  0.29718  1.0000
  H   H527      1.0  0.09026  0.56891  0.38145  1.0000
  H   H528      1.0  0.22544  0.75651  0.46672  1.0000
  H   H529      1.0  0.01336  0.62455  0.40872  1.0000
  Fe  Fe40      1.0  0.12969  0.51152  0.32006  1.0000
  S   S78       1.0  0.10792  0.54753  0.30787  1.0000
  S   S79       1.0  0.17281  0.51122  0.31469  1.0000
  C   C293      1.0  0.21710  0.52203  0.47505  1.0000
  C   C294      1.0  0.47962  0.85751  0.43091  1.0000
  H   H530      1.0  0.05355  0.64067  0.34825  1.0000
  C   C295      1.0  0.20687  0.51137  0.42190  1.0000
  C   C296      1.0  0.18762  0.52183  0.43791  1.0000
  C   C297      1.0  0.19281  0.52744  0.46426  1.0000
  H   H531      1.0  0.06947  0.50841  0.29512  1.0000
  C   C298      1.0  0.29841  0.81710  0.45158  1.0000
  H   H532      1.0  0.16898  0.52619  0.42989  1.0000
  H   H533      1.0  0.17805  0.53593  0.47617  1.0000
  H   H534      1.0  0.49231  0.89373  0.41446  1.0000
  C   C299      1.0  0.22255  0.83410  0.49010  1.0000
  H   H535      1.0  0.13056  0.51902  0.26211  1.0000
  C   C300      1.0  0.47323  0.93075  0.27228  1.0000
  C   C301      1.0  0.46045  0.94670  0.29010  1.0000
  C   C302      1.0  0.45466  0.97284  0.28399  1.0000
  H   H536      1.0  0.03796  0.60211  0.41581  1.0000
  H   H537      1.0  0.38076  0.93496  0.25747  1.0000
  H   H538      1.0  0.46820  0.79787  0.45574  1.0000
  C   C303      1.0  0.02718  0.55360  0.27255  1.0000
  C   C304      1.0  0.04247  0.57534  0.27587  1.0000
  C   C305      1.0  0.06733  0.57299  0.28622  1.0000
  C   C306      1.0  0.07713  0.54894  0.29355  1.0000
  C   C307      1.0  0.06212  0.52706  0.28968  1.0000
  C   C308      1.0  0.03731  0.52940  0.27904  1.0000
  H   H539      1.0  0.03515  0.59398  0.27038  1.0000
  H   H540      1.0  0.07895  0.58997  0.28878  1.0000
  H   H541      1.0  0.07043  0.58580  0.34057  1.0000
  H   H542      1.0  0.02569  0.51245  0.27629  1.0000
  C   C309      1.0  0.41600  0.77433  0.43982  1.0000
  C   C310      1.0  0.43528  0.76674  0.42246  1.0000
  C   C311      1.0  0.43901  0.77999  0.39916  1.0000
  C   C312      1.0  0.42338  0.80096  0.39296  1.0000
  C   C313      1.0  0.40340  0.80786  0.40983  1.0000
  C   C314      1.0  0.39979  0.79472  0.43321  1.0000
  H   H543      1.0  0.44766  0.75075  0.42728  1.0000
  H   H544      1.0  0.45406  0.77412  0.38607  1.0000
  H   H545      1.0  0.39106  0.82389  0.40508  1.0000
  H   H546      1.0  0.38486  0.80075  0.44637  1.0000
  H   H547      1.0  0.15338  0.49674  0.25072  1.0000
  H   H548      1.0  0.24603  0.49820  0.42108  1.0000
  C   C315      1.0  0.02323  0.56459  0.34430  1.0000
  H   H549      1.0  0.02041  0.64538  0.35908  1.0000
  H   H550      1.0  0.31278  0.56598  0.45096  1.0000
  H   H551      1.0  0.46212  0.85665  0.41857  1.0000
  C   C316      1.0  0.16344  0.53581  0.24337  1.0000
  C   C317      1.0  0.06966  0.56601  0.37673  1.0000
  H   H552      1.0  0.20127  0.83548  0.49109  1.0000
  H   H553      1.0  0.45496  0.93890  0.30854  1.0000
  C   C318      1.0  0.29456  0.55554  0.45438  1.0000
  C   C319      1.0  0.23578  0.51100  0.45902  1.0000
  H   H554      1.0  0.30173  0.79840  0.44202  1.0000
  H   H555      1.0  0.26206  0.77586  0.44534  1.0000
  H   H556      1.0  0.99730  0.60153  0.37571  1.0000
  Fe  Fe41      1.0  0.46496  0.82162  0.34062  1.0000
  H   H557      1.0  0.44855  0.81843  0.43792  1.0000
  H   H558      1.0  0.02534  0.54881  0.35854  1.0000
  C   C320      1.0  0.02900  0.61301  0.39983  1.0000
  C   C321      1.0  0.24411  0.61475  0.48831  1.0000
  H   H559      1.0  0.41478  0.93252  0.25757  1.0000
  C   C322      1.0  0.46504  0.81839  0.45138  1.0000
  N   N25       1.0  0.03177  0.58992  0.35549  1.0000
  H   H560      1.0  0.28656  0.55020  0.43537  1.0000
  H   H561      1.0  0.47792  0.81638  0.40116  1.0000
  C   C323      1.0  0.03300  0.63828  0.34342  1.0000
  H   H562      1.0  0.09496  0.49928  0.24580  1.0000
  S   S80       1.0  0.48227  0.89779  0.27832  1.0000
  H   H563      1.0  0.06861  0.60605  0.36726  1.0000
  H   H564      1.0  0.02915  0.65094  0.32668  1.0000
  H   H565      1.0  0.47093  0.83446  0.49032  1.0000
  H   H566      1.0  0.21952  0.79330  0.49034  1.0000
  H   H567      1.0  0.25452  0.50654  0.46677  1.0000
  H   H568      1.0  0.01420  0.57597  0.39046  1.0000
  H   H569      1.0  0.44122  0.81795  0.48561  1.0000
  C   C324      1.0  0.23003  0.80774  0.47881  1.0000
  S   S81       1.0  0.42856  0.81970  0.36501  1.0000
  H   H570      1.0  0.25241  0.73542  0.46792  1.0000
  H   H571      1.0  0.26708  0.58594  0.45452  1.0000
  H   H572      1.0  0.30432  0.83223  0.43774  1.0000
  C   C325      1.0  0.48010  0.94151  0.24857  1.0000
  C   C326      1.0  0.46178  0.98339  0.26007  1.0000
  N   N26       1.0  0.48796  0.83083  0.43874  1.0000
  H   H573      1.0  0.31130  0.81898  0.46826  1.0000
  H   H574      1.0  0.29838  0.53725  0.46463  1.0000
  S   S82       1.0  0.48541  0.85940  0.34377  1.0000
  C   C327      1.0  0.06045  0.58817  0.35938  1.0000
  H   H575      1.0  0.28307  0.76898  0.47128  1.0000
  C   C328      1.0  0.99522  0.56325  0.33476  1.0000
  H   H576      1.0  0.49009  0.77615  0.42796  1.0000
  C   C329      1.0  0.26322  0.77562  0.46669  1.0000
  H   H577      1.0  0.36017  0.97708  0.27262  1.0000
  C   C330      1.0  0.27006  0.82148  0.45915  1.0000
  C   C331      1.0  0.02615  0.61060  0.33600  1.0000
  H   H578      1.0  0.03569  0.55902  0.32793  1.0000
  C   C332      1.0  0.24483  0.75401  0.47516  1.0000
  H   H579      1.0  0.22913  0.85023  0.47789  1.0000
  C   C333      1.0  0.27462  0.57202  0.46888  1.0000
  H   H580      1.0  0.11027  0.55561  0.24823  1.0000
  H   H581      1.0  0.30021  0.61280  0.46500  1.0000
  N   N27       1.0  0.25846  0.80215  0.47745  1.0000
  C   C334      1.0  0.01701  0.59444  0.38005  1.0000
  H   H582      1.0  0.32340  0.59612  0.48326  1.0000
  H   H583      1.0  0.44496  0.84918  0.47238  1.0000
  H   H584      1.0  0.22137  0.80636  0.45932  1.0000
  S   S83       1.0  0.34158  0.77616  0.48622  1.0000
  Fe  Fe42      1.0  0.17443  0.49505  0.35530  1.0000
  C   C335      1.0  0.45537  0.83102  0.47634  1.0000
  S   S84       1.0  0.99554  0.55602  0.26027  1.0000
  H   H585      1.0  0.17446  0.53625  0.26158  1.0000
  H   H586      1.0  0.40054  0.95982  0.27214  1.0000
  C   C336      1.0  0.30408  0.60527  0.48463  1.0000
  H   H587      1.0  0.00539  0.61132  0.33136  1.0000
  H   H588      1.0  0.23177  0.60290  0.47567  1.0000
  H   H589      1.0  0.44471  0.98477  0.29777  1.0000
  H   H590      1.0  0.25815  0.55931  0.47374  1.0000
  C   C337      1.0  0.39859  0.94637  0.25582  1.0000
  C   C338      1.0  0.14293  0.51451  0.24524  1.0000
  S   S85       1.0  0.13193  0.49833  0.36107  1.0000
  C   C339      1.0  0.23090  0.50617  0.43291  1.0000
  C   C340      1.0  0.47462  0.96734  0.24265  1.0000
  Fe  Fe43      1.0  0.25157  0.93839  0.59585  1.0000
  S   S86       1.0  0.25108  0.94814  0.63777  1.0000
  S   S87       1.0  0.24778  0.89612  0.58765  1.0000
  S   S88       1.0  0.00723  0.62858  0.64682  1.0000
  C   C341      1.0  0.06195  0.63861  0.56362  1.0000
  Fe  Fe44      1.0  0.22318  0.97896  0.62684  1.0000
  C   C342      1.0  0.13619  0.87167  0.60007  1.0000
  S   S89       1.0  0.28444  0.96430  0.58582  1.0000
  S   S90       1.0  0.22153  0.96738  0.58541  1.0000
  Fe  Fe45      1.0  0.34229  0.80550  0.51780  1.0000
  S   S91       1.0  0.38354  0.79840  0.52799  1.0000
  H   H591      1.0  0.11151  0.81362  0.72732  1.0000
  Fe  Fe46      1.0  0.32882  0.74826  0.51677  1.0000
  C   C343      1.0  0.36127  0.85380  0.58743  1.0000
  H   H592      1.0  0.05515  0.71199  0.60638  1.0000
  Fe  Fe47      1.0  0.36757  0.76918  0.55526  1.0000
  S   S92       1.0  0.37582  0.76685  0.59766  1.0000
  S   S93       1.0  0.32631  0.77858  0.54711  1.0000
  Fe  Fe48      1.0  0.41343  0.88285  0.70577  1.0000
  S   S94       1.0  0.42572  0.84190  0.71150  1.0000
  S   S95       1.0  0.37048  0.88564  0.70008  1.0000
  Fe  Fe49      1.0  0.45673  0.85160  0.68330  1.0000
  S   S96       1.0  0.46759  0.82722  0.64926  1.0000
  S   S97       1.0  0.44282  0.89154  0.67547  1.0000
  Fe  Fe50      1.0  0.03609  0.65182  0.66859  1.0000
  S   S98       1.0  0.01192  0.65404  0.70447  1.0000
  S   S99       1.0  0.07925  0.64562  0.67037  1.0000
  H   H593      1.0  0.38769  0.87028  0.64599  1.0000
  S   S100      1.0  0.18555  0.98742  0.64752  1.0000
  S   S101      1.0  0.36911  0.73656  0.52699  1.0000
  Fe  Fe51      1.0  0.18165  0.57728  0.58254  1.0000
  S   S102      1.0  0.19372  0.53586  0.58043  1.0000
  S   S103      1.0  0.13850  0.58333  0.58424  1.0000
  Fe  Fe52      1.0  0.23663  0.59604  0.57708  1.0000
  S   S104      1.0  0.25166  0.55557  0.57460  1.0000
  S   S105      1.0  0.26787  0.62646  0.57893  1.0000
  Fe  Fe53      1.0  0.21857  0.54856  0.54712  1.0000
  H   H594      1.0  0.18835  0.89725  0.66890  1.0000
  Fe  Fe54      1.0  0.22534  0.54713  0.60818  1.0000
  S   S106      1.0  0.23354  0.52305  0.64506  1.0000
  S   S107      1.0  0.20514  0.58961  0.54828  1.0000
  S   S108      1.0  0.21164  0.58787  0.61160  1.0000
  H   H595      1.0  0.19516  0.91029  0.60871  1.0000
  S   S109      1.0  0.05636  0.91953  0.72378  1.0000
  H   H596      1.0  0.45816  0.81316  0.59668  1.0000
  Fe  Fe55      1.0  0.46892  0.90286  0.70792  1.0000
  S   S110      1.0  0.03220  0.84702  0.70879  1.0000
  C   C344      1.0  0.24438  0.51795  0.67762  1.0000
  C   C345      1.0  0.25548  0.53699  0.69330  1.0000
  C   C346      1.0  0.26303  0.53133  0.71907  1.0000
  C   C347      1.0  0.25917  0.50667  0.72962  1.0000
  H   H597      1.0  0.23957  0.78689  0.52537  1.0000
  H   H598      1.0  0.13331  0.57811  0.69895  1.0000
  H   H599      1.0  0.35696  0.87882  0.55364  1.0000
  C   C348      1.0  0.05429  0.70998  0.54633  1.0000
  H   H600      1.0  0.34065  0.86688  0.64872  1.0000
  C   C349      1.0  0.12285  0.59965  0.60937  1.0000
  C   C350      1.0  0.13591  0.61680  0.62525  1.0000
  C   C351      1.0  0.12235  0.63058  0.64412  1.0000
  C   C352      1.0  0.09571  0.62742  0.64708  1.0000
  C   C353      1.0  0.08276  0.61002  0.63141  1.0000
  C   C354      1.0  0.09632  0.59617  0.61266  1.0000
  H   H601      1.0  0.15631  0.61981  0.62264  1.0000
  H   H602      1.0  0.13245  0.64404  0.65622  1.0000
  H   H603      1.0  0.06229  0.60731  0.63371  1.0000
  H   H604      1.0  0.08617  0.58286  0.60045  1.0000
  S   S111      1.0  0.02253  0.68968  0.65307  1.0000
  H   H605      1.0  0.38010  0.85439  0.55016  1.0000
  H   H606      1.0  0.33232  0.92496  0.59658  1.0000
  C   C355      1.0  0.02216  0.81390  0.71072  1.0000
  H   H607      1.0  0.18125  0.50302  0.66772  1.0000
  C   C356      1.0  0.13162  0.87956  0.66628  1.0000
  C   C357      1.0  0.07148  0.69825  0.60692  1.0000
  Fe  Fe56      1.0  0.28174  0.97640  0.62698  1.0000
  C   C358      1.0  0.40125  0.78432  0.61114  1.0000
  C   C359      1.0  0.40107  0.78869  0.63764  1.0000
  C   C360      1.0  0.42089  0.80262  0.64923  1.0000
  C   C361      1.0  0.44169  0.81125  0.63461  1.0000
  C   C362      1.0  0.44210  0.80657  0.60812  1.0000
  C   C363      1.0  0.42165  0.79354  0.59629  1.0000
  H   H608      1.0  0.38533  0.78155  0.64918  1.0000
  H   H609      1.0  0.42003  0.80637  0.66952  1.0000
  H   H610      1.0  0.06999  0.71115  0.53193  1.0000
  H   H611      1.0  0.42200  0.79002  0.57585  1.0000
  C   C364      1.0  0.28654  0.69664  0.52859  1.0000
  C   C365      1.0  0.30336  0.68847  0.54779  1.0000
  C   C366      1.0  0.29716  0.66708  0.56309  1.0000
  C   C367      1.0  0.27407  0.65366  0.55945  1.0000
  C   C368      1.0  0.25701  0.66203  0.54050  1.0000
  C   C369      1.0  0.26330  0.68337  0.52503  1.0000
  H   H612      1.0  0.32127  0.69853  0.55078  1.0000
  H   H613      1.0  0.31041  0.66086  0.57781  1.0000
  H   H614      1.0  0.23897  0.65217  0.53791  1.0000
  H   H615      1.0  0.25832  0.55604  0.68557  1.0000
  C   C370      1.0  0.27134  0.88291  0.56740  1.0000
  C   C371      1.0  0.27780  0.85692  0.56991  1.0000
  C   C372      1.0  0.29604  0.84575  0.55349  1.0000
  C   C373      1.0  0.30735  0.86029  0.53398  1.0000
  C   C374      1.0  0.30097  0.88633  0.53156  1.0000
  C   C375      1.0  0.28320  0.89770  0.54840  1.0000
  H   H616      1.0  0.26878  0.84543  0.58468  1.0000
  H   H617      1.0  0.30111  0.82584  0.55579  1.0000
  H   H618      1.0  0.46172  0.76844  0.67971  1.0000
  H   H619      1.0  0.27825  0.91776  0.54630  1.0000
  C   C376      1.0  0.33320  0.95552  0.66222  1.0000
  C   C377      1.0  0.31921  0.93303  0.66627  1.0000
  C   C378      1.0  0.33080  0.91193  0.67833  1.0000
  C   C379      1.0  0.35670  0.91283  0.68560  1.0000
  C   C380      1.0  0.37092  0.93511  0.68109  1.0000
  C   C381      1.0  0.35904  0.95656  0.66973  1.0000
  H   H620      1.0  0.29936  0.93196  0.66050  1.0000
  H   H621      1.0  0.31970  0.89477  0.68192  1.0000
  H   H622      1.0  0.39090  0.93595  0.68671  1.0000
  H   H623      1.0  0.29201  0.79983  0.50168  1.0000
  C   C382      1.0  0.17176  0.96819  0.67196  1.0000
  C   C383      1.0  0.14582  0.97178  0.67865  1.0000
  C   C384      1.0  0.13405  0.95632  0.69752  1.0000
  C   C385      1.0  0.14834  0.93744  0.71020  1.0000
  C   C386      1.0  0.17446  0.93436  0.70399  1.0000
  C   C387      1.0  0.18604  0.94939  0.68473  1.0000
  H   H624      1.0  0.11396  0.95896  0.70220  1.0000
  H   H625      1.0  0.18564  0.91982  0.71376  1.0000
  H   H626      1.0  0.20593  0.94629  0.67961  1.0000
  H   H627      1.0  0.18520  0.92957  0.63487  1.0000
  H   H628      1.0  0.04271  0.66974  0.60201  1.0000
  N   N28       1.0  0.15450  0.55075  0.67552  1.0000
  H   H629      1.0  0.32510  0.82105  0.64549  1.0000
  H   H630      1.0  0.02858  0.68223  0.56236  1.0000
  C   C388      1.0  0.13110  0.56730  0.68066  1.0000
  H   H631      1.0  0.36064  0.90459  0.63076  1.0000
  S   S112      1.0  0.48499  0.86330  0.71366  1.0000
  H   H632      1.0  0.32227  0.85885  0.62112  1.0000
  C   C389      1.0  0.17776  0.56410  0.68652  1.0000
  H   H633      1.0  0.42094  0.76345  0.69818  1.0000
  C   C390      1.0  0.15899  0.54751  0.64709  1.0000
  H   H634      1.0  0.22980  0.83659  0.50994  1.0000
  S   S113      1.0  0.43786  0.89783  0.73798  1.0000
  Fe  Fe57      1.0  0.38173  0.76690  0.49852  1.0000
  Fe  Fe58      1.0  0.99697  0.69147  0.68766  1.0000
  H   H635      1.0  0.27347  0.93229  0.70924  1.0000
  H   H636      1.0  0.24261  0.94693  0.70890  1.0000
  H   H637      1.0  0.14467  0.53093  0.61185  1.0000
  N   N29       1.0  0.16682  0.89240  0.63365  1.0000
  C   C391      1.0  0.00694  0.90513  0.67214  1.0000
  H   H638      1.0  0.11999  0.54355  0.63157  1.0000
  C   C392      1.0  0.37241  0.86853  0.56413  1.0000
  H   H639      1.0  0.26433  0.79978  0.54391  1.0000
  C   C393      1.0  0.02866  0.79686  0.69070  1.0000
  C   C394      1.0  0.21351  0.87764  0.64280  1.0000
  C   C395      1.0  0.15181  0.52528  0.68903  1.0000
  H   H640      1.0  0.45578  0.79750  0.69525  1.0000
  C   C396      1.0  0.34349  0.82750  0.63681  1.0000
  H   H641      1.0  0.32304  0.52961  0.69729  1.0000
  C   C397      1.0  0.03449  0.62902  0.56946  1.0000
  H   H642      1.0  0.27166  0.54608  0.73077  1.0000
  H   H643      1.0  0.14690  0.91736  0.66011  1.0000
  H   H644      1.0  0.14224  0.93710  0.61151  1.0000
  H   H645      1.0  0.34093  0.84971  0.58237  1.0000
  H   H646      1.0  0.31130  0.55875  0.54806  1.0000
  H   H647      1.0  0.01663  0.88672  0.66731  1.0000
  H   H648      1.0  0.14334  0.87751  0.68395  1.0000
  H   H649      1.0  0.05452  0.77280  0.74132  1.0000
  H   H650      1.0  0.17752  0.56315  0.70789  1.0000
  H   H651      1.0  0.03342  0.60822  0.56500  1.0000
  H   H652      1.0  0.04422  0.67245  0.53378  1.0000
  H   H653      1.0  0.06628  0.63350  0.54330  1.0000
  H   H654      1.0  0.26655  0.60912  0.52247  1.0000
  C   C398      1.0  0.99832  0.77861  0.73074  1.0000
  C   C399      1.0  0.14295  0.90014  0.64826  1.0000
  S   S114      1.0  0.13444  0.91627  0.73286  1.0000
  C   C400      1.0  0.48115  0.78878  0.73899  1.0000
  H   H655      1.0  0.14760  0.52843  0.70977  1.0000
  C   C401      1.0  0.00676  0.80448  0.73072  1.0000
  C   C402      1.0  0.17806  0.91562  0.62044  1.0000
  H   H656      1.0  0.41545  0.86052  0.59451  1.0000
  H   H657      1.0  0.48720  0.73586  0.67789  1.0000
  H   H658      1.0  0.02246  0.91942  0.67495  1.0000
  H   H659      1.0  0.19965  0.59959  0.68708  1.0000
  C   C403      1.0  0.04761  0.68187  0.55266  1.0000
  H   H660      1.0  0.19585  0.55433  0.68041  1.0000
  C   C404      1.0  0.09519  0.80403  0.73717  1.0000
  H   H661      1.0  0.02951  0.63103  0.59004  1.0000
  H   H662      1.0  0.24836  0.58227  0.51334  1.0000
  H   H663      1.0  0.17980  0.86503  0.66242  1.0000
  H   H664      1.0  0.02569  0.75826  0.67525  1.0000
  H   H665      1.0  0.01978  0.63874  0.55753  1.0000
  H   H666      1.0  0.03718  0.71932  0.53760  1.0000
  H   H667      1.0  0.17020  0.94845  0.59616  1.0000
  C   C405      1.0  0.16026  0.93063  0.60223  1.0000
  H   H668      1.0  0.07791  0.81546  0.73232  1.0000
  H   H669      1.0  0.31695  0.50454  0.73330  1.0000
  H   H670      1.0  0.12716  0.90627  0.63549  1.0000
  H   H671      1.0  0.36994  0.97395  0.66667  1.0000
  H   H672      1.0  0.32637  0.50263  0.67585  1.0000
  H   H673      1.0  0.22387  0.89573  0.63857  1.0000
  H   H674      1.0  0.13528  0.51417  0.68162  1.0000
  H   H675      1.0  0.22482  0.86755  0.65779  1.0000
  N   N30       1.0  0.06685  0.66678  0.56830  1.0000
  H   H676      1.0  0.39078  0.84103  0.62883  1.0000
  C   C406      1.0  0.09381  0.67229  0.55915  1.0000
  C   C407      1.0  0.06328  0.67182  0.59657  1.0000
  H   H677      1.0  0.16245  0.85219  0.62473  1.0000
  C   C408      1.0  0.11548  0.65810  0.57354  1.0000
  H   H678      1.0  0.21341  0.86524  0.62555  1.0000
  H   H679      1.0  0.32623  0.89370  0.58374  1.0000
  H   H680      1.0  0.07491  0.62651  0.57545  1.0000
  H   H681      1.0  0.37284  0.90521  0.59944  1.0000
  H   H682      1.0  0.07290  0.65694  0.60843  1.0000
  H   H683      1.0  0.42891  0.86727  0.62489  1.0000
  H   H684      1.0  0.11449  0.66111  0.59456  1.0000
  C   C409      1.0  0.10489  0.55370  0.68356  1.0000
  H   H685      1.0  0.13435  0.66561  0.56700  1.0000
  H   H686      1.0  0.08937  0.56839  0.68325  1.0000
  H   H687      1.0  0.34702  0.81538  0.61970  1.0000
  H   H688      1.0  0.07757  0.69600  0.62725  1.0000
  H   H689      1.0  0.13465  0.98639  0.66896  1.0000
  H   H690      1.0  0.11560  0.63729  0.56919  1.0000
  S   S115      1.0  0.29415  0.72297  0.50842  1.0000
  H   H691      1.0  0.35858  0.82398  0.65140  1.0000
  C   C410      1.0  0.13833  0.53280  0.63211  1.0000
  H   H692      1.0  0.29271  0.58729  0.54686  1.0000
  C   C411      1.0  0.35822  0.89565  0.61152  1.0000
  H   H693      1.0  0.12968  0.86071  0.65670  1.0000
  C   C412      1.0  0.18626  0.88313  0.65309  1.0000
  C   C413      1.0  0.30649  0.57552  0.53579  1.0000
  H   H694      1.0  0.30973  0.89773  0.51656  1.0000
  C   C414      1.0  0.43678  0.76512  0.71235  1.0000
  C   C415      1.0  0.16203  0.87107  0.61468  1.0000
  H   H695      1.0  0.00532  0.94898  0.71289  1.0000
  C   C416      1.0  0.33211  0.51045  0.69480  1.0000
  H   H696      1.0  0.17766  0.53776  0.64343  1.0000
  H   H697      1.0  0.31173  0.55553  0.50093  1.0000
  H   H698      1.0  0.16065  0.56641  0.63743  1.0000
  H   H699      1.0  0.13544  0.51307  0.63941  1.0000
  H   H700      1.0  0.37102  0.83474  0.58830  1.0000
  H   H701      1.0  0.05934  0.72130  0.56346  1.0000
  H   H702      1.0  0.99339  0.95154  0.68155  1.0000
  H   H703      1.0  0.00554  0.89693  0.71204  1.0000
  H   H704      1.0  0.08829  0.70668  0.59720  1.0000
  H   H705      1.0  0.31652  0.90174  0.61606  1.0000
  H   H706      1.0  0.17777  0.87029  0.60015  1.0000
  N   N31       1.0  0.48533  0.77524  0.71369  1.0000
  C   C417      1.0  0.00500  0.76147  0.71083  1.0000
  H   H707      1.0  0.44068  0.74572  0.72007  1.0000
  C   C418      1.0  0.38771  0.86190  0.62631  1.0000
  C   C419      1.0  0.26258  0.94952  0.71562  1.0000
  H   H708      1.0  0.16582  0.60502  0.68753  1.0000
  S   S116      1.0  0.22622  0.52866  0.50782  1.0000
  H   H709      1.0  0.09571  0.66743  0.53841  1.0000
  H   H710      1.0  0.29533  0.97327  0.71217  1.0000
  C   C420      1.0  0.41206  0.87134  0.61250  1.0000
  H   H711      1.0  0.12895  0.58212  0.66549  1.0000
  C   C421      1.0  0.27556  0.97344  0.70419  1.0000
  H   H712      1.0  0.15646  0.91970  0.58444  1.0000
  H   H713      1.0  0.32419  0.64025  0.49552  1.0000
  H   H714      1.0  0.38822  0.88188  0.56845  1.0000
  H   H715      1.0  0.41194  0.89229  0.60904  1.0000
  H   H716      1.0  0.13915  0.86322  0.58073  1.0000
  C   C422      1.0  0.18109  0.59267  0.67924  1.0000
  C   C423      1.0  0.02038  0.77091  0.69082  1.0000
  S   S117      1.0  0.31846  0.98286  0.64888  1.0000
  H   H717      1.0  0.32466  0.58616  0.53274  1.0000
  H   H718      1.0  0.04017  0.80377  0.67486  1.0000
  H   H719      1.0  0.99515  0.91053  0.65543  1.0000
  H   H720      1.0  0.18185  0.59573  0.65829  1.0000
  C   C424      1.0  0.46044  0.77704  0.69906  1.0000
  H   H721      1.0  0.27777  0.97001  0.68326  1.0000
  H   H722      1.0  0.47312  0.80837  0.73582  1.0000
  H   H723      1.0  0.29040  0.64244  0.49962  1.0000
  H   H724      1.0  0.10072  0.53984  0.66815  1.0000
  N   N32       1.0  0.36243  0.86703  0.61318  1.0000
  C   C425      1.0  0.33174  0.90417  0.60131  1.0000
  H   H725      1.0  0.11219  0.88575  0.67272  1.0000
  H   H726      1.0  0.27004  0.77038  0.52684  1.0000
  H   H727      1.0  0.09854  0.69295  0.56017  1.0000
  C   C426      1.0  0.30698  0.62928  0.50174  1.0000
  H   H728      1.0  0.09396  0.78449  0.72892  1.0000
  H   H729      1.0  0.25011  0.68965  0.51029  1.0000
  H   H730      1.0  0.10356  0.54368  0.70233  1.0000
  C   C427      1.0  0.34146  0.85631  0.63017  1.0000
  S   S118      1.0  0.32883  0.84637  0.51185  1.0000
  H   H731      1.0  0.49047  0.96783  0.63337  1.0000
  H   H732      1.0  0.12785  0.89090  0.59698  1.0000
  H   H733      1.0  0.12188  0.85911  0.60969  1.0000
  H   H734      1.0  0.30955  0.62484  0.52230  1.0000
  C   C428      1.0  0.26107  0.59758  0.50552  1.0000
  C   C429      1.0  0.26058  0.78945  0.52571  1.0000
  Fe  Fe59      1.0  0.04492  0.87934  0.73673  1.0000
  C   C430      1.0  0.27140  0.80521  0.50308  1.0000
  H   H735      1.0  0.42958  0.77767  0.72796  1.0000
  H   H736      1.0  0.27221  0.82568  0.50899  1.0000
  C   C431      1.0  0.17532  0.50727  0.68770  1.0000
  H   H737      1.0  0.19178  0.51509  0.69863  1.0000
  C   C432      1.0  0.29548  0.56577  0.51024  1.0000
  H   H738      1.0  0.35304  0.51392  0.69466  1.0000
  H   H739      1.0  0.22358  0.98416  0.70392  1.0000
  H   H740      1.0  0.26346  0.94960  0.73686  1.0000
  C   C433      1.0  0.48871  0.72802  0.69751  1.0000
  Fe  Fe60      1.0  0.45224  0.85723  0.74148  1.0000
  H   H741      1.0  0.99474  0.55837  0.69542  1.0000
  H   H742      1.0  0.48334  0.74051  0.73625  1.0000
  H   H743      1.0  0.47135  0.71644  0.70187  1.0000
  C   C434      1.0  0.24101  0.49345  0.68828  1.0000
  H   H744      1.0  0.23095  0.62625  0.50052  1.0000
  H   H745      1.0  0.28086  0.55080  0.51485  1.0000
  C   C435      1.0  0.32314  0.49258  0.71671  1.0000
  S   S119      1.0  0.99364  0.72877  0.71218  1.0000
  H   H746      1.0  0.24336  0.75207  0.49621  1.0000
  N   N33       1.0  0.28413  0.58573  0.49254  1.0000
  H   H747      1.0  0.27162  0.86201  0.96705  1.0000
  S   S120      1.0  0.45979  0.83936  0.78069  1.0000
  N   N34       1.0  0.29822  0.55847  0.93502  1.0000
  H   H748      1.0  0.06764  0.83100  0.97010  1.0000
  Fe  Fe61      1.0  0.17600  0.80167  0.97310  1.0000
  S   S121      1.0  0.18329  0.84407  0.97161  1.0000
  H   H749      1.0  0.24838  0.49819  0.92421  1.0000
  Fe  Fe62      1.0  0.14366  0.84660  0.95436  1.0000
  S   S122      1.0  0.13654  0.87625  0.92330  1.0000
  S   S123      1.0  0.13673  0.80397  0.95355  1.0000
  Fe  Fe63      1.0  0.06369  0.88957  0.79163  1.0000
  S   S124      1.0  0.02551  0.89482  0.77213  1.0000
  S   S125      1.0  0.06410  0.86349  0.82668  1.0000
  Fe  Fe64      1.0  0.03998  0.93468  0.76139  1.0000
  H   H750      1.0  0.04732  0.77388  0.97382  1.0000
  S   S126      1.0  0.01133  0.96906  0.76575  1.0000
  S   S127      1.0  0.07711  0.92988  0.78344  1.0000
  Fe  Fe65      1.0  0.39702  0.74009  0.87824  1.0000
  S   S128      1.0  0.40083  0.76615  0.91226  1.0000
  S   S129      1.0  0.39612  0.75031  0.83559  1.0000
  Fe  Fe66      1.0  0.38574  0.69399  0.91251  1.0000
  S   S130      1.0  0.38840  0.71727  0.94892  1.0000
  S   S131      1.0  0.38220  0.65052  0.91227  1.0000
  Fe  Fe67      1.0  0.36462  0.74703  0.92755  1.0000
  S   S132      1.0  0.33099  0.77412  0.93976  1.0000
  Fe  Fe68      1.0  0.42425  0.73412  0.93065  1.0000
  S   S133      1.0  0.46253  0.74201  0.95231  1.0000
  S   S134      1.0  0.36021  0.72234  0.89253  1.0000
  S   S135      1.0  0.42227  0.70956  0.89536  1.0000
  Fe  Fe69      1.0  0.30503  0.54598  0.83971  1.0000
  S   S136      1.0  0.27027  0.52028  0.83773  1.0000
  S   S137      1.0  0.29927  0.58808  0.84903  1.0000
  C   C436      1.0  0.05866  0.81613  0.93313  1.0000
  H   H751      1.0  0.33680  0.55504  0.95109  1.0000
  S   S138      1.0  0.32154  0.53317  0.80200  1.0000
  S   S139      1.0  0.32838  0.51843  0.86304  1.0000
  C   C437      1.0  0.35843  0.63350  0.89531  1.0000
  C   C438      1.0  0.33643  0.64557  0.88577  1.0000
  C   C439      1.0  0.31827  0.63136  0.87180  1.0000
  C   C440      1.0  0.32226  0.60516  0.86688  1.0000
  C   C441      1.0  0.34425  0.59311  0.87644  1.0000
  C   C442      1.0  0.36207  0.60717  0.89091  1.0000
  H   H752      1.0  0.33333  0.66579  0.88929  1.0000
  H   H753      1.0  0.30119  0.64075  0.86459  1.0000
  H   H754      1.0  0.34756  0.57299  0.87267  1.0000
  H   H755      1.0  0.37907  0.59774  0.89827  1.0000
  S   S140      1.0  0.26848  0.49705  0.76165  1.0000
  C   C443      1.0  0.36510  0.50482  0.75295  1.0000
  C   C444      1.0  0.11918  0.87108  0.89472  1.0000
  C   C445      1.0  0.10697  0.84775  0.88971  1.0000
  C   C446      1.0  0.09050  0.84554  0.86845  1.0000
  C   C447      1.0  0.08668  0.86638  0.85172  1.0000
  C   C448      1.0  0.09971  0.88932  0.85615  1.0000
  C   C449      1.0  0.11573  0.89170  0.87770  1.0000
  H   H756      1.0  0.10965  0.83172  0.90261  1.0000
  H   H757      1.0  0.08045  0.82773  0.86512  1.0000
  H   H758      1.0  0.09685  0.90550  0.84343  1.0000
  H   H759      1.0  0.12511  0.90981  0.88149  1.0000
  C   C450      1.0  0.24264  0.77322  0.95645  1.0000
  C   C451      1.0  0.25698  0.75020  0.95640  1.0000
  C   C452      1.0  0.28367  0.74989  0.95065  1.0000
  C   C453      1.0  0.29674  0.77273  0.94512  1.0000
  C   C454      1.0  0.28234  0.79572  0.94486  1.0000
  C   C455      1.0  0.25558  0.79595  0.95017  1.0000
  H   H760      1.0  0.24739  0.73240  0.96107  1.0000
  H   H761      1.0  0.29420  0.73199  0.95106  1.0000
  H   H762      1.0  0.29197  0.81355  0.94047  1.0000
  H   H763      1.0  0.24492  0.81371  0.94942  1.0000
  S   S141      1.0  0.20907  0.77252  0.96529  1.0000
  H   H764      1.0  0.08691  0.84356  0.94568  1.0000
  C   C456      1.0  0.44182  0.81454  0.79551  1.0000
  C   C457      1.0  0.44749  0.80763  0.82096  1.0000
  C   C458      1.0  0.43376  0.78799  0.83349  1.0000
  C   C459      1.0  0.41435  0.77484  0.82056  1.0000
  C   C460      1.0  0.40885  0.78152  0.79499  1.0000
  C   C461      1.0  0.42237  0.80142  0.78257  1.0000
  H   H765      1.0  0.46258  0.81761  0.83110  1.0000
  H   H766      1.0  0.43831  0.78294  0.85311  1.0000
  H   H767      1.0  0.39378  0.77154  0.78485  1.0000
  H   H768      1.0  0.41760  0.80677  0.76311  1.0000
  N   N35       1.0  0.35550  0.81994  0.86054  1.0000
  C   C462      1.0  0.34787  0.79517  0.87356  1.0000
  C   C463      1.0  0.38236  0.82613  0.86947  1.0000
  C   C464      1.0  0.35514  0.81528  0.83193  1.0000
  C   C465      1.0  0.33622  0.84021  0.86806  1.0000
  C   C466      1.0  0.32189  0.78348  0.86549  1.0000
  C   C467      1.0  0.38496  0.83370  0.89797  1.0000
  C   C468      1.0  0.37047  0.83391  0.81473  1.0000
  C   C469      1.0  0.34216  0.86811  0.86010  1.0000
  H   H769      1.0  0.36270  0.78008  0.87032  1.0000
  H   H770      1.0  0.34668  0.79768  0.89461  1.0000
  H   H771      1.0  0.39108  0.84210  0.85852  1.0000
  H   H772      1.0  0.39540  0.80952  0.86589  1.0000
  H   H773      1.0  0.36289  0.79585  0.82747  1.0000
  H   H774      1.0  0.33506  0.81532  0.82461  1.0000
  H   H775      1.0  0.31709  0.83586  0.85971  1.0000
  H   H776      1.0  0.33254  0.83995  0.88915  1.0000
  H   H777      1.0  0.32163  0.77800  0.84496  1.0000
  H   H778      1.0  0.31878  0.76558  0.87670  1.0000
  H   H779      1.0  0.30546  0.79625  0.87005  1.0000
  H   H780      1.0  0.40558  0.83709  0.90225  1.0000
  H   H781      1.0  0.37455  0.85175  0.90233  1.0000
  H   H782      1.0  0.37848  0.81846  0.91129  1.0000
  H   H783      1.0  0.00500  0.82103  0.96671  1.0000
  N   N36       1.0  0.08001  0.79282  0.78344  1.0000
  H   H784      1.0  0.39147  0.83183  0.81761  1.0000
  H   H785      1.0  0.33267  0.87290  0.84163  1.0000
  H   H786      1.0  0.36286  0.87248  0.85857  1.0000
  H   H787      1.0  0.33468  0.88138  0.87502  1.0000
  H   H788      1.0  0.43772  0.63505  0.86185  1.0000
  H   H789      1.0  0.07481  0.78817  0.82459  1.0000
  H   H790      1.0  0.34763  0.51243  0.93796  1.0000
  C   C470      1.0  0.05961  0.88204  0.96776  1.0000
  H   H791      1.0  0.01610  0.81247  0.79209  1.0000
  C   C471      1.0  0.06656  0.83876  0.95043  1.0000
  H   H792      1.0  0.11871  0.79161  0.76793  1.0000
  H   H793      1.0  0.01776  0.89592  0.91810  1.0000
  H   H794      1.0  0.04854  0.80860  0.76088  1.0000
  C   C472      1.0  0.02172  0.85710  0.95257  1.0000
  H   H795      1.0  0.04214  0.90285  0.89510  1.0000
  H   H796      1.0  0.99945  0.84770  0.98707  1.0000
  C   C473      1.0  0.10085  0.80320  0.76615  1.0000
  H   H797      1.0  0.36478  0.85416  0.81714  1.0000
  H   H798      1.0  0.04568  0.91512  0.92659  1.0000
  N   N37       1.0  0.04994  0.86248  0.94880  1.0000
  H   H799      1.0  0.35622  0.52225  0.74454  1.0000
  C   C474      1.0  0.11490  0.78308  0.81763  1.0000
  H   H800      1.0  0.36691  0.82895  0.79432  1.0000
  H   H801      1.0  0.48559  0.69325  0.93364  1.0000
  C   C475      1.0  0.28542  0.54932  0.91072  1.0000
  H   H802      1.0  0.02917  0.78134  0.79845  1.0000
  C   C476      1.0  0.31996  0.60104  0.94998  1.0000
  H   H803      1.0  0.06462  0.74067  0.74587  1.0000
  H   H804      1.0  0.09109  0.81673  0.81561  1.0000
  H   H805      1.0  0.31659  0.62209  0.94925  1.0000
  H   H806      1.0  0.04926  0.90054  0.96556  1.0000
  H   H807      1.0  0.23152  0.49583  0.96889  1.0000
  H   H808      1.0  0.13140  0.79323  0.80876  1.0000
  C   C477      1.0  0.40383  0.63645  0.83761  1.0000
  H   H809      1.0  0.25874  0.58164  0.90300  1.0000
  C   C478      1.0  0.03360  0.80210  0.79856  1.0000
  H   H810      1.0  0.43987  0.65921  0.83764  1.0000
  H   H811      1.0  0.03733  0.80861  0.81846  1.0000
  H   H812      1.0  0.37933  0.61676  0.78060  1.0000
  C   C479      1.0  0.05388  0.87361  0.92229  1.0000
  H   H813      1.0  0.41239  0.62056  0.82619  1.0000
  H   H814      1.0  0.33932  0.59785  0.94155  1.0000
  H   H815      1.0  0.36870  0.67055  0.77344  1.0000
  H   H816      1.0  0.06173  0.82028  0.91252  1.0000
  H   H817      1.0  0.08031  0.88629  0.96398  1.0000
  Fe  Fe70      1.0  0.28833  0.50576  0.80070  1.0000
  C   C480      1.0  0.28244  0.54926  0.95748  1.0000
  C   C481      1.0  0.07533  0.76469  0.77843  1.0000
  H   H818      1.0  0.03854  0.81010  0.93636  1.0000
  H   H819      1.0  0.35304  0.69501  0.80831  1.0000
  S   S142      1.0  0.08236  0.87304  0.75663  1.0000
  C   C482      1.0  0.05613  0.80899  0.78057  1.0000
  H   H820      1.0  0.38478  0.51013  0.75919  1.0000
  H   H821      1.0  0.37607  0.67106  0.85725  1.0000
  H   H822      1.0  0.04858  0.85958  0.90719  1.0000
  H   H823      1.0  0.33686  0.67880  0.83444  1.0000
  H   H824      1.0  0.35252  0.70878  0.83933  1.0000
  H   H825      1.0  0.29760  0.55393  0.89376  1.0000
  H   H826      1.0  0.31908  0.50827  0.91994  1.0000
  H   H827      1.0  0.31997  0.59534  0.97038  1.0000
  C   C483      1.0  0.29898  0.58749  0.93417  1.0000
  N   N38       1.0  0.38695  0.65336  0.82113  1.0000
  C   C484      1.0  0.36364  0.63776  0.81399  1.0000
  C   C485      1.0  0.37902  0.67648  0.83679  1.0000
  C   C486      1.0  0.40246  0.66141  0.79804  1.0000
  C   C487      1.0  0.36887  0.61297  0.79874  1.0000
  C   C488      1.0  0.35396  0.69029  0.82891  1.0000
  C   C489      1.0  0.38852  0.67703  0.77715  1.0000
  H   H828      1.0  0.34952  0.64894  0.80269  1.0000
  H   H829      1.0  0.28018  0.59576  0.94026  1.0000
  H   H830      1.0  0.41882  0.67369  0.80405  1.0000
  H   H831      1.0  0.41210  0.64476  0.78871  1.0000
  H   H832      1.0  0.35015  0.60415  0.79357  1.0000
  H   H833      1.0  0.09385  0.75453  0.77494  1.0000
  H   H834      1.0  0.35300  0.63214  0.83162  1.0000
  H   H835      1.0  0.07450  0.87815  0.91915  1.0000
  H   H836      1.0  0.01109  0.87535  0.95591  1.0000
  H   H837      1.0  0.25178  0.55273  0.88643  1.0000
  H   H838      1.0  0.33559  0.55357  0.91744  1.0000
  H   H839      1.0  0.39229  0.62704  0.85292  1.0000
  C   C490      1.0  0.29339  0.55396  0.98450  1.0000
  C   C491      1.0  0.03878  0.89827  0.91569  1.0000
  C   C492      1.0  0.08911  0.79601  0.81077  1.0000
  H   H840      1.0  0.37922  0.59845  0.81039  1.0000
  H   H841      1.0  0.26322  0.55859  0.95749  1.0000
  C   C493      1.0  0.32509  0.54750  0.93509  1.0000
  H   H842      1.0  0.27778  0.52853  0.95580  1.0000
  H   H843      1.0  0.11533  0.76248  0.81246  1.0000
  H   H844      1.0  0.24414  0.55462  0.91968  1.0000
  H   H845      1.0  0.39458  0.69114  0.83702  1.0000
  C   C494      1.0  0.25850  0.56046  0.90509  1.0000
  H   H846      1.0  0.28315  0.52812  0.91068  1.0000
  C   C495      1.0  0.25910  0.85845  0.98396  1.0000
  C   C496      1.0  0.42649  0.64974  0.85118  1.0000
  H   H847      1.0  0.30190  0.59438  0.91417  1.0000
  H   H848      1.0  0.31772  0.51039  0.95459  1.0000
  C   C497      1.0  0.32704  0.51799  0.93701  1.0000
  H   H849      1.0  0.06065  0.82954  0.78386  1.0000
  C   C498      1.0  0.01416  0.83856  0.97457  1.0000
  H   H850      1.0  0.41971  0.66367  0.86569  1.0000
  H   H851      1.0  0.31448  0.55201  0.98567  1.0000
  Fe  Fe71      1.0  0.34185  0.50279  0.82514  1.0000
  H   H852      1.0  0.39866  0.67434  0.75857  1.0000
  H   H853      1.0  0.07106  0.79938  0.93777  1.0000
  H   H854      1.0  0.06688  0.75550  0.79582  1.0000
  H   H855      1.0  0.01344  0.84895  0.93465  1.0000
  H   H856      1.0  0.11776  0.78432  0.83872  1.0000
  H   H857      1.0  0.38851  0.69781  0.78192  1.0000
  H   H858      1.0  0.10608  0.82306  0.77208  1.0000
  H   H859      1.0  0.03791  0.75202  0.76345  1.0000
  H   H860      1.0  0.35447  0.49900  0.77041  1.0000
  Fe  Fe72      1.0  0.09276  0.91355  0.74632  1.0000
  H   H861      1.0  0.00142  0.76064  0.97437  1.0000
  H   H862      1.0  0.24116  0.84980  0.97673  1.0000
  H   H863      1.0  0.22933  0.97611  0.74410  1.0000
  C   C499      1.0  0.05707  0.75783  0.75605  1.0000
  H   H864      1.0  0.03002  0.83254  0.98718  1.0000
  H   H865      1.0  0.46664  0.77857  0.75092  1.0000
  S   S143      1.0  0.38483  0.49585  0.82036  1.0000
  H   H866      1.0  0.00089  0.81725  0.74596  1.0000
  H   H867      1.0  0.24393  0.98920  0.77183  1.0000
  H   H868      1.0  0.25460  0.87743  0.99246  1.0000
  C   C500      1.0  0.00972  0.76927  0.99128  1.0000
  S   S144      1.0  0.12409  0.85260  0.99233  1.0000
  H   H869      1.0  0.28093  0.82443  0.99147  1.0000
  C   C501      1.0  0.03587  0.77682  0.99088  1.0000
  H   H870      1.0  0.28750  0.57309  0.99182  1.0000
  C   C502      1.0  0.51308  0.48051  0.21521  1.0000
  H   H871      1.0  0.90983  0.03467  0.22742  1.0000
  S   S145      1.0  0.57492  0.25741  0.03307  1.0000
  S   S146      1.0  0.50371  0.32284  0.16120  1.0000
  C   C503      1.0  0.63720  0.37452  0.04021  1.0000
  Fe  Fe73      1.0  0.78833  0.99433  0.11667  1.0000
  C   C504      1.0  0.74755  0.99875  0.01091  1.0000
  H   H872      1.0  0.85883  0.01388  0.05395  1.0000
  S   S147      1.0  0.77896  0.01987  0.08083  1.0000
  H   H873      1.0  0.86800  0.09400  0.12822  1.0000
  C   C505      1.0  0.66525  0.06701  0.00133  1.0000
  S   S148      1.0  0.80273  0.01524  0.15209  1.0000
  H   H874      1.0  0.82069  0.07526  0.06522  1.0000
  C   C506      1.0  0.84793  0.06679  0.03552  1.0000
  S   S149      1.0  0.63526  0.27676  0.99460  1.0000
  H   H875      1.0  0.62012  0.29057  0.04641  1.0000
  C   C507      1.0  0.56045  0.35346  0.07650  1.0000
  H   H876      1.0  0.55126  0.34235  0.06100  1.0000
  C   C508      1.0  0.52943  0.47372  0.19490  1.0000
  C   C509      1.0  0.52947  0.44836  0.18506  1.0000
  S   S150      1.0  0.95677  0.06227  0.21765  1.0000
  H   H877      1.0  0.89070  0.11212  0.11004  1.0000
  H   H878      1.0  0.59320  0.37212  0.01246  1.0000
  H   H879      1.0  0.54847  0.37074  0.08014  1.0000
  H   H880      1.0  0.60146  0.46338  0.20965  1.0000
  H   H881      1.0  0.66218  0.07292  0.02165  1.0000
  C   C510      1.0  0.76418  0.04155  0.00603  1.0000
  C   C511      1.0  0.77224  0.04097  0.03205  1.0000
  C   C512      1.0  0.76855  0.01910  0.04771  1.0000
  H   H882      1.0  0.86331  0.05307  0.03017  1.0000
  H   H883      1.0  0.58400  0.30945  0.07497  1.0000
  H   H884      1.0  0.64459  0.33519  0.04730  1.0000
  H   H885      1.0  0.78141  0.05767  0.04011  1.0000
  H   H886      1.0  0.58126  0.31739  0.03178  1.0000
  H   H887      1.0  0.58656  0.37890  0.05721  1.0000
  C   C513      1.0  0.89864  0.02272  0.16414  1.0000
  C   C514      1.0  0.89483  0.02277  0.19070  1.0000
  C   C515      1.0  0.91267  0.03510  0.20687  1.0000
  C   C516      1.0  0.93419  0.04787  0.19663  1.0000
  C   C517      1.0  0.93767  0.04822  0.17002  1.0000
  C   C518      1.0  0.92015  0.03546  0.15393  1.0000
  H   H888      1.0  0.87844  0.01294  0.19884  1.0000
  H   H889      1.0  0.95417  0.05787  0.16188  1.0000
  H   H890      1.0  0.52151  0.28535  0.10559  1.0000
  C   C519      1.0  0.54957  0.27545  0.04691  1.0000
  C   C520      1.0  0.53479  0.29261  0.03246  1.0000
  C   C521      1.0  0.51508  0.30689  0.04433  1.0000
  C   C522      1.0  0.51029  0.30455  0.07082  1.0000
  C   C523      1.0  0.52508  0.28741  0.08524  1.0000
  C   C524      1.0  0.54442  0.27273  0.07325  1.0000
  H   H891      1.0  0.53860  0.29492  0.01222  1.0000
  H   H892      1.0  0.89012  0.04903  0.06511  1.0000
  H   H893      1.0  0.85535  0.08669  0.03437  1.0000
  H   H894      1.0  0.55567  0.25941  0.08455  1.0000
  H   H895      1.0  0.61596  0.27800  0.07794  1.0000
  H   H896      1.0  0.56009  0.34181  0.09437  1.0000
  H   H897      1.0  0.85188  0.10296  0.08387  1.0000
  H   H898      1.0  0.64563  0.06592  0.99333  1.0000
  H   H899      1.0  0.85363  0.05156  0.12485  1.0000
  H   H900      1.0  0.62536  0.39112  0.04623  1.0000
  H   H901      1.0  0.64190  0.29958  0.07195  1.0000
  H   H902      1.0  0.63940  0.35342  0.07571  1.0000
  H   H903      1.0  0.57853  0.34697  0.99485  1.0000
  H   H904      1.0  0.70492  0.08811  0.02219  1.0000
  H   H905      1.0  0.79976  0.06521  0.10819  1.0000
  C   C525      1.0  0.63193  0.35009  0.05597  1.0000
  H   H906      1.0  0.88829  0.04046  0.09784  1.0000
  C   C526      1.0  0.58811  0.36157  0.06948  1.0000
  C   C527      1.0  0.88119  0.09310  0.11150  1.0000
  H   H907      1.0  0.54237  0.44350  0.16950  1.0000
  H   H908      1.0  0.83258  0.06501  0.02085  1.0000
  C   C528      1.0  0.60365  0.31778  0.07441  1.0000
  H   H909      1.0  0.61125  0.32587  0.01889  1.0000
  S   S151      1.0  0.87817  0.00585  0.14288  1.0000
  H   H910      1.0  0.83167  0.03476  0.10603  1.0000
  C   C529      1.0  0.58168  0.35447  0.01451  1.0000
  N   N39       1.0  0.60443  0.34105  0.05710  1.0000
  S   S152      1.0  0.51435  0.39732  0.18186  1.0000
  H   H911      1.0  0.54205  0.48803  0.18674  1.0000
  H   H912      1.0  0.85611  0.00595  0.08761  1.0000
  H   H913      1.0  0.76752  0.05844  0.99446  1.0000
  C   C530      1.0  0.51291  0.42930  0.19491  1.0000
  C   C531      1.0  0.84053  0.05402  0.10818  1.0000
  H   H914      1.0  0.63373  0.47887  0.23873  1.0000
  H   H915      1.0  0.65759  0.38014  0.04294  1.0000
  H   H916      1.0  0.82619  0.04222  0.06099  1.0000
  N   N40       1.0  0.85495  0.06126  0.08417  1.0000
  C   C532      1.0  0.86851  0.01476  0.07284  1.0000
  H   H917      1.0  0.88050  0.09112  0.07047  1.0000
  H   H918      1.0  0.81680  0.07258  0.13736  1.0000
  C   C533      1.0  0.81830  0.07211  0.11611  1.0000
  S   S153      1.0  0.97363  0.13045  0.19339  1.0000
  C   C534      1.0  0.49658  0.43608  0.21523  1.0000
  H   H919      1.0  0.82098  0.09222  0.11003  1.0000
  H   H920      1.0  0.88600  0.00260  0.07148  1.0000
  H   H921      1.0  0.60819  0.32313  0.09460  1.0000
  Fe  Fe74      1.0  0.98691  0.09056  0.20325  1.0000
  H   H922      1.0  0.69234  0.03752  0.01541  1.0000
  H   H923      1.0  0.59726  0.36841  0.08753  1.0000
  C   C535      1.0  0.70746  0.08657  0.00100  1.0000
  C   C536      1.0  0.87651  0.04227  0.08015  1.0000
  C   C537      1.0  0.72638  0.10789  0.99299  1.0000
  H   H924      1.0  0.89647  0.07874  0.11525  1.0000
  C   C538      1.0  0.83632  0.06097  0.06213  1.0000
  C   C539      1.0  0.86659  0.08766  0.08636  1.0000
  C   C540      1.0  0.59511  0.33352  0.03069  1.0000
  C   C541      1.0  0.62162  0.29542  0.06699  1.0000
  H   H925      1.0  0.92344  0.03537  0.13345  1.0000
  H   H926      1.0  0.56247  0.35943  0.02226  1.0000
  H   H927      1.0  0.63502  0.37086  0.01940  1.0000
  H   H928      1.0  0.51797  0.25040  0.99552  1.0000
  H   H929      1.0  0.74580  0.10316  0.00047  1.0000
  H   H930      1.0  0.50373  0.32015  0.03307  1.0000
  H   H931      1.0  0.66085  0.02603  0.00866  1.0000
  H   H932      1.0  0.72087  0.12666  0.00142  1.0000
  C   C542      1.0  0.49670  0.46138  0.22524  1.0000
  H   H933      1.0  0.71779  0.06815  0.99777  1.0000
  C   C543      1.0  0.60378  0.48440  0.21178  1.0000
  H   H934      1.0  0.91002  0.09280  0.23925  1.0000
  C   C544      1.0  0.75141  0.02051  0.99520  1.0000
  H   H935      1.0  0.91168  0.12646  0.23421  1.0000
  C   C545      1.0  0.67603  0.03936  0.00183  1.0000
  H   H936      1.0  0.66831  0.11791  0.01113  1.0000
  H   H937      1.0  0.56676  0.45471  0.23194  1.0000
  Fe  Fe75      1.0  0.59378  0.26504  0.99435  1.0000
  H   H938      1.0  0.61687  0.49058  0.19610  1.0000
  C   C546      1.0  0.61627  0.49114  0.23763  1.0000
  C   C547      1.0  0.75626  0.99790  0.03671  1.0000
  S   S154      1.0  0.99322  0.13768  0.11912  1.0000
  H   H939      1.0  0.55731  0.48979  0.29356  1.0000
  S   S155      1.0  0.74246  0.45103  0.40140  1.0000
  C   C548      1.0  0.93586  0.30017  0.45671  1.0000
  C   C549      1.0  0.94923  0.18167  0.28049  1.0000
  S   S156      1.0  0.88914  0.27379  0.46559  1.0000
  H   H940      1.0  0.93454  0.18517  0.29552  1.0000
  H   H941      1.0  0.92272  0.15912  0.25970  1.0000
  S   S157      1.0  0.81721  0.31040  0.46768  1.0000
  C   C550      1.0  0.97639  0.27893  0.44372  1.0000
  C   C551      1.0  0.96250  0.30111  0.45088  1.0000
  C   C552      1.0  0.91381  0.11133  0.24906  1.0000
  C   C553      1.0  0.92252  0.27680  0.45624  1.0000
  C   C554      1.0  0.93635  0.25469  0.44877  1.0000
  C   C555      1.0  0.96289  0.25572  0.44242  1.0000
  H   H942      1.0  0.87210  0.45006  0.34914  1.0000
  H   H943      1.0  0.79674  0.41630  0.36973  1.0000
  H   H944      1.0  0.92647  0.23647  0.44808  1.0000
  H   H945      1.0  0.97300  0.23839  0.43705  1.0000
  N   N41       1.0  0.94802  0.13189  0.27871  1.0000
  H   H946      1.0  0.67441  0.29145  0.48635  1.0000
  C   C556      1.0  0.64202  0.48456  0.28753  1.0000
  C   C557      1.0  0.76656  0.43305  0.41724  1.0000
  C   C558      1.0  0.79206  0.44129  0.41748  1.0000
  C   C559      1.0  0.81097  0.42672  0.43007  1.0000
  C   C560      1.0  0.80453  0.40398  0.44302  1.0000
  C   C561      1.0  0.77899  0.39569  0.44291  1.0000
  C   C562      1.0  0.76010  0.41016  0.42995  1.0000
  H   H947      1.0  0.79713  0.45904  0.40822  1.0000
  H   H948      1.0  0.83066  0.43331  0.43019  1.0000
  H   H949      1.0  0.77381  0.37818  0.45280  1.0000
  H   H950      1.0  0.74038  0.40362  0.42988  1.0000
  H   H951      1.0  0.80918  0.42094  0.30183  1.0000
  H   H952      1.0  0.89901  0.11369  0.26418  1.0000
  S   S158      1.0  0.82916  0.38724  0.45928  1.0000
  H   H953      1.0  0.85477  0.41482  0.29408  1.0000
  H   H954      1.0  0.86190  0.47498  0.36937  1.0000
  H   H955      1.0  0.97056  0.38053  0.39135  1.0000
  N   N42       1.0  0.59984  0.48814  0.26134  1.0000
  H   H956      1.0  0.92691  0.13888  0.34268  1.0000
  H   H957      1.0  0.59013  0.45613  0.28639  1.0000
  C   C563      1.0  0.77444  0.43736  0.34272  1.0000
  C   C564      1.0  0.84725  0.43463  0.29632  1.0000
  H   H958      1.0  0.72097  0.48974  0.44180  1.0000
  N   N43       1.0  0.82347  0.42889  0.34012  1.0000
  H   H959      1.0  0.56588  0.42986  0.25533  1.0000
  H   H960      1.0  0.79293  0.40054  0.33981  1.0000
  C   C565      1.0  0.59252  0.46040  0.26557  1.0000
  H   H961      1.0  0.95439  0.15799  0.24701  1.0000
  H   H962      1.0  0.92572  0.31751  0.46201  1.0000
  H   H963      1.0  0.81295  0.45409  0.30859  1.0000
  H   H964      1.0  0.86221  0.44708  0.30459  1.0000
  C   C566      1.0  0.93130  0.12923  0.30229  1.0000
  H   H965      1.0  0.64599  0.19243  0.48710  1.0000
  C   C567      1.0  0.82973  0.45267  0.35522  1.0000
  H   H966      1.0  0.86177  0.41196  0.33770  1.0000
  C   C568      1.0  0.77937  0.46420  0.48574  1.0000
  C   C569      1.0  0.97631  0.12956  0.28452  1.0000
  H   H967      1.0  0.97247  0.31923  0.45214  1.0000
  C   C570      1.0  0.79735  0.41949  0.34865  1.0000
  H   H968      1.0  0.95826  0.12754  0.33498  1.0000
  H   H969      1.0  0.95220  0.35432  0.40303  1.0000
  H   H970      1.0  0.76775  0.48635  0.44091  1.0000
  H   H971      1.0  0.83646  0.38993  0.33423  1.0000
  Fe  Fe76      1.0  0.85642  0.29889  0.48361  1.0000
  H   H972      1.0  0.96296  0.35332  0.37068  1.0000
  C   C571      1.0  0.73142  0.48534  0.45983  1.0000
  H   H973      1.0  0.65610  0.49192  0.27329  1.0000
  H   H974      1.0  0.52503  0.00001  0.30842  1.0000
  C   C572      1.0  0.99280  0.34579  0.40015  1.0000
  H   H975      1.0  0.75644  0.42795  0.34928  1.0000
  H   H976      1.0  0.77215  0.44134  0.32197  1.0000
  H   H977      1.0  0.98701  0.08928  0.27775  1.0000
  H   H978      1.0  0.95483  0.11100  0.24345  1.0000
  C   C573      1.0  0.84586  0.39956  0.37339  1.0000
  H   H979      1.0  0.81615  0.46833  0.35025  1.0000
  C   C574      1.0  0.96853  0.35941  0.39022  1.0000
  H   H980      1.0  0.94881  0.15966  0.32662  1.0000
  H   H981      1.0  0.85232  0.41581  0.38544  1.0000
  C   C575      1.0  0.85667  0.46437  0.35167  1.0000
  H   H982      1.0  0.77583  0.45560  0.35343  1.0000
  H   H983      1.0  0.82825  0.39097  0.38178  1.0000
  H   H984      1.0  0.97228  0.09471  0.30865  1.0000
  C   C576      1.0  0.84231  0.40741  0.34502  1.0000
  C   C577      1.0  0.94222  0.13957  0.32781  1.0000
  H   H985      1.0  0.98783  0.13402  0.26708  1.0000
  C   C578      1.0  0.82193  0.43491  0.31176  1.0000
  H   H986      1.0  0.98763  0.32530  0.40364  1.0000
  Fe  Fe77      1.0  0.82665  0.35006  0.48240  1.0000
  C   C579      1.0  0.94322  0.15712  0.26528  1.0000
  Fe  Fe78      1.0  0.75092  0.48978  0.38311  1.0000
  H   H987      1.0  0.76101  0.45489  0.49145  1.0000
  H   H988      1.0  0.85685  0.47817  0.33540  1.0000
  H   H989      1.0  0.96876  0.18180  0.28881  1.0000
  H   H990      1.0  0.86100  0.38456  0.37462  1.0000
  H   H991      1.0  0.94834  0.19831  0.26717  1.0000
  H   H992      1.0  0.91239  0.13878  0.29921  1.0000
  H   H993      1.0  0.82647  0.44979  0.37607  1.0000
  H   H994      1.0  0.92653  0.10872  0.30605  1.0000
  H   H995      1.0  0.84336  0.44202  0.27670  1.0000
  H   H996      1.0  0.94358  0.09156  0.26905  1.0000
  H   H997      1.0  0.72975  0.99937  0.25843  1.0000
  H   H998      1.0  0.78514  0.45439  0.46778  1.0000
  H   H999      1.0  0.73137  0.46415  0.46169  1.0000
  H   H1000     1.0  0.55013  0.45950  0.26174  1.0000
  C   C580      1.0  0.94133  0.11081  0.26005  1.0000
  H   H1001     1.0  0.60827  0.44744  0.25908  1.0000
  H   H1002     1.0  0.72162  0.29900  0.48656  1.0000
  H   H1003     1.0  0.82269  0.47483  0.45771  1.0000
  H   H1004     1.0  0.64968  0.48983  0.30671  1.0000
  H   H1005     1.0  0.64101  0.46335  0.28659  1.0000
  C   C581      1.0  0.56748  0.45095  0.25276  1.0000
  C   C582      1.0  0.98531  0.10295  0.29399  1.0000
  H   H1006     1.0  0.98265  0.14381  0.29893  1.0000
  H   H1007     1.0  0.73837  0.15062  0.54433  1.0000
  H   H1008     1.0  0.81893  0.46258  0.50119  1.0000
  H   H1009     1.0  0.91826  0.34539  0.52260  1.0000
  Fe  Fe79      1.0  0.63309  0.03224  0.62780  1.0000
  S   S159      1.0  0.67618  0.03330  0.63161  1.0000
  S   S160      1.0  0.60540  0.05976  0.60844  1.0000
  Fe  Fe80      1.0  0.66970  0.01468  0.67090  1.0000
  S   S161      1.0  0.68416  0.03002  0.71057  1.0000
  S   S162      1.0  0.62633  0.01617  0.66728  1.0000
  H   H1010     1.0  0.79945  0.43554  0.50844  1.0000
  Fe  Fe81      1.0  0.59289  0.20938  0.58643  1.0000
  S   S163      1.0  0.58935  0.20856  0.54350  1.0000
  S   S164      1.0  0.61595  0.18116  0.61023  1.0000
  Fe  Fe82      1.0  0.56888  0.26276  0.59022  1.0000
  S   S165      1.0  0.56499  0.26562  0.54725  1.0000
  S   S166      1.0  0.55523  0.29825  0.61177  1.0000
  Fe  Fe83      1.0  0.54912  0.22529  0.54960  1.0000
  S   S167      1.0  0.50931  0.38323  0.73636  1.0000
  Fe  Fe84      1.0  0.60549  0.24898  0.54542  1.0000
  S   S168      1.0  0.63900  0.26589  0.52089  1.0000
  S   S169      1.0  0.55246  0.22314  0.59282  1.0000
  S   S170      1.0  0.60977  0.24908  0.58805  1.0000
  Fe  Fe85      1.0  0.92318  0.44106  0.71974  1.0000
  S   S171      1.0  0.88017  0.44536  0.71980  1.0000
  N   N44       1.0  0.67400  0.17079  0.54448  1.0000
  H   H1011     1.0  0.64867  0.12990  0.52311  1.0000
  Fe  Fe86      1.0  0.87957  0.40680  0.70016  1.0000
  S   S172      1.0  0.85009  0.39826  0.66931  1.0000
  S   S173      1.0  0.92253  0.40330  0.69764  1.0000
  H   H1012     1.0  0.88179  0.25230  0.69997  1.0000
  C   C583      1.0  0.67838  0.31700  0.58195  1.0000
  S   S174      1.0  0.80842  0.34444  0.52140  1.0000
  H   H1013     1.0  0.88655  0.26379  0.52128  1.0000
  Fe  Fe87      1.0  0.84703  0.32915  0.53360  1.0000
  S   S175      1.0  0.87298  0.33419  0.56840  1.0000
  S   S176      1.0  0.83820  0.28876  0.52183  1.0000
  C   C584      1.0  0.85716  0.38271  0.64000  1.0000
  C   C585      1.0  0.83689  0.37626  0.62347  1.0000
  C   C586      1.0  0.84152  0.36231  0.60082  1.0000
  C   C587      1.0  0.86649  0.35457  0.59465  1.0000
  C   C588      1.0  0.88684  0.36149  0.61089  1.0000
  C   C589      1.0  0.88224  0.37564  0.63340  1.0000
  H   H1014     1.0  0.81744  0.38172  0.62843  1.0000
  H   H1015     1.0  0.82570  0.35696  0.58852  1.0000
  H   H1016     1.0  0.90623  0.35570  0.60613  1.0000
  H   H1017     1.0  0.89801  0.38071  0.64586  1.0000
  C   C590      1.0  0.67340  0.27095  0.52228  1.0000
  C   C591      1.0  0.68872  0.26215  0.54259  1.0000
  C   C592      1.0  0.71576  0.26599  0.54237  1.0000
  H   H1018     1.0  0.69866  0.14783  0.56900  1.0000
  H   H1019     1.0  0.62379  0.39821  0.58859  1.0000
  H   H1020     1.0  0.84662  0.28954  0.63058  1.0000
  H   H1021     1.0  0.67973  0.25253  0.55861  1.0000
  H   H1022     1.0  0.72719  0.25881  0.55813  1.0000
  C   C593      1.0  0.61229  0.33466  0.63219  1.0000
  H   H1023     1.0  0.68639  0.18898  0.50913  1.0000
  C   C594      1.0  0.60874  0.09346  0.60900  1.0000
  C   C595      1.0  0.59157  0.10863  0.59473  1.0000
  C   C596      1.0  0.59341  0.13557  0.59496  1.0000
  C   C597      1.0  0.61233  0.14749  0.60969  1.0000
  C   C598      1.0  0.62953  0.13230  0.62389  1.0000
  C   C599      1.0  0.62782  0.10538  0.62351  1.0000
  H   H1024     1.0  0.57680  0.09952  0.58341  1.0000
  H   H1025     1.0  0.58015  0.14710  0.58387  1.0000
  H   H1026     1.0  0.64426  0.14142  0.63529  1.0000
  H   H1027     1.0  0.64111  0.09388  0.63459  1.0000
  C   C600      1.0  0.53007  0.30483  0.69639  1.0000
  C   C601      1.0  0.53248  0.32664  0.68092  1.0000
  C   C602      1.0  0.54042  0.32426  0.65515  1.0000
  C   C603      1.0  0.54637  0.30014  0.64463  1.0000
  C   C604      1.0  0.54433  0.27834  0.66016  1.0000
  C   C605      1.0  0.53603  0.28069  0.68584  1.0000
  H   H1028     1.0  0.52789  0.34531  0.68874  1.0000
  H   H1029     1.0  0.54186  0.34126  0.64332  1.0000
  H   H1030     1.0  0.54889  0.25965  0.65239  1.0000
  C   C606      1.0  0.92278  0.28365  0.56905  1.0000
  C   C607      1.0  0.93012  0.33152  0.53364  1.0000
  C   C608      1.0  0.97617  0.28672  0.51711  1.0000
  C   C609      1.0  0.93142  0.26196  0.58728  1.0000
  H   H1031     1.0  0.97461  0.26839  0.50643  1.0000
  C   C610      1.0  0.55437  0.04897  0.65854  1.0000
  H   H1032     1.0  0.92093  0.26402  0.60575  1.0000
  H   H1033     1.0  0.61993  0.35375  0.63759  1.0000
  C   C611      1.0  0.52399  0.03662  0.57901  1.0000
  H   H1034     1.0  0.94980  0.33189  0.66180  1.0000
  H   H1035     1.0  0.95038  0.33510  0.52824  1.0000
  H   H1036     1.0  0.57517  0.01615  0.62256  1.0000
  H   H1037     1.0  0.89027  0.34047  0.70204  1.0000
  S   S177      1.0  0.86600  0.33856  0.49612  1.0000
  Fe  Fe88      1.0  0.91939  0.38206  0.73569  1.0000
  C   C612      1.0  0.67738  0.19620  0.55784  1.0000
  C   C613      1.0  0.60320  0.33031  0.54480  1.0000
  C   C614      1.0  0.64323  0.13175  0.54351  1.0000
  H   H1038     1.0  0.57154  0.99964  0.58186  1.0000
  N   N45       1.0  0.53376  0.01885  0.62481  1.0000
  H   H1039     1.0  0.53451  0.02096  0.56937  1.0000
  H   H1040     1.0  0.62199  0.12961  0.54417  1.0000
  H   H1041     1.0  0.92463  0.30130  0.50614  1.0000
  C   C615      1.0  0.69689  0.15355  0.54849  1.0000
  C   C616      1.0  0.79914  0.45679  0.50650  1.0000
  H   H1042     1.0  0.65196  0.32217  0.55112  1.0000
  S   S178      1.0  0.51021  0.20872  0.53423  1.0000
  C   C617      1.0  0.92138  0.30402  0.52693  1.0000
  S   S179      1.0  0.76275  0.28351  0.52309  1.0000
  H   H1043     1.0  0.89251  0.26138  0.73113  1.0000
  H   H1044     1.0  0.87591  0.30585  0.62450  1.0000
  C   C618      1.0  0.87727  0.32960  0.68913  1.0000
  H   H1045     1.0  0.89227  0.24485  0.54978  1.0000
  S   S180      1.0  0.95063  0.47557  0.71156  1.0000
  S   S181      1.0  0.87629  0.38433  0.73688  1.0000
  C   C619      1.0  0.68527  0.19504  0.58635  1.0000
  C   C620      1.0  0.53332  0.02920  0.65188  1.0000
  H   H1046     1.0  0.68611  0.21491  0.59396  1.0000
  H   H1047     1.0  0.67112  0.18463  0.59833  1.0000
  H   H1048     1.0  0.70461  0.18656  0.58904  1.0000
  C   C621      1.0  0.65072  0.15772  0.55560  1.0000
  C   C622      1.0  0.50985  0.00287  0.62147  1.0000
  C   C623      1.0  0.72817  0.27937  0.52225  1.0000
  C   C624      1.0  0.90072  0.28997  0.70181  1.0000
  H   H1049     1.0  0.91873  0.27973  0.69626  1.0000
  H   H1050     1.0  0.69200  0.31048  0.56687  1.0000
  H   H1051     1.0  0.84409  0.34547  0.70859  1.0000
  H   H1052     1.0  0.55263  0.05030  0.60507  1.0000
  H   H1053     1.0  0.69433  0.13513  0.53800  1.0000
  H   H1054     1.0  0.90012  0.30371  0.52909  1.0000
  H   H1055     1.0  0.85095  0.32064  0.64390  1.0000
  H   H1056     1.0  0.90594  0.32604  0.64692  1.0000
  H   H1057     1.0  0.93284  0.25803  0.50872  1.0000
  H   H1058     1.0  0.92108  0.29609  0.65329  1.0000
  H   H1059     1.0  0.90635  0.30281  0.71783  1.0000
  H   H1060     1.0  0.64971  0.32236  0.62213  1.0000
  C   C625      1.0  0.55812  0.00344  0.62159  1.0000
  H   H1061     1.0  0.57394  0.04074  0.65701  1.0000
  H   H1062     1.0  0.64221  0.20702  0.51773  1.0000
  N   N46       1.0  0.93353  0.28263  0.54219  1.0000
  H   H1063     1.0  0.72780  0.18278  0.54945  1.0000
  H   H1064     1.0  0.55316  0.06657  0.64660  1.0000
  H   H1065     1.0  0.62883  0.17549  0.51144  1.0000
  H   H1066     1.0  0.94346  0.31652  0.69169  1.0000
  H   H1067     1.0  0.50359  0.24648  0.58874  1.0000
  H   H1068     1.0  0.65382  0.15349  0.57625  1.0000
  H   H1069     1.0  0.68421  0.33669  0.58727  1.0000
  H   H1070     1.0  0.50998  0.26004  0.61872  1.0000
  H   H1071     1.0  0.83704  0.31639  0.69253  1.0000
  H   H1072     1.0  0.53540  0.01344  0.66614  1.0000
  C   C626      1.0  0.88344  0.26880  0.71330  1.0000
  H   H1073     1.0  0.96913  0.30256  0.50485  1.0000
  Fe  Fe89      1.0  0.79985  0.30407  0.50754  1.0000
  H   H1074     1.0  0.98254  0.31032  0.73314  1.0000
  H   H1075     1.0  0.61176  0.31412  0.53390  1.0000
  H   H1076     1.0  0.93911  0.24153  0.53770  1.0000
  C   C627      1.0  0.65067  0.31566  0.57143  1.0000
  H   H1077     1.0  0.65924  0.20756  0.55714  1.0000
  H   H1078     1.0  0.53425  0.26371  0.69766  1.0000
  C   C628      1.0  0.63771  0.35898  0.58502  1.0000
  H   H1079     1.0  0.97116  0.26912  0.55371  1.0000
  C   C629      1.0  0.92748  0.25742  0.52940  1.0000
  H   H1080     1.0  0.79413  0.46478  0.52554  1.0000
  C   C630      1.0  0.85197  0.32618  0.70399  1.0000
  C   C631      1.0  0.61551  0.37865  0.58705  1.0000
  H   H1081     1.0  0.69191  0.20819  0.54776  1.0000
  H   H1082     1.0  0.92811  0.30192  0.57861  1.0000
  C   C632      1.0  0.68577  0.28435  0.50221  1.0000
  H   H1083     1.0  0.59959  0.30493  0.57700  1.0000
  C   C633      1.0  0.49430  0.25101  0.60740  1.0000
  H   H1084     1.0  0.55186  0.05511  0.67878  1.0000
  C   C634      1.0  0.63040  0.32097  0.61323  1.0000
  H   H1085     1.0  0.96773  0.30286  0.55451  1.0000
  H   H1086     1.0  0.51211  0.28041  0.56557  1.0000
  H   H1087     1.0  0.65199  0.11558  0.55436  1.0000
  H   H1088     1.0  0.59239  0.33652  0.62506  1.0000
  H   H1089     1.0  0.92806  0.34662  0.68362  1.0000
  N   N47       1.0  0.89015  0.30547  0.67959  1.0000
  H   H1090     1.0  0.87316  0.34279  0.67296  1.0000
  H   H1091     1.0  0.61113  0.32321  0.65016  1.0000
  H   H1092     1.0  0.50388  0.21809  0.63147  1.0000
  H   H1093     1.0  0.92730  0.33617  0.55415  1.0000
  H   H1094     1.0  0.86401  0.27564  0.71847  1.0000
  N   N48       1.0  0.63066  0.33087  0.58600  1.0000
  H   H1095     1.0  0.90137  0.28383  0.56876  1.0000
  H   H1096     1.0  0.95219  0.26323  0.59176  1.0000
  H   H1097     1.0  0.85511  0.31623  0.72248  1.0000
  H   H1098     1.0  0.61279  0.34832  0.53888  1.0000
  C   C635      1.0  0.53327  0.04149  0.60665  1.0000
  H   H1099     1.0  0.92689  0.24264  0.57976  1.0000
  H   H1100     1.0  0.66995  0.00127  0.54045  1.0000
  H   H1101     1.0  0.60327  0.37864  0.56969  1.0000
  H   H1102     1.0  0.60317  0.37580  0.60407  1.0000
  C   C636      1.0  0.96231  0.28554  0.54332  1.0000
  H   H1103     1.0  0.62538  0.30017  0.61355  1.0000
  C   C637      1.0  0.89909  0.24915  0.53010  1.0000
  H   H1104     1.0  0.88238  0.27166  0.65699  1.0000
  C   C638      1.0  0.71273  0.28871  0.50226  1.0000
  H   H1105     1.0  0.52729  0.05426  0.56746  1.0000
  H   H1106     1.0  0.52049  0.05694  0.61423  1.0000
  H   H1107     1.0  0.67012  0.99652  0.49291  1.0000
  C   C639      1.0  0.72294  0.16460  0.53962  1.0000
  C   C640      1.0  0.93446  0.32781  0.67606  1.0000
  C   C641      1.0  0.60494  0.32537  0.57395  1.0000
  H   H1108     1.0  0.68093  0.30388  0.59854  1.0000
  H   H1109     1.0  0.58267  0.33147  0.53909  1.0000
  C   C642      1.0  0.86106  0.30245  0.63940  1.0000
  C   C643      1.0  0.87229  0.28937  0.66351  1.0000
  H   H1110     1.0  0.63360  0.17056  0.55573  1.0000
  H   H1111     1.0  0.85557  0.28253  0.67483  1.0000
  H   H1112     1.0  0.64521  0.29500  0.57050  1.0000
  H   H1113     1.0  0.65164  0.36365  0.60051  1.0000
  H   H1114     1.0  0.64792  0.36368  0.56679  1.0000
  S   S182      1.0  0.51876  0.30662  0.72854  1.0000
  C   C644      1.0  0.91243  0.31326  0.66269  1.0000
  H   H1115     1.0  0.58925  0.33641  0.58323  1.0000
  H   H1116     1.0  0.62783  0.02269  0.72422  1.0000
  H   H1117     1.0  0.89680  0.23139  0.51858  1.0000
  H   H1118     1.0  0.74606  0.49232  0.51080  1.0000
  H   H1119     1.0  0.50301  0.03284  0.57846  1.0000
  C   C645      1.0  0.67099  0.17591  0.51614  1.0000
  C   C646      1.0  0.49485  0.29286  0.56592  1.0000
  C   C647      1.0  0.64541  0.18839  0.50802  1.0000
  H   H1120     1.0  0.49754  0.30187  0.60581  1.0000
  H   H1121     1.0  0.72351  0.16756  0.51856  1.0000
  H   H1122     1.0  0.67358  0.15814  0.50465  1.0000
  H   H1123     1.0  0.50147  0.31239  0.56053  1.0000
  H   H1124     1.0  0.51446  0.03849  0.65612  1.0000
  H   H1125     1.0  0.50778  0.99567  0.60162  1.0000
  S   S183      1.0  0.63249  0.99353  0.60892  1.0000
  Fe  Fe90      1.0  0.67509  0.99333  0.61411  1.0000
  C   C648      1.0  0.69749  0.02742  0.74252  1.0000
  Fe  Fe91      1.0  0.53769  0.39449  0.76705  1.0000
  S   S184      1.0  0.54455  0.35436  0.78095  1.0000
  H   H1126     1.0  0.79671  0.40450  0.80613  1.0000
  H   H1127     1.0  0.62610  0.39599  0.82930  1.0000
  H   H1128     1.0  0.63908  0.38102  0.88373  1.0000
  H   H1129     1.0  0.72800  0.10972  0.97193  1.0000
  Fe  Fe92      1.0  0.72198  0.47612  0.83663  1.0000
  S   S185      1.0  0.73756  0.46950  0.87607  1.0000
  S   S186      1.0  0.74586  0.47594  0.79986  1.0000
  Fe  Fe93      1.0  0.66619  0.47842  0.85645  1.0000
  S   S187      1.0  0.67783  0.47180  0.89744  1.0000
  C   C649      1.0  0.78794  0.38531  0.80929  1.0000
  Fe  Fe94      1.0  0.70452  0.44208  0.88096  1.0000
  S   S188      1.0  0.70991  0.40018  0.89100  1.0000
  S   S189      1.0  0.69059  0.44684  0.84070  1.0000
  Fe  Fe95      1.0  0.59210  0.26678  0.93588  1.0000
  S   S190      1.0  0.63334  0.27863  0.93181  1.0000
  S   S191      1.0  0.56877  0.26094  0.89998  1.0000
  Fe  Fe96      1.0  0.62403  0.30523  0.96436  1.0000
  S   S192      1.0  0.63159  0.34767  0.96784  1.0000
  Fe  Fe97      1.0  0.64079  0.24867  0.96219  1.0000
  S   S193      1.0  0.67558  0.22199  0.96395  1.0000
  S   S194      1.0  0.58212  0.29542  0.96634  1.0000
  S   S195      1.0  0.60002  0.23483  0.96397  1.0000
  H   H1130     1.0  0.64016  0.36750  0.84006  1.0000
  C   C650      1.0  0.62109  0.37644  0.83628  1.0000
  H   H1131     1.0  0.79010  0.34798  0.78933  1.0000
  S   S196      1.0  0.86018  0.43286  0.79319  1.0000
  S   S197      1.0  0.92413  0.41936  0.75757  1.0000
  Fe  Fe98      1.0  0.92426  0.14539  0.80823  1.0000
  S   S198      1.0  0.94895  0.14925  0.77275  1.0000
  S   S199      1.0  0.88172  0.13746  0.80255  1.0000
  C   C651      1.0  0.52416  0.24508  0.95336  1.0000
  C   C652      1.0  0.83096  0.04064  0.78953  1.0000
  C   C653      1.0  0.49705  0.25979  0.91810  1.0000
  S   S200      1.0  0.93783  0.18220  0.82602  1.0000
  Fe  Fe99      1.0  0.71711  0.09067  0.89660  1.0000
  S   S201      1.0  0.70714  0.04862  0.89737  1.0000
  S   S202      1.0  0.68526  0.12046  0.89694  1.0000
  Fe  Fe100     1.0  0.77376  0.07957  0.89140  1.0000
  S   S203      1.0  0.76764  0.03688  0.89152  1.0000
  S   S204      1.0  0.81335  0.09692  0.89485  1.0000
  Fe  Fe101     1.0  0.73473  0.04506  0.86387  1.0000
  S   S205      1.0  0.72849  0.02082  0.82671  1.0000
  Fe  Fe102     1.0  0.74077  0.04447  0.92494  1.0000
  S   S206      1.0  0.73884  0.02068  0.96284  1.0000
  S   S207      1.0  0.74313  0.08733  0.86213  1.0000
  S   S208      1.0  0.74846  0.08677  0.92566  1.0000
  C   C654      1.0  0.86274  0.12706  0.82859  1.0000
  C   C655      1.0  0.83610  0.12410  0.82530  1.0000
  C   C656      1.0  0.82068  0.11465  0.84538  1.0000
  C   C657      1.0  0.83184  0.10837  0.86893  1.0000
  C   C658      1.0  0.85829  0.11201  0.87243  1.0000
  C   C659      1.0  0.87374  0.12119  0.85229  1.0000
  H   H1132     1.0  0.82749  0.12890  0.80704  1.0000
  H   H1133     1.0  0.80022  0.11246  0.84276  1.0000
  H   H1134     1.0  0.86698  0.10746  0.89072  1.0000
  H   H1135     1.0  0.89420  0.12355  0.85505  1.0000
  H   H1136     1.0  0.84570  0.07071  0.81597  1.0000
  H   H1137     1.0  0.86340  0.06694  0.78704  1.0000
  S   S209      1.0  0.62360  0.48280  0.84912  1.0000
  C   C660      1.0  0.80875  0.02236  0.82784  1.0000
  H   H1138     1.0  0.63766  0.42706  0.89291  1.0000
  C   C661      1.0  0.95982  0.25738  0.76497  1.0000
  C   C662      1.0  0.93631  0.26794  0.77341  1.0000
  C   C663      1.0  0.92949  0.29379  0.76723  1.0000
  Fe  Fe103     1.0  0.88091  0.42241  0.75623  1.0000
  H   H1139     1.0  0.92339  0.25621  0.78466  1.0000
  H   H1140     1.0  0.91134  0.30156  0.77373  1.0000
  C   C664      1.0  0.93963  0.48977  0.78339  1.0000
  C   C665      1.0  0.52928  0.23888  0.98180  1.0000
  C   C666      1.0  0.97522  0.30513  0.81996  1.0000
  C   C667      1.0  0.71628  0.02428  0.79439  1.0000
  C   C668      1.0  0.70603  0.04726  0.78477  1.0000
  C   C669      1.0  0.69676  0.04877  0.75917  1.0000
  C   C670      1.0  0.98495  0.04256  0.77992  1.0000
  H   H1141     1.0  0.83320  0.08285  0.78616  1.0000
  H   H1142     1.0  0.70506  0.06392  0.79709  1.0000
  H   H1143     1.0  0.56882  0.38225  0.84006  1.0000
  C   C671      1.0  0.67736  0.19316  0.94616  1.0000
  C   C672      1.0  0.69811  0.17629  0.95018  1.0000
  C   C673      1.0  0.70071  0.15375  0.93550  1.0000
  C   C674      1.0  0.68254  0.14794  0.91667  1.0000
  C   C675      1.0  0.66160  0.16456  0.91300  1.0000
  C   C676      1.0  0.65899  0.18707  0.92766  1.0000
  H   H1144     1.0  0.97705  0.31933  0.83563  1.0000
  H   H1145     1.0  0.71690  0.14111  0.93849  1.0000
  H   H1146     1.0  0.64743  0.16020  0.89850  1.0000
  H   H1147     1.0  0.64295  0.19990  0.92438  1.0000
  C   C677      1.0  0.68765  0.38588  0.91201  1.0000
  C   C678      1.0  0.68590  0.35905  0.91301  1.0000
  C   C679      1.0  0.66845  0.34710  0.92978  1.0000
  C   C680      1.0  0.65290  0.36197  0.94585  1.0000
  C   C681      1.0  0.65459  0.38880  0.94478  1.0000
  C   C682      1.0  0.67186  0.40074  0.92784  1.0000
  H   H1148     1.0  0.69816  0.34746  0.90089  1.0000
  H   H1149     1.0  0.66742  0.32641  0.93064  1.0000
  H   H1150     1.0  0.64268  0.40039  0.95725  1.0000
  H   H1151     1.0  0.67332  0.42142  0.92739  1.0000
  C   C683      1.0  0.77838  0.46589  0.79831  1.0000
  C   C684      1.0  0.78956  0.46097  0.77423  1.0000
  C   C685      1.0  0.81470  0.45107  0.77229  1.0000
  C   C686      1.0  0.82901  0.44637  0.79447  1.0000
  C   C687      1.0  0.81817  0.45208  0.81850  1.0000
  C   C688      1.0  0.79295  0.46171  0.82044  1.0000
  H   H1152     1.0  0.95312  0.26564  0.84854  1.0000
  C   C689      1.0  0.62099  0.02500  0.74419  1.0000
  H   H1153     1.0  0.82917  0.44863  0.83576  1.0000
  H   H1154     1.0  0.78470  0.46569  0.83907  1.0000
  C   C690      1.0  0.61009  0.46374  0.82473  1.0000
  C   C691      1.0  0.58336  0.46031  0.82390  1.0000
  C   C692      1.0  0.57214  0.44527  0.80455  1.0000
  C   C693      1.0  0.58757  0.43415  0.78557  1.0000
  C   C694      1.0  0.61426  0.43765  0.78640  1.0000
  C   C695      1.0  0.62553  0.45214  0.80608  1.0000
  H   H1155     1.0  0.97032  0.23867  0.88596  1.0000
  H   H1156     1.0  0.55152  0.44295  0.80386  1.0000
  H   H1157     1.0  0.62625  0.42932  0.77161  1.0000
  H   H1158     1.0  0.64607  0.45504  0.80628  1.0000
  C   C696      1.0  0.52919  0.33062  0.86409  1.0000
  C   C697      1.0  0.53604  0.30965  0.84886  1.0000
  C   C698      1.0  0.54856  0.28844  0.85993  1.0000
  C   C699      1.0  0.55508  0.28852  0.88602  1.0000
  C   C700      1.0  0.54887  0.30985  0.90104  1.0000
  C   C701      1.0  0.53543  0.33056  0.89024  1.0000
  H   H1159     1.0  0.53122  0.30953  0.82867  1.0000
  H   H1160     1.0  0.55320  0.27192  0.84824  1.0000
  H   H1161     1.0  0.55357  0.31002  0.92117  1.0000
  C   C702      1.0  0.58095  0.39300  0.85397  1.0000
  Fe  Fe104     1.0  0.51219  0.36244  0.80813  1.0000
  H   H1162     1.0  0.96961  0.00406  0.77744  1.0000
  C   C703      1.0  0.96722  0.23139  0.86628  1.0000
  H   H1163     1.0  0.63695  0.13690  0.98284  1.0000
  S   S210      1.0  0.50730  0.40359  0.79619  1.0000
  H   H1164     1.0  0.68873  0.06665  0.75227  1.0000
  H   H1165     1.0  0.84352  0.03976  0.84425  1.0000
  C   C704      1.0  0.94613  0.30951  0.75264  1.0000
  H   H1166     1.0  0.52649  0.21814  0.98581  1.0000
  H   H1167     1.0  0.98040  0.21510  0.86260  1.0000
  C   C705      1.0  0.67004  0.11280  0.99044  1.0000
  C   C706      1.0  0.50270  0.23824  0.89853  1.0000
  H   H1168     1.0  0.73217  0.40377  0.83938  1.0000
  C   C707      1.0  0.82277  0.03786  0.84862  1.0000
  S   S211      1.0  0.97940  0.16039  0.88606  1.0000
  H   H1169     1.0  0.70170  0.06552  0.95772  1.0000
  H   H1170     1.0  0.97795  0.31574  0.80165  1.0000
  C   C708      1.0  0.78913  0.05900  0.80569  1.0000
  H   H1171     1.0  0.81901  0.36642  0.78885  1.0000
  N   N49       1.0  0.76998  0.17657  0.89083  1.0000
  C   C709      1.0  0.77383  0.17559  0.91949  1.0000
  C   C710      1.0  0.75811  0.20218  0.88423  1.0000
  C   C711      1.0  0.79505  0.17377  0.87662  1.0000
  C   C712      1.0  0.75288  0.15465  0.88311  1.0000
  C   C713      1.0  0.78927  0.15249  0.92983  1.0000
  C   C714      1.0  0.72983  0.20583  0.89250  1.0000
  C   C715      1.0  0.81597  0.19349  0.88343  1.0000
  C   C716      1.0  0.74519  0.15358  0.85451  1.0000
  H   H1172     1.0  0.78347  0.19327  0.92652  1.0000
  H   H1173     1.0  0.75498  0.17519  0.92958  1.0000
  H   H1174     1.0  0.75945  0.20630  0.86333  1.0000
  H   H1175     1.0  0.76903  0.21807  0.89334  1.0000
  H   H1176     1.0  0.80334  0.15430  0.87949  1.0000
  H   H1177     1.0  0.79198  0.17528  0.85554  1.0000
  H   H1178     1.0  0.76248  0.13600  0.88715  1.0000
  H   H1179     1.0  0.73516  0.15373  0.89498  1.0000
  H   H1180     1.0  0.80926  0.15198  0.92246  1.0000
  H   H1181     1.0  0.79056  0.15399  0.95103  1.0000
  H   H1182     1.0  0.77975  0.13403  0.92567  1.0000
  H   H1183     1.0  0.71669  0.19220  0.88285  1.0000
  H   H1184     1.0  0.72744  0.20429  0.91356  1.0000
  H   H1185     1.0  0.72339  0.22542  0.88704  1.0000
  H   H1186     1.0  0.83356  0.18901  0.87211  1.0000
  H   H1187     1.0  0.82148  0.19259  0.90392  1.0000
  H   H1188     1.0  0.81009  0.21329  0.87831  1.0000
  H   H1189     1.0  0.75952  0.14246  0.84324  1.0000
  H   H1190     1.0  0.74283  0.17261  0.84549  1.0000
  H   H1191     1.0  0.72608  0.14424  0.85281  1.0000
  N   N50       1.0  0.60495  0.37810  0.86024  1.0000
  C   C717      1.0  0.59736  0.35189  0.86991  1.0000
  N   N51       1.0  0.80530  0.03523  0.80210  1.0000
  C   C718      1.0  0.61912  0.33186  0.87152  1.0000
  C   C719      1.0  0.56347  0.39960  0.87693  1.0000
  C   C720      1.0  0.60843  0.36311  0.81308  1.0000
  H   H1192     1.0  0.58179  0.34345  0.85809  1.0000
  H   H1193     1.0  0.58896  0.35319  0.88952  1.0000
  H   H1194     1.0  0.66512  0.04754  0.94250  1.0000
  H   H1195     1.0  0.63521  0.33842  0.88372  1.0000
  H   H1196     1.0  0.61141  0.31405  0.88041  1.0000
  H   H1197     1.0  0.62636  0.32651  0.85223  1.0000
  H   H1198     1.0  0.54621  0.40983  0.86968  1.0000
  H   H1199     1.0  0.57299  0.41248  0.89084  1.0000
  H   H1200     1.0  0.55662  0.38215  0.88688  1.0000
  H   H1201     1.0  0.59803  0.37733  0.80099  1.0000
  H   H1202     1.0  0.59480  0.34779  0.81848  1.0000
  H   H1203     1.0  0.62344  0.35365  0.80123  1.0000
  H   H1204     1.0  0.72499  0.36543  0.81822  1.0000
  H   H1205     1.0  0.82164  0.02720  0.86706  1.0000
  H   H1206     1.0  0.64367  0.07282  0.95283  1.0000
  C   C721      1.0  0.75242  0.40648  0.83303  1.0000
  H   H1207     1.0  0.77094  0.38674  0.86608  1.0000
  H   H1208     1.0  0.53073  0.22787  0.94261  1.0000
  H   H1209     1.0  0.82287  0.44685  0.75366  1.0000
  H   H1210     1.0  0.84519  0.02550  0.79466  1.0000
  H   H1211     1.0  0.74328  0.35330  0.85693  1.0000
  H   H1212     1.0  0.74744  0.35000  0.79872  1.0000
  H   H1213     1.0  0.79345  0.37577  0.76835  1.0000
  H   H1214     1.0  0.77067  0.01412  0.79301  1.0000
  H   H1215     1.0  0.69269  0.09713  0.94889  1.0000
  Fe  Fe105     1.0  0.51440  0.34340  0.75205  1.0000
  H   H1216     1.0  0.96649  0.05130  0.78380  1.0000
  H   H1217     1.0  0.76265  0.06129  0.77298  1.0000
  H   H1218     1.0  0.79949  0.07387  0.81666  1.0000
  H   H1219     1.0  0.77183  0.05463  0.81753  1.0000
  H   H1220     1.0  0.71236  0.18090  0.96451  1.0000
  C   C722      1.0  0.84369  0.06674  0.79529  1.0000
  H   H1221     1.0  0.76090  0.41867  0.87199  1.0000
  Fe  Fe106     1.0  0.96381  0.18545  0.79174  1.0000
  H   H1222     1.0  0.68233  0.03267  0.98265  1.0000
  H   H1223     1.0  0.54946  0.24373  0.98629  1.0000
  S   S212      1.0  0.95268  0.12054  0.82923  1.0000
  H   H1224     1.0  0.77847  0.46427  0.75700  1.0000
  H   H1225     1.0  0.61059  0.38999  0.89981  1.0000
  H   H1226     1.0  0.50340  0.24679  0.87900  1.0000
  H   H1227     1.0  0.96606  0.24334  0.82662  1.0000
  C   C723      1.0  0.75413  0.34694  0.83966  1.0000
  S   S213      1.0  0.97077  0.22524  0.77230  1.0000
  H   H1228     1.0  0.77495  0.34758  0.84360  1.0000
  H   H1229     1.0  0.58574  0.41118  0.84396  1.0000
  C   C724      1.0  0.62046  0.39111  0.88086  1.0000
  Fe  Fe107     1.0  0.96898  0.15790  0.84368  1.0000
  C   C725      1.0  0.77944  0.07181  0.78081  1.0000
  C   C726      1.0  0.62722  0.41952  0.87601  1.0000
  H   H1230     1.0  0.78968  0.01672  0.83590  1.0000
  H   H1231     1.0  0.65190  0.00725  0.76416  1.0000
  C   C727      1.0  0.79772  0.36773  0.78759  1.0000
  C   C728      1.0  0.76947  0.40593  0.85725  1.0000
  H   H1232     1.0  0.61002  0.43180  0.87361  1.0000
  H   H1233     1.0  0.62855  0.04370  0.75103  1.0000
  H   H1234     1.0  0.81393  0.05684  0.85219  1.0000
  C   C729      1.0  0.71725  0.00302  0.77764  1.0000
  H   H1235     1.0  0.71777  0.42430  0.79899  1.0000
  H   H1236     1.0  0.98987  0.07345  0.86680  1.0000
  H   H1237     1.0  0.78894  0.41357  0.85320  1.0000
  H   H1238     1.0  0.70755  0.39212  0.79082  1.0000
  C   C730      1.0  0.74950  0.39904  0.78668  1.0000
  H   H1239     1.0  0.52998  0.34663  0.90217  1.0000
  S   S214      1.0  0.93846  0.34204  0.74312  1.0000
  H   H1240     1.0  0.81999  0.00431  0.82598  1.0000
  C   C731      1.0  0.96969  0.25246  0.84557  1.0000
  H   H1241     1.0  0.64019  0.42196  0.85933  1.0000
  H   H1242     1.0  0.52165  0.22907  0.90165  1.0000
  C   C732      1.0  0.74605  0.36257  0.81590  1.0000
  H   H1243     1.0  0.57132  0.46933  0.83822  1.0000
  S   S215      1.0  0.57407  0.41688  0.75991  1.0000
  Fe  Fe108     1.0  0.97840  0.12586  0.79491  1.0000
  H   H1244     1.0  0.97773  0.29444  0.87207  1.0000
  H   H1245     1.0  0.75162  0.38497  0.77079  1.0000
  H   H1246     1.0  0.78779  0.02508  0.76569  1.0000
  H   H1247     1.0  0.79692  0.37817  0.82717  1.0000
  C   C733      1.0  0.72114  0.40776  0.78616  1.0000
  C   C734      1.0  0.63100  0.00352  0.76197  1.0000
  H   H1248     1.0  0.52323  0.29621  0.96590  1.0000
  C   C735      1.0  0.79038  0.01700  0.78530  1.0000
  N   N52       1.0  0.75916  0.38799  0.81170  1.0000
  H   H1249     1.0  0.76114  0.41603  0.78097  1.0000
  H   H1250     1.0  0.74994  0.32635  0.83626  1.0000
  H   H1251     1.0  0.75332  0.42661  0.82611  1.0000
  H   H1252     1.0  0.62242  0.00688  0.78131  1.0000
  H   H1253     1.0  0.66275  0.07652  0.92504  1.0000
  C   C736      1.0  0.66284  0.06860  0.94483  1.0000
  H   H1254     1.0  0.82943  0.03978  0.76823  1.0000
  C   C737      1.0  0.68597  0.07994  0.95963  1.0000
  H   H1255     1.0  0.71642  0.41455  0.76652  1.0000
  C   C738      1.0  0.98680  0.01560  0.77622  1.0000
  H   H1256     1.0  0.94744  0.22346  0.86581  1.0000
  H   H1257     1.0  0.90416  0.47272  0.77053  1.0000
  H   H1258     1.0  0.79460  0.07303  0.76590  1.0000
  H   H1259     1.0  0.77276  0.09159  0.78515  1.0000
  H   H1260     1.0  0.88772  0.47401  0.81187  1.0000
  C   C739      1.0  0.96945  0.29878  0.74443  1.0000
  H   H1261     1.0  0.53809  0.26002  0.94714  1.0000
  C   C740      1.0  0.70799  0.00453  0.75208  1.0000
  S   S216      1.0  0.51269  0.35715  0.85128  1.0000
  H   H1262     1.0  0.95542  0.29738  0.81960  1.0000
  H   H1263     1.0  0.94023  0.47877  0.80159  1.0000
  H   H1264     1.0  0.68253  0.12768  0.98163  1.0000
  H   H1265     1.0  0.51159  0.27486  0.91437  1.0000
  C   C741      1.0  0.97616  0.27322  0.75046  1.0000
  C   C742      1.0  0.50319  0.29941  0.95952  1.0000
  H   H1266     1.0  0.59973  0.02645  0.74464  1.0000
  H   H1267     1.0  0.49932  0.43922  0.86849  1.0000
  H   H1268     1.0  0.49559  0.41138  0.84940  1.0000
  N   N53       1.0  0.49702  0.25209  0.94607  1.0000
  H   H1269     1.0  0.95133  0.47880  0.76930  1.0000
  H   H1270     1.0  0.64502  0.11667  0.95672  1.0000
  H   H1271     1.0  0.50307  0.30788  0.94000  1.0000
  C   C743      1.0  0.64364  0.11723  0.97797  1.0000
  H   H1272     1.0  0.62875  0.10383  0.98508  1.0000
  N   N54       1.0  0.68175  0.08644  0.98755  1.0000
  H   H1273     1.0  0.49478  0.31401  0.97260  1.0000
  C   C744      1.0  0.91205  0.49242  0.77298  1.0000
  H   H1274     1.0  0.99278  0.27163  0.80423  1.0000
  H   H1275     1.0  0.85778  0.49059  0.77920  1.0000
  H   H1276     1.0  0.75986  0.79963  0.06735  1.0000
  C   C745      1.0  0.81974  0.64357  0.21037  1.0000
  H   H1277     1.0  0.96670  0.70531  0.02366  1.0000
  H   H1278     1.0  0.93347  0.93323  0.21241  1.0000
  S   S217      1.0  0.82214  0.96003  0.17601  1.0000
  H   H1279     1.0  0.62384  0.54534  0.08172  1.0000
  Fe  Fe109     1.0  0.80485  0.94242  0.14063  1.0000
  S   S218      1.0  0.80304  0.89898  0.13784  1.0000
  S   S219      1.0  0.76795  0.96513  0.14205  1.0000
  Fe  Fe110     1.0  0.90739  0.73627  0.09083  1.0000
  S   S220      1.0  0.90283  0.72628  0.04898  1.0000
  S   S221      1.0  0.91752  0.70072  0.11468  1.0000
  Fe  Fe111     1.0  0.89565  0.79268  0.07980  1.0000
  S   S222      1.0  0.89060  0.78557  0.03759  1.0000
  S   S223      1.0  0.89555  0.83473  0.09141  1.0000
  Fe  Fe112     1.0  0.86704  0.75102  0.04971  1.0000
  S   S224      1.0  0.82624  0.74120  0.03368  1.0000
  Fe  Fe113     1.0  0.92686  0.76169  0.04107  1.0000
  S   S225      1.0  0.96120  0.76231  0.01248  1.0000
  S   S226      1.0  0.87070  0.75949  0.09206  1.0000
  S   S227      1.0  0.93275  0.77033  0.08269  1.0000
  Fe  Fe114     1.0  0.63603  0.67278  0.04189  1.0000
  S   S228      1.0  0.63615  0.70875  0.01788  1.0000
  S   S229      1.0  0.62928  0.67433  0.08478  1.0000
  H   H1280     1.0  0.53730  0.65381  0.09926  1.0000
  C   C746      1.0  0.96603  0.69424  0.04189  1.0000
  S   S230      1.0  0.61197  0.65098  0.01421  1.0000
  S   S231      1.0  0.67335  0.65731  0.02665  1.0000
  Fe  Fe115     1.0  0.55685  0.58984  0.18588  1.0000
  S   S232      1.0  0.51916  0.58761  0.20724  1.0000
  S   S233      1.0  0.55735  0.59484  0.14260  1.0000
  C   C747      1.0  0.64138  0.57134  0.05343  1.0000
  H   H1281     1.0  0.90357  0.90605  0.11337  1.0000
  H   H1282     1.0  0.87217  0.88764  0.16041  1.0000
  S   S234      1.0  0.57121  0.55213  0.20105  1.0000
  H   H1283     1.0  0.78532  0.77815  0.09931  1.0000
  H   H1284     1.0  0.82042  0.80053  0.02644  1.0000
  C   C748      1.0  0.60999  0.65150  0.10066  1.0000
  C   C749      1.0  0.60877  0.65163  0.12755  1.0000
  C   C750      1.0  0.59299  0.63412  0.14075  1.0000
  C   C751      1.0  0.57806  0.61662  0.12705  1.0000
  C   C752      1.0  0.57927  0.61655  0.10015  1.0000
  C   C753      1.0  0.59538  0.63372  0.08699  1.0000
  H   H1285     1.0  0.61998  0.66540  0.13823  1.0000
  H   H1286     1.0  0.59209  0.63441  0.16147  1.0000
  H   H1287     1.0  0.56768  0.60309  0.08948  1.0000
  H   H1288     1.0  0.59628  0.63337  0.06631  1.0000
  C   C754      1.0  0.81534  0.79905  0.07736  1.0000
  H   H1289     1.0  0.87247  0.61491  0.21279  1.0000
  H   H1290     1.0  0.60575  0.65841  0.23385  1.0000
  C   C755      1.0  0.79424  0.73240  0.02336  1.0000
  C   C756      1.0  0.77705  0.71845  0.03906  1.0000
  C   C757      1.0  0.75168  0.71254  0.03060  1.0000
  S   S235      1.0  0.96191  0.68334  0.22739  1.0000
  H   H1291     1.0  0.54957  0.67652  0.12138  1.0000
  C   C758      1.0  0.82802  0.88098  0.12375  1.0000
  C   C759      1.0  0.83112  0.85511  0.13068  1.0000
  C   C760      1.0  0.85133  0.84041  0.12035  1.0000
  C   C761      1.0  0.86820  0.85136  0.10256  1.0000
  C   C762      1.0  0.86460  0.87699  0.09509  1.0000
  C   C763      1.0  0.84471  0.89183  0.10575  1.0000
  H   H1292     1.0  0.81824  0.84663  0.14460  1.0000
  H   H1293     1.0  0.85421  0.82080  0.12656  1.0000
  H   H1294     1.0  0.87743  0.88545  0.08109  1.0000
  H   H1295     1.0  0.84215  0.91160  0.09995  1.0000
  H   H1296     1.0  0.57395  0.73330  0.06018  1.0000
  H   H1297     1.0  0.83134  0.67839  0.16260  1.0000
  C   C764      1.0  0.95064  0.68818  0.19561  1.0000
  C   C765      1.0  0.94416  0.71308  0.18737  1.0000
  C   C766      1.0  0.93433  0.71748  0.16254  1.0000
  C   C767      1.0  0.93111  0.69695  0.14562  1.0000
  C   C768      1.0  0.93831  0.67218  0.15360  1.0000
  C   C769      1.0  0.94803  0.66780  0.17841  1.0000
  H   H1298     1.0  0.94639  0.72902  0.20045  1.0000
  H   H1299     1.0  0.92897  0.73665  0.15663  1.0000
  H   H1300     1.0  0.93615  0.65622  0.14055  1.0000
  H   H1301     1.0  0.95355  0.64866  0.18428  1.0000
  C   C770      1.0  0.87137  0.62775  0.19572  1.0000
  H   H1302     1.0  0.95243  0.88423  0.13646  1.0000
  H   H1303     1.0  0.71093  0.57233  0.01897  1.0000
  H   H1304     1.0  0.70979  0.90887  0.21461  1.0000
  Fe  Fe116     1.0  0.53988  0.60958  0.23857  1.0000
  H   H1305     1.0  0.75597  0.84971  0.05032  1.0000
  C   C771      1.0  0.89501  0.62206  0.17877  1.0000
  H   H1306     1.0  0.57709  0.69101  0.03749  1.0000
  H   H1307     1.0  0.84709  0.83902  0.01955  1.0000
  H   H1308     1.0  0.78574  0.86385  0.03871  1.0000
  H   H1309     1.0  0.93070  0.95882  0.18984  1.0000
  H   H1310     1.0  0.90880  0.65989  0.21131  1.0000
  H   H1311     1.0  0.64315  0.56874  0.11442  1.0000
  Fe  Fe117     1.0  0.64918  0.63840  0.99635  1.0000
  H   H1312     1.0  0.97807  0.67700  0.03952  1.0000
  H   H1313     1.0  0.51623  0.72183  0.06612  1.0000
  H   H1314     1.0  0.88834  0.67586  0.17387  1.0000
  Fe  Fe118     1.0  0.53484  0.55054  0.22392  1.0000
  H   H1315     1.0  0.94345  0.88946  0.10340  1.0000
  H   H1316     1.0  0.85460  0.62062  0.18486  1.0000
  H   H1317     1.0  0.89536  0.63399  0.16117  1.0000
  H   H1318     1.0  0.91321  0.62426  0.18945  1.0000
  H   H1319     1.0  0.80273  0.65014  0.22150  1.0000
  H   H1320     1.0  0.64145  0.60472  0.09406  1.0000
  H   H1321     1.0  0.98900  0.72401  0.13452  1.0000
  Fe  Fe119     1.0  0.58778  0.57539  0.23334  1.0000
  H   H1322     1.0  0.83803  0.67891  0.22094  1.0000
  H   H1323     1.0  0.62338  0.51123  0.23608  1.0000
  H   H1324     1.0  0.82328  0.78171  0.06783  1.0000
  C   C772      1.0  0.85012  0.66879  0.15937  1.0000
  H   H1325     1.0  0.96392  0.65884  0.07884  1.0000
  C   C773      1.0  0.55831  0.70131  0.03720  1.0000
  H   H1326     1.0  0.91891  0.97629  0.10551  1.0000
  H   H1327     1.0  0.55179  0.69985  0.01712  1.0000
  H   H1328     1.0  0.57693  0.73690  0.02641  1.0000
  S   S236      1.0  0.57671  0.61346  0.21593  1.0000
  H   H1329     1.0  0.90237  0.94228  0.20126  1.0000
  H   H1330     1.0  0.52900  0.63356  0.01805  1.0000
  H   H1331     1.0  0.75758  0.81979  0.02139  1.0000
  H   H1332     1.0  0.55251  0.64920  0.05593  1.0000
  C   C774      1.0  0.86861  0.67385  0.18185  1.0000
  C   C775      1.0  0.77491  0.85747  0.05589  1.0000
  H   H1333     1.0  0.73772  0.98230  0.00304  1.0000
  H   H1334     1.0  0.81548  0.64672  0.18987  1.0000
  H   H1335     1.0  0.51935  0.66524  0.00962  1.0000
  C   C776      1.0  0.81398  0.81900  0.03519  1.0000
  Fe  Fe120     1.0  0.67304  0.69208  0.00114  1.0000
  H   H1336     1.0  0.61128  0.57790  0.08280  1.0000
  C   C777      1.0  0.80257  0.79012  0.10261  1.0000
  N   N55       1.0  0.91139  0.92561  0.14932  1.0000
  C   C778      1.0  0.88298  0.92842  0.15448  1.0000
  C   C779      1.0  0.92113  0.95050  0.13819  1.0000
  C   C780      1.0  0.92595  0.91995  0.17360  1.0000
  C   C781      1.0  0.91532  0.90367  0.13095  1.0000
  C   C782      1.0  0.87034  0.90650  0.16998  1.0000
  C   C783      1.0  0.92267  0.93987  0.19528  1.0000
  C   C784      1.0  0.94334  0.89800  0.12293  1.0000
  H   H1337     1.0  0.87871  0.94672  0.16464  1.0000
  H   H1338     1.0  0.94246  0.95150  0.13856  1.0000
  H   H1339     1.0  0.91497  0.96695  0.15028  1.0000
  H   H1340     1.0  0.92078  0.90072  0.18134  1.0000
  H   H1341     1.0  0.94695  0.91875  0.16964  1.0000
  H   H1342     1.0  0.90809  0.88541  0.13928  1.0000
  H   H1343     1.0  0.87777  0.90525  0.18983  1.0000
  C   C785      1.0  0.72643  0.91495  0.22631  1.0000
  C   C786      1.0  0.74292  0.72072  0.00637  1.0000
  H   H1344     1.0  0.54241  0.68555  0.23129  1.0000
  H   H1345     1.0  0.67007  0.63709  0.10544  1.0000
  H   H1346     1.0  0.61645  0.69147  0.23256  1.0000
  C   C787      1.0  0.83803  0.83596  0.03862  1.0000
  H   H1347     1.0  0.97442  0.73164  0.05686  1.0000
  H   H1348     1.0  0.87210  0.92984  0.13620  1.0000
  H   H1349     1.0  0.89428  0.60171  0.17253  1.0000
  H   H1350     1.0  0.77113  0.87489  0.06759  1.0000
  H   H1351     1.0  0.55293  0.65653  0.01008  1.0000
  H   H1352     1.0  0.78336  0.71211  0.05777  1.0000
  H   H1353     1.0  0.57209  0.68311  0.08117  1.0000
  H   H1354     1.0  0.80232  0.82865  0.02022  1.0000
  H   H1355     1.0  0.73886  0.70177  0.04288  1.0000
  C   C788      1.0  0.91232  0.95668  0.11063  1.0000
  H   H1356     1.0  0.54615  0.74178  0.04069  1.0000
  S   S237      1.0  0.82388  0.96990  0.11364  1.0000
  H   H1357     1.0  0.55295  0.71008  0.08900  1.0000
  H   H1358     1.0  0.58535  0.49446  0.20846  1.0000
  H   H1359     1.0  0.94592  0.68742  0.04398  1.0000
  H   H1360     1.0  0.70293  0.55000  0.04371  1.0000
  H   H1361     1.0  0.92089  0.94331  0.09644  1.0000
  H   H1362     1.0  0.64666  0.55419  0.04197  1.0000
  N   N56       1.0  0.79837  0.81377  0.05907  1.0000
  N   N57       1.0  0.53977  0.68882  0.05564  1.0000
  S   S238      1.0  0.71095  0.71481  0.99407  1.0000
  C   C789      1.0  0.77543  0.79700  0.05289  1.0000
  C   C790      1.0  0.79012  0.83818  0.07224  1.0000
  H   H1363     1.0  0.64810  0.62040  0.06508  1.0000
  H   H1364     1.0  0.83332  0.85518  0.04639  1.0000
  H   H1365     1.0  0.67691  0.60255  0.03306  1.0000
  H   H1366     1.0  0.86406  0.69361  0.18847  1.0000
  H   H1367     1.0  0.66329  0.54185  0.11986  1.0000
  H   H1368     1.0  0.73717  0.92942  0.21483  1.0000
  S   S239      1.0  0.51228  0.51224  0.22887  1.0000
  H   H1369     1.0  0.79768  0.80653  0.11522  1.0000
  H   H1370     1.0  0.78068  0.77627  0.05403  1.0000
  Fe  Fe121     1.0  0.78592  0.98360  0.17712  1.0000
  H   H1371     1.0  0.77778  0.83396  0.08916  1.0000
  H   H1372     1.0  0.80710  0.84847  0.08005  1.0000
  H   H1373     1.0  0.83228  0.81048  0.08308  1.0000
  H   H1374     1.0  0.81650  0.77806  0.11337  1.0000
  C   C791      1.0  0.49936  0.70600  0.03173  1.0000
  C   C792      1.0  0.89024  0.66160  0.22151  1.0000
  H   H1375     1.0  0.95573  0.71260  0.07749  1.0000
  C   C793      1.0  0.53612  0.66091  0.04871  1.0000
  H   H1376     1.0  0.67516  0.57272  0.12708  1.0000
  H   H1377     1.0  0.69091  0.60975  0.10490  1.0000
  N   N58       1.0  0.86803  0.65528  0.20406  1.0000
  H   H1378     1.0  0.85875  0.67667  0.14148  1.0000
  C   C794      1.0  0.53416  0.65413  0.01994  1.0000
  H   H1379     1.0  0.74551  0.78791  0.02524  1.0000
  N   N59       1.0  0.66440  0.58220  0.06717  1.0000
  C   C795      1.0  0.68446  0.58830  0.04705  1.0000
  C   C796      1.0  0.65677  0.60724  0.07956  1.0000
  C   C797      1.0  0.67551  0.56311  0.08593  1.0000
  C   C798      1.0  0.69499  0.56541  0.03138  1.0000
  C   C799      1.0  0.67861  0.62215  0.09282  1.0000
  C   C800      1.0  0.66324  0.56205  0.11305  1.0000
  H   H1380     1.0  0.96581  0.73637  0.11194  1.0000
  H   H1381     1.0  0.70165  0.59734  0.05583  1.0000
  H   H1382     1.0  0.63836  0.66579  0.22678  1.0000
  C   C801      1.0  0.56385  0.72997  0.04180  1.0000
  H   H1383     1.0  0.67480  0.54341  0.07772  1.0000
  H   H1384     1.0  0.69626  0.56732  0.08908  1.0000
  H   H1385     1.0  0.68048  0.55741  0.01811  1.0000
  S   S240      1.0  0.94321  0.60873  0.23690  1.0000
  H   H1386     1.0  0.60259  0.55686  0.05757  1.0000
  H   H1387     1.0  0.69066  0.63245  0.07857  1.0000
  C   C802      1.0  0.76315  0.79989  0.02609  1.0000
  C   C803      1.0  0.98629  0.73659  0.11751  1.0000
  C   C804      1.0  0.51432  0.70263  0.05700  1.0000
  H   H1388     1.0  0.95546  0.91533  0.12162  1.0000
  H   H1389     1.0  0.84942  0.91033  0.17159  1.0000
  H   H1390     1.0  0.89110  0.95669  0.10884  1.0000
  C   C805      1.0  0.55186  0.68999  0.08195  1.0000
  C   C806      1.0  0.53826  0.67463  0.10341  1.0000
  C   C807      1.0  0.97286  0.71186  0.06480  1.0000
  C   C808      1.0  0.61873  0.56253  0.07025  1.0000
  H   H1391     1.0  0.63369  0.58562  0.03945  1.0000
  H   H1392     1.0  0.85285  0.82670  0.05070  1.0000
  H   H1393     1.0  0.82180  0.62269  0.21426  1.0000
  H   H1394     1.0  0.53990  0.73301  0.23630  1.0000
  H   H1395     1.0  0.51867  0.65301  0.05825  1.0000
  C   C809      1.0  0.98316  0.65776  0.08788  1.0000
  C   C810      1.0  0.84363  0.65833  0.21958  1.0000
  H   H1396     1.0  0.98124  0.64389  0.10397  1.0000
  H   H1397     1.0  0.84701  0.64828  0.15521  1.0000
  H   H1398     1.0  0.51876  0.68211  0.10756  1.0000
  H   H1399     1.0  0.89226  0.70391  0.21887  1.0000
  S   S241      1.0  0.76255  0.98929  0.21485  1.0000
  C   C811      1.0  0.99116  0.68388  0.09899  1.0000
  H   H1400     1.0  0.73961  0.89850  0.22922  1.0000
  H   H1401     1.0  0.77620  0.79253  0.01092  1.0000
  H   H1402     1.0  0.51174  0.70878  0.01482  1.0000
  H   H1403     1.0  0.75301  0.98093  0.04823  1.0000
  H   H1404     1.0  0.50097  0.69232  0.07010  1.0000
  H   H1405     1.0  0.97511  0.68916  0.11205  1.0000
  Fe  Fe122     1.0  0.83773  0.99017  0.14914  1.0000
  C   C812      1.0  0.89000  0.68866  0.23355  1.0000
  C   C813      1.0  0.78540  0.74036  0.99923  1.0000
  H   H1406     1.0  0.68129  0.89098  0.24086  1.0000
  H   H1407     1.0  0.99097  0.75643  0.12367  1.0000
  C   C814      1.0  0.62158  0.67171  0.23859  1.0000
  H   H1408     1.0  0.89143  0.64756  0.23753  1.0000
  H   H1409     1.0  0.84668  0.65183  0.23977  1.0000
  Fe  Fe123     1.0  0.91499  0.61017  0.26970  1.0000
  S   S242      1.0  0.92686  0.64932  0.28268  1.0000
  H   H1410     1.0  0.54777  0.89618  0.32272  1.0000
  Fe  Fe124     1.0  0.95498  0.62895  0.30781  1.0000
  S   S243      1.0  0.95971  0.63334  0.35065  1.0000
  S   S244      1.0  0.94105  0.58985  0.29701  1.0000
  Fe  Fe125     1.0  0.78065  0.51964  0.34230  1.0000
  S   S245      1.0  0.79025  0.50643  0.38194  1.0000
  S   S246      1.0  0.81331  0.51143  0.31495  1.0000
  Fe  Fe126     1.0  0.72730  0.53754  0.35761  1.0000
  S   S247      1.0  0.73322  0.52570  0.39888  1.0000
  S   S248      1.0  0.68803  0.55550  0.34974  1.0000
  Fe  Fe127     1.0  0.77231  0.54309  0.39488  1.0000
  S   S249      1.0  0.79500  0.56024  0.42736  1.0000
  S   S250      1.0  0.76556  0.55805  0.35501  1.0000
  Fe  Fe128     1.0  0.88328  0.72482  0.43852  1.0000
  S   S251      1.0  0.84301  0.73717  0.42972  1.0000
  S   S252      1.0  0.90937  0.72996  0.40434  1.0000
  Fe  Fe129     1.0  0.83171  0.70147  0.45073  1.0000
  S   S253      1.0  0.79805  0.68128  0.43245  1.0000
  Fe  Fe130     1.0  0.84352  0.75663  0.46777  1.0000
  H   H1411     1.0  0.54144  0.51653  0.27882  1.0000
  S   S254      1.0  0.87204  0.68737  0.45690  1.0000
  S   S255      1.0  0.88511  0.74732  0.47543  1.0000
  Fe  Fe131     1.0  0.73708  0.94096  0.36610  1.0000
  S   S256      1.0  0.72113  0.90211  0.35835  1.0000
  S   S257      1.0  0.76559  0.95198  0.33345  1.0000
  Fe  Fe132     1.0  0.71031  0.94079  0.42091  1.0000
  S   S258      1.0  0.69301  0.90145  0.41421  1.0000
  S   S259      1.0  0.69782  0.96399  0.45730  1.0000
  Fe  Fe133     1.0  0.73210  0.89118  0.39839  1.0000
  S   S260      1.0  0.75215  0.85238  0.39655  1.0000
  Fe  Fe134     1.0  0.68392  0.91600  0.37457  1.0000
  S   S261      1.0  0.65066  0.90940  0.34718  1.0000
  S   S262      1.0  0.75008  0.92958  0.40628  1.0000
  S   S263      1.0  0.69907  0.95581  0.38121  1.0000
  C   C815      1.0  0.50725  0.71577  0.28989  1.0000
  H   H1412     1.0  0.56342  0.95812  0.35855  1.0000
  H   H1413     1.0  0.59638  0.95035  0.35466  1.0000
  Fe  Fe135     1.0  0.52151  0.83587  0.34334  1.0000
  S   S264      1.0  0.55094  0.84508  0.37407  1.0000
  S   S265      1.0  0.52552  0.83756  0.30052  1.0000
  H   H1414     1.0  0.81955  0.59962  0.28256  1.0000
  H   H1415     1.0  0.63775  0.65114  0.27012  1.0000
  C   C816      1.0  0.53547  0.91557  0.35609  1.0000
  H   H1416     1.0  0.56968  0.52197  0.29739  1.0000
  S   S266      1.0  0.74208  0.49998  0.34203  1.0000
  C   C817      1.0  0.51843  0.73219  0.27169  1.0000
  H   H1417     1.0  0.62716  0.69337  0.31814  1.0000
  H   H1418     1.0  0.73573  0.93460  0.26122  1.0000
  C   C818      1.0  0.52140  0.67729  0.26589  1.0000
  H   H1419     1.0  0.90680  0.69047  0.24652  1.0000
  Fe  Fe136     1.0  0.97102  0.59192  0.26589  1.0000
  C   C819      1.0  0.63814  0.65412  0.31959  1.0000
  H   H1420     1.0  0.52878  0.96515  0.33695  1.0000
  C   C820      1.0  0.76411  0.96232  0.30045  1.0000
  C   C821      1.0  0.57687  0.50564  0.25918  1.0000
  H   H1421     1.0  0.73882  0.53452  0.48721  1.0000
  H   H1422     1.0  0.61870  0.51831  0.28274  1.0000
  C   C822      1.0  0.78366  0.96277  0.25719  1.0000
  C   C823      1.0  0.78372  0.95480  0.28325  1.0000
  H   H1423     1.0  0.56227  0.90536  0.25457  1.0000
  H   H1424     1.0  0.79908  0.94261  0.29007  1.0000
  C   C824      1.0  0.62446  0.88952  0.35515  1.0000
  C   C825      1.0  0.60935  0.87942  0.33533  1.0000
  C   C826      1.0  0.58706  0.86530  0.34089  1.0000
  C   C827      1.0  0.57965  0.86130  0.36635  1.0000
  C   C828      1.0  0.59509  0.87084  0.38620  1.0000
  C   C829      1.0  0.61749  0.88489  0.38064  1.0000
  H   H1425     1.0  0.61474  0.88270  0.31559  1.0000
  H   H1426     1.0  0.57558  0.85755  0.32549  1.0000
  H   H1427     1.0  0.58954  0.86767  0.40595  1.0000
  H   H1428     1.0  0.62900  0.89264  0.39603  1.0000
  C   C830      1.0  0.80657  0.81265  0.45333  1.0000
  C   C831      1.0  0.80523  0.80480  0.42775  1.0000
  C   C832      1.0  0.78873  0.81750  0.41058  1.0000
  C   C833      1.0  0.77379  0.83847  0.41864  1.0000
  C   C834      1.0  0.77592  0.84710  0.44392  1.0000
  C   C835      1.0  0.79221  0.83413  0.46122  1.0000
  H   H1429     1.0  0.81645  0.78854  0.42135  1.0000
  H   H1430     1.0  0.78732  0.81083  0.39100  1.0000
  H   H1431     1.0  0.76456  0.86328  0.45032  1.0000
  H   H1432     1.0  0.70688  0.94480  0.24660  1.0000
  C   C836      1.0  0.79571  0.59387  0.42873  1.0000
  C   C837      1.0  0.77787  0.60859  0.41514  1.0000
  C   C838      1.0  0.77857  0.63545  0.41678  1.0000
  C   C839      1.0  0.79739  0.64766  0.43158  1.0000
  C   C840      1.0  0.81535  0.63293  0.44502  1.0000
  C   C841      1.0  0.81439  0.60604  0.44374  1.0000
  H   H1433     1.0  0.76337  0.59929  0.40361  1.0000
  H   H1434     1.0  0.76463  0.64680  0.40636  1.0000
  H   H1435     1.0  0.82980  0.64226  0.45660  1.0000
  H   H1436     1.0  0.82816  0.59467  0.45434  1.0000
  C   C842      1.0  0.67185  0.55758  0.31990  1.0000
  C   C843      1.0  0.68367  0.55049  0.29687  1.0000
  C   C844      1.0  0.67035  0.55310  0.27352  1.0000
  C   C845      1.0  0.64504  0.56259  0.27292  1.0000
  C   C846      1.0  0.63303  0.56930  0.29598  1.0000
  C   C847      1.0  0.64647  0.56695  0.31932  1.0000
  H   H1437     1.0  0.70318  0.54330  0.29705  1.0000
  H   H1438     1.0  0.50954  0.95408  0.31179  1.0000
  H   H1439     1.0  0.61344  0.57619  0.29586  1.0000
  H   H1440     1.0  0.63715  0.57235  0.33709  1.0000
  C   C848      1.0  0.85633  0.58052  0.28191  1.0000
  C   C849      1.0  0.86959  0.55792  0.28777  1.0000
  C   C850      1.0  0.85628  0.53682  0.29810  1.0000
  C   C851      1.0  0.82987  0.53854  0.30336  1.0000
  C   C852      1.0  0.81681  0.56143  0.29824  1.0000
  C   C853      1.0  0.82994  0.58222  0.28716  1.0000
  H   H1441     1.0  0.88989  0.55639  0.28357  1.0000
  H   H1442     1.0  0.86645  0.51911  0.30189  1.0000
  H   H1443     1.0  0.79641  0.56281  0.30199  1.0000
  C   C854      1.0  0.50393  0.78853  0.41767  1.0000
  C   C855      1.0  0.94499  0.65997  0.36527  1.0000
  C   C856      1.0  0.93661  0.68088  0.35072  1.0000
  C   C857      1.0  0.92552  0.70220  0.36292  1.0000
  C   C858      1.0  0.92214  0.70244  0.38961  1.0000
  C   C859      1.0  0.93006  0.68129  0.40413  1.0000
  C   C860      1.0  0.94176  0.66023  0.39199  1.0000
  H   H1444     1.0  0.93928  0.68097  0.33015  1.0000
  H   H1445     1.0  0.91965  0.71865  0.35167  1.0000
  H   H1446     1.0  0.92779  0.68153  0.42476  1.0000
  H   H1447     1.0  0.94836  0.64415  0.40335  1.0000
  N   N60       1.0  0.86099  0.62859  0.37291  1.0000
  C   C861      1.0  0.87070  0.60539  0.38738  1.0000
  C   C862      1.0  0.83259  0.62494  0.36870  1.0000
  C   C863      1.0  0.86492  0.65163  0.38995  1.0000
  C   C864      1.0  0.87594  0.63120  0.34813  1.0000
  C   C865      1.0  0.89911  0.60628  0.39577  1.0000
  C   C866      1.0  0.82492  0.59949  0.35573  1.0000
  C   C867      1.0  0.85555  0.67765  0.37963  1.0000
  C   C868      1.0  0.86203  0.64410  0.32535  1.0000
  H   H1448     1.0  0.85884  0.60195  0.40491  1.0000
  H   H1449     1.0  0.86887  0.58773  0.37555  1.0000
  H   H1450     1.0  0.82415  0.64075  0.35722  1.0000
  H   H1451     1.0  0.82220  0.62573  0.38730  1.0000
  H   H1452     1.0  0.85545  0.64858  0.40891  1.0000
  H   H1453     1.0  0.88559  0.65452  0.39407  1.0000
  H   H1454     1.0  0.89406  0.64203  0.35135  1.0000
  H   H1455     1.0  0.88233  0.61211  0.34085  1.0000
  H   H1456     1.0  0.91211  0.61155  0.37974  1.0000
  H   H1457     1.0  0.90195  0.61957  0.41212  1.0000
  H   H1458     1.0  0.90501  0.58695  0.40257  1.0000
  H   H1459     1.0  0.80548  0.60146  0.34720  1.0000
  H   H1460     1.0  0.83845  0.59388  0.34029  1.0000
  H   H1461     1.0  0.82390  0.58373  0.37008  1.0000
  H   H1462     1.0  0.86775  0.68438  0.36353  1.0000
  H   H1463     1.0  0.85783  0.69217  0.39502  1.0000
  H   H1464     1.0  0.83494  0.67768  0.37444  1.0000
  H   H1465     1.0  0.84688  0.63153  0.31735  1.0000
  H   H1466     1.0  0.87610  0.64735  0.30966  1.0000
  H   H1467     1.0  0.85357  0.66293  0.33011  1.0000
  C   C869      1.0  0.75900  0.49603  0.45777  1.0000
  H   H1468     1.0  0.64165  0.65410  0.34061  1.0000
  H   H1469     1.0  0.55578  0.94606  0.27271  1.0000
  C   C870      1.0  0.52972  0.95929  0.31660  1.0000
  H   H1470     1.0  0.70787  0.87517  0.29137  1.0000
  H   H1471     1.0  0.76767  0.77235  0.48886  1.0000
  H   H1472     1.0  0.75827  0.89892  0.27097  1.0000
  H   H1473     1.0  0.65683  0.65847  0.31025  1.0000
  H   H1474     1.0  0.64120  0.88482  0.26376  1.0000
  H   H1475     1.0  0.67975  0.54777  0.25578  1.0000
  H   H1476     1.0  0.98125  0.57080  0.34895  1.0000
  H   H1477     1.0  0.71985  0.80161  0.47642  1.0000
  H   H1478     1.0  0.58524  0.92333  0.32270  1.0000
  H   H1479     1.0  0.66646  0.87055  0.28193  1.0000
  C   C871      1.0  0.50874  0.68871  0.28698  1.0000
  C   C872      1.0  0.59769  0.70237  0.28081  1.0000
  C   C873      1.0  0.75173  0.75834  0.48587  1.0000
  C   C874      1.0  0.68162  0.94899  0.29315  1.0000
  H   H1480     1.0  0.61392  0.71618  0.27908  1.0000
  H   H1481     1.0  0.58424  0.97804  0.33918  1.0000
  H   H1482     1.0  0.68003  0.95750  0.31263  1.0000
  H   H1483     1.0  0.52865  0.83658  0.44462  1.0000
  C   C875      1.0  0.74483  0.98676  0.26517  1.0000
  C   C876      1.0  0.81766  0.49530  0.45498  1.0000
  C   C877      1.0  0.71784  0.88630  0.27608  1.0000
  H   H1484     1.0  0.55506  0.91548  0.36442  1.0000
  C   C878      1.0  0.74572  0.88983  0.28556  1.0000
  H   H1485     1.0  0.51658  0.90955  0.31992  1.0000
  H   H1486     1.0  0.50667  0.79162  0.46892  1.0000
  S   S267      1.0  0.51765  0.76680  0.27434  1.0000
  C   C879      1.0  0.77210  0.74594  0.44523  1.0000
  C   C880      1.0  0.56054  0.50839  0.28380  1.0000
  C   C881      1.0  0.57473  0.94169  0.32008  1.0000
  H   H1487     1.0  0.79756  0.52654  0.47205  1.0000
  H   H1488     1.0  0.49733  0.72392  0.30621  1.0000
  H   H1489     1.0  0.73464  0.69958  0.43303  1.0000
  H   H1490     1.0  0.78780  0.75953  0.45005  1.0000
  H   H1491     1.0  0.59078  0.62263  0.30639  1.0000
  C   C882      1.0  0.74468  0.97848  0.29112  1.0000
  H   H1492     1.0  0.73690  0.77855  0.42515  1.0000
  H   H1493     1.0  0.52414  0.93219  0.36298  1.0000
  C   C883      1.0  0.49969  0.87382  0.41639  1.0000
  H   H1494     1.0  0.60939  0.62229  0.27678  1.0000
  H   H1495     1.0  0.75646  0.79374  0.44841  1.0000
  C   C884      1.0  0.54670  0.93044  0.28412  1.0000
  H   H1496     1.0  0.56136  0.70190  0.30317  1.0000
  S   S268      1.0  0.55216  0.57207  0.25755  1.0000
  N   N61       1.0  0.82141  0.90068  0.37165  1.0000
  C   C885      1.0  0.81327  0.88669  0.39576  1.0000
  C   C886      1.0  0.80115  0.89520  0.35173  1.0000
  C   C887      1.0  0.82139  0.92903  0.37744  1.0000
  C   C888      1.0  0.84785  0.89137  0.36412  1.0000
  C   C889      1.0  0.82978  0.89098  0.41995  1.0000
  C   C890      1.0  0.79947  0.86712  0.34257  1.0000
  C   C891      1.0  0.83100  0.94708  0.35605  1.0000
  C   C892      1.0  0.85668  0.89633  0.33612  1.0000
  H   H1497     1.0  0.79313  0.89172  0.40107  1.0000
  H   H1498     1.0  0.81336  0.86562  0.39262  1.0000
  H   H1499     1.0  0.80326  0.90727  0.33440  1.0000
  H   H1500     1.0  0.78175  0.90059  0.35915  1.0000
  H   H1501     1.0  0.80169  0.93548  0.38286  1.0000
  H   H1502     1.0  0.83385  0.93344  0.39409  1.0000
  H   H1503     1.0  0.86258  0.90002  0.37689  1.0000
  H   H1504     1.0  0.84949  0.87028  0.36739  1.0000
  H   H1505     1.0  0.82396  0.87681  0.43481  1.0000
  H   H1506     1.0  0.85054  0.88794  0.41644  1.0000
  H   H1507     1.0  0.82633  0.91016  0.42849  1.0000
  H   H1508     1.0  0.79266  0.85409  0.35793  1.0000
  H   H1509     1.0  0.78506  0.86593  0.32696  1.0000
  H   H1510     1.0  0.81791  0.85991  0.33480  1.0000
  H   H1511     1.0  0.85199  0.94512  0.35304  1.0000
  H   H1512     1.0  0.82752  0.96722  0.36212  1.0000
  H   H1513     1.0  0.82069  0.94471  0.33770  1.0000
  H   H1514     1.0  0.87514  0.90699  0.33613  1.0000
  H   H1515     1.0  0.84317  0.90737  0.32413  1.0000
  H   H1516     1.0  0.86057  0.87782  0.32628  1.0000
  H   H1517     1.0  0.69920  0.78075  0.45756  1.0000
  H   H1518     1.0  0.57239  0.73286  0.29421  1.0000
  H   H1519     1.0  0.57551  0.66021  0.26431  1.0000
  H   H1520     1.0  0.71842  0.87334  0.25913  1.0000
  C   C893      1.0  0.57924  0.95801  0.34444  1.0000
  H   H1521     1.0  0.75405  0.87064  0.28968  1.0000
  C   C894      1.0  0.65874  0.88914  0.27504  1.0000
  H   H1522     1.0  0.79326  0.84042  0.48096  1.0000
  H   H1523     1.0  0.71134  0.81008  0.44458  1.0000
  C   C895      1.0  0.77155  0.74335  0.41574  1.0000
  H   H1524     1.0  0.65249  0.90078  0.29166  1.0000
  C   C896      1.0  0.51674  0.80955  0.47380  1.0000
  S   S269      1.0  0.50098  0.79788  0.34369  1.0000
  C   C897      1.0  0.59125  0.62851  0.28592  1.0000
  H   H1525     1.0  0.58806  0.71652  0.31983  1.0000
  N   N62       1.0  0.60762  0.67558  0.28608  1.0000
  H   H1526     1.0  0.77908  0.72752  0.45301  1.0000
  C   C898      1.0  0.73216  0.70682  0.45291  1.0000
  S   S270      1.0  0.52315  0.64267  0.26379  1.0000
  H   H1527     1.0  0.58499  0.95192  0.30433  1.0000
  C   C899      1.0  0.67804  0.90357  0.25776  1.0000
  H   H1528     1.0  0.53060  0.98122  0.28049  1.0000
  N   N63       1.0  0.54723  0.93657  0.31245  1.0000
  H   H1529     1.0  0.52585  0.89814  0.36369  1.0000
  H   H1530     1.0  0.54845  0.88839  0.28069  1.0000
  H   H1531     1.0  0.57015  0.66137  0.29722  1.0000
  S   S271      1.0  0.87177  0.60659  0.26694  1.0000
  H   H1532     1.0  0.75783  0.51662  0.45212  1.0000
  H   H1533     1.0  0.71680  0.73970  0.43370  1.0000
  S   S272      1.0  0.82929  0.72169  0.48849  1.0000
  C   C900      1.0  0.58549  0.65730  0.28292  1.0000
  Fe  Fe137     1.0  0.50278  0.80022  0.30043  1.0000
  H   H1534     1.0  0.64502  0.68413  0.27022  1.0000
  H   H1535     1.0  0.75473  0.73240  0.40888  1.0000
  C   C901      1.0  0.62899  0.67033  0.26719  1.0000
  H   H1536     1.0  0.66820  0.92092  0.25005  1.0000
  C   C902      1.0  0.72547  0.73583  0.45286  1.0000
  C   C903      1.0  0.61779  0.67480  0.31322  1.0000
  H   H1537     1.0  0.99017  0.54294  0.33082  1.0000
  H   H1538     1.0  0.80851  0.49810  0.43603  1.0000
  N   N64       1.0  0.70323  0.91059  0.27009  1.0000
  H   H1539     1.0  0.74665  0.90093  0.30365  1.0000
  C   C904      1.0  0.71811  0.92741  0.25185  1.0000
  H   H1540     1.0  0.69100  0.91224  0.30984  1.0000
  H   H1541     1.0  0.58732  0.70318  0.26216  1.0000
  C   C905      1.0  0.53643  0.91376  0.32667  1.0000
  H   H1542     1.0  0.77207  0.76238  0.40623  1.0000
  S   S273      1.0  0.82445  0.79514  0.47631  1.0000
  H   H1543     1.0  0.60172  0.67248  0.32720  1.0000
  H   H1544     1.0  0.99300  0.57356  0.31627  1.0000
  H   H1545     1.0  0.63223  0.63447  0.31441  1.0000
  H   H1546     1.0  0.50636  0.77996  0.39834  1.0000
  H   H1547     1.0  0.68982  0.96399  0.28051  1.0000
  C   C906      1.0  0.80077  0.50600  0.47684  1.0000
  H   H1548     1.0  0.66182  0.94437  0.28700  1.0000
  H   H1549     1.0  0.70983  0.73892  0.46714  1.0000
  C   C907      1.0  0.57890  0.71365  0.30088  1.0000
  C   C908      1.0  0.74030  0.78009  0.44615  1.0000
  C   C909      1.0  0.71620  0.79349  0.45712  1.0000
  H   H1550     1.0  0.57973  0.90344  0.28408  1.0000
  H   H1551     1.0  0.71758  0.93181  0.30276  1.0000
  H   H1552     1.0  0.52661  0.92933  0.27707  1.0000
  N   N65       1.0  0.74724  0.75433  0.45757  1.0000
  H   H1553     1.0  0.74907  0.70122  0.46438  1.0000
  C   C910      1.0  0.56025  0.90543  0.27579  1.0000
  C   C911      1.0  0.69903  0.92504  0.29477  1.0000
  H   H1554     1.0  0.71564  0.69595  0.46090  1.0000
  H   H1555     1.0  0.78901  0.73292  0.40926  1.0000
  H   H1556     1.0  0.49986  0.67649  0.30124  1.0000
  S   S274      1.0  0.98656  0.63011  0.27826  1.0000
  C   C912      1.0  0.53629  0.98351  0.30088  1.0000
  H   H1557     1.0  0.83597  0.50619  0.45442  1.0000
  C   C913      1.0  0.76420  0.97891  0.24783  1.0000
  H   H1558     1.0  0.52308  0.78773  0.42688  1.0000
  H   H1559     1.0  0.53762  0.80514  0.47300  1.0000
  H   H1560     1.0  0.58312  0.52527  0.25352  1.0000
  C   C914      1.0  0.53120  0.72076  0.25064  1.0000
  H   H1561     1.0  0.79878  0.95655  0.24435  1.0000
  H   H1562     1.0  0.57617  0.61767  0.27568  1.0000
  C   C915      1.0  0.51098  0.83283  0.45616  1.0000
  H   H1563     1.0  0.51031  0.82605  0.40397  1.0000
  Fe  Fe138     1.0  0.95668  0.64696  0.25145  1.0000
  H   H1564     1.0  0.55692  0.98854  0.30204  1.0000
  H   H1565     1.0  0.51836  0.87491  0.42649  1.0000
  C   C916      1.0  0.53269  0.69369  0.24773  1.0000
  C   C917      1.0  0.61547  0.49726  0.28395  1.0000
  H   H1566     1.0  0.72976  0.98504  0.30403  1.0000
  H   H1567     1.0  0.50882  0.84973  0.46906  1.0000
  H   H1568     1.0  0.87266  0.69218  0.24539  1.0000
  H   H1569     1.0  0.56373  0.49952  0.24369  1.0000
  H   H1570     1.0  0.50275  0.86675  0.39661  1.0000
  S   S275      1.0  0.62921  0.56494  0.24294  1.0000
  C   C918      1.0  0.69852  0.96639  0.49195  1.0000
  C   C919      1.0  0.49458  0.81641  0.41454  1.0000
  H   H1571     1.0  0.60493  0.49414  0.30229  1.0000
  H   H1572     1.0  0.72023  0.49411  0.47563  1.0000
  N   N66       1.0  0.77553  0.49253  0.48122  1.0000
  H   H1573     1.0  0.90133  0.63457  0.57293  1.0000
  H   H1574     1.0  0.60343  0.89789  0.62121  1.0000
  H   H1575     1.0  0.81253  0.50618  0.49464  1.0000
  H   H1576     1.0  0.65201  0.93957  0.52108  1.0000
  H   H1577     1.0  0.91013  0.51563  0.70639  1.0000
  S   S276      1.0  0.87931  0.69690  0.53438  1.0000
  C   C920      1.0  0.94840  0.58607  0.61806  1.0000
  S   S277      1.0  0.67243  0.97483  0.65372  1.0000
  S   S278      1.0  0.60486  0.94240  0.65483  1.0000
  H   H1578     1.0  0.64358  0.94139  0.70005  1.0000
  H   H1579     1.0  0.91233  0.57944  0.58420  1.0000
  C   C921      1.0  0.71467  0.95420  0.53447  1.0000
  S   S279      1.0  0.96427  0.67038  0.66780  1.0000
  C   C922      1.0  0.75790  0.73430  0.50188  1.0000
  H   H1580     1.0  0.84629  0.51700  0.74183  1.0000
  C   C923      1.0  0.90626  0.58518  0.63863  1.0000
  H   H1581     1.0  0.93852  0.63792  0.61649  1.0000
  C   C924      1.0  0.95390  0.56437  0.69729  1.0000
  C   C925      1.0  0.94795  0.92756  0.66290  1.0000
  C   C926      1.0  0.97476  0.52238  0.70202  1.0000
  H   H1582     1.0  0.93378  0.93457  0.70132  1.0000
  H   H1583     1.0  0.57607  0.90924  0.60442  1.0000
  H   H1584     1.0  0.91666  0.61088  0.55417  1.0000
  H   H1585     1.0  0.93653  0.62575  0.64769  1.0000
  H   H1586     1.0  0.66776  0.93987  0.72381  1.0000
  H   H1587     1.0  0.60144  0.92041  0.56652  1.0000
  H   H1588     1.0  0.52327  0.76079  0.67390  1.0000
  H   H1589     1.0  0.57555  0.98051  0.68411  1.0000
  H   H1590     1.0  0.62043  0.94099  0.53405  1.0000
  C   C927      1.0  0.97623  0.54928  0.69781  1.0000
  H   H1591     1.0  0.96200  0.94217  0.65677  1.0000
  H   H1592     1.0  0.97229  0.61767  0.60254  1.0000
  H   H1593     1.0  0.72698  0.93716  0.49844  1.0000
  S   S280      1.0  0.95438  0.59884  0.69302  1.0000
  C   C928      1.0  0.96830  0.59713  0.59921  1.0000
  C   C929      1.0  0.90935  0.69190  0.54965  1.0000
  C   C930      1.0  0.91026  0.69141  0.57662  1.0000
  C   C931      1.0  0.93336  0.68606  0.58963  1.0000
  C   C932      1.0  0.95565  0.68038  0.57578  1.0000
  C   C933      1.0  0.95485  0.68102  0.54882  1.0000
  C   C934      1.0  0.93186  0.68695  0.53579  1.0000
  H   H1594     1.0  0.89297  0.69535  0.58750  1.0000
  H   H1595     1.0  0.93391  0.68629  0.61033  1.0000
  H   H1596     1.0  0.97201  0.67675  0.53792  1.0000
  H   H1597     1.0  0.93140  0.68715  0.51505  1.0000
  C   C935      1.0  0.52500  0.93934  0.69275  1.0000
  C   C936      1.0  0.53500  0.91809  0.67978  1.0000
  C   C937      1.0  0.55952  0.91937  0.66837  1.0000
  C   C938      1.0  0.57420  0.94190  0.66963  1.0000
  C   C939      1.0  0.56432  0.96315  0.68275  1.0000
  C   C940      1.0  0.53985  0.96181  0.69431  1.0000
  H   H1598     1.0  0.52378  0.90070  0.67846  1.0000
  H   H1599     1.0  0.56705  0.90276  0.65846  1.0000
  Fe  Fe139     1.0  0.98175  0.63258  0.68155  1.0000
  C   C941      1.0  0.76290  0.50396  0.50463  1.0000
  C   C942      1.0  0.93011  0.55174  0.70055  1.0000
  H   H1600     1.0  0.94638  0.56568  0.61226  1.0000
  C   C943      1.0  0.92862  0.52477  0.70424  1.0000
  H   H1601     1.0  0.56119  0.99012  0.63794  1.0000
  H   H1602     1.0  0.87445  0.49859  0.73629  1.0000
  H   H1603     1.0  0.88803  0.60017  0.59623  1.0000
  H   H1604     1.0  0.95737  0.58577  0.63748  1.0000
  C   C944      1.0  0.92610  0.62619  0.62908  1.0000
  H   H1605     1.0  0.57339  0.97076  0.60078  1.0000
  C   C945      1.0  0.90341  0.55596  0.63479  1.0000
  H   H1606     1.0  0.66324  0.87472  0.53818  1.0000
  C   C946      1.0  0.68255  0.98448  0.50440  1.0000
  N   N67       1.0  0.92258  0.59927  0.61916  1.0000
  H   H1607     1.0  0.77463  0.72351  0.49451  1.0000
  H   H1608     1.0  0.98682  0.58686  0.60195  1.0000
  H   H1609     1.0  0.89816  0.55093  0.61485  1.0000
  C   C947      1.0  0.71446  0.95111  0.50740  1.0000
  C   C948      1.0  0.99111  0.90130  0.69690  1.0000
  H   H1610     1.0  0.53227  0.97826  0.70446  1.0000
  H   H1611     1.0  0.59308  0.88208  0.59226  1.0000
  H   H1612     1.0  0.88636  0.59300  0.63904  1.0000
  H   H1613     1.0  0.67152  0.92854  0.55952  1.0000
  C   C949      1.0  0.56147  0.98798  0.59664  1.0000
  C   C950      1.0  0.90920  0.59841  0.59349  1.0000
  C   C951      1.0  0.61170  0.91955  0.58514  1.0000
  H   H1614     1.0  0.76290  0.74033  0.52169  1.0000
  H   H1615     1.0  0.74517  0.53827  0.52053  1.0000
  H   H1616     1.0  0.97995  0.88325  0.69445  1.0000
  C   C952      1.0  0.68155  0.90991  0.60846  1.0000
  C   C953      1.0  0.91638  0.61943  0.57367  1.0000
  N   N68       1.0  0.63970  0.91264  0.58143  1.0000
  S   S281      1.0  0.98461  0.67127  0.59123  1.0000
  H   H1617     1.0  0.63906  0.87207  0.58998  1.0000
  H   H1618     1.0  0.99230  0.51123  0.70275  1.0000
  C   C954      1.0  0.94824  0.92188  0.69194  1.0000
  C   C955      1.0  0.65289  0.91702  0.60683  1.0000
  C   C956      1.0  0.59558  0.90093  0.60176  1.0000
  H   H1619     1.0  0.72740  0.94242  0.54590  1.0000
  H   H1620     1.0  0.65117  0.93755  0.61253  1.0000
  H   H1621     1.0  0.60983  0.93910  0.59362  1.0000
  H   H1622     1.0  0.89038  0.63438  0.65043  1.0000
  H   H1623     1.0  0.74096  0.72153  0.50347  1.0000
  H   H1624     1.0  0.49998  0.81020  0.69674  1.0000
  H   H1625     1.0  0.93528  0.62855  0.57636  1.0000
  H   H1626     1.0  0.64355  0.90603  0.62248  1.0000
  H   H1627     1.0  0.88856  0.64179  0.61644  1.0000
  H   H1628     1.0  0.96670  0.97310  0.72971  1.0000
  H   H1629     1.0  0.63565  0.91032  0.52790  1.0000
  H   H1630     1.0  0.91385  0.58805  0.65836  1.0000
  Fe  Fe140     1.0  0.62960  0.97767  0.64871  1.0000
  H   H1631     1.0  0.94047  0.88843  0.73417  1.0000
  H   H1632     1.0  0.90615  0.66183  0.63793  1.0000
  H   H1633     1.0  0.52704  0.79315  0.66362  1.0000
  C   C957      1.0  0.66670  0.87672  0.55910  1.0000
  C   C958      1.0  0.95100  0.50977  0.70545  1.0000
  C   C959      1.0  0.64172  0.88499  0.57313  1.0000
  C   C960      1.0  0.63874  0.93009  0.53487  1.0000
  H   H1634     1.0  0.62573  0.88042  0.55971  1.0000
  H   H1635     1.0  0.64854  0.95125  0.56889  1.0000
  C   C961      1.0  0.65060  0.93112  0.56198  1.0000
  C   C962      1.0  0.69869  0.97229  0.54690  1.0000
  Fe  Fe141     1.0  0.87092  0.71065  0.49356  1.0000
  N   N69       1.0  0.97382  0.92306  0.70536  1.0000
  H   H1636     1.0  0.92894  0.93574  0.65761  1.0000
  H   H1637     1.0  0.51440  0.74724  0.72377  1.0000
  C   C963      1.0  0.90115  0.64161  0.63353  1.0000
  H   H1638     1.0  0.70901  0.98791  0.73974  1.0000
  C   C964      1.0  0.51326  0.77953  0.67256  1.0000
  C   C965      1.0  0.68242  0.98726  0.53152  1.0000
  H   H1639     1.0  0.91260  0.56293  0.70032  1.0000
  H   H1640     1.0  0.67239  0.85732  0.56587  1.0000
  C   C966      1.0  0.64699  0.94389  0.72094  1.0000
  H   H1641     1.0  0.69349  0.92010  0.59412  1.0000
  H   H1642     1.0  0.93972  0.90243  0.69400  1.0000
  H   H1643     1.0  0.52413  0.79012  0.71019  1.0000
  H   H1644     1.0  0.92114  0.54559  0.64059  1.0000
  H   H1645     1.0  0.68448  0.88889  0.60708  1.0000
  H   H1646     1.0  0.50491  0.71410  0.69719  1.0000
  H   H1647     1.0  0.95097  0.90970  0.65169  1.0000
  H   H1648     1.0  0.77625  0.50352  0.52125  1.0000
  H   H1649     1.0  0.88789  0.54877  0.64757  1.0000
  H   H1650     1.0  0.68890  0.91583  0.62754  1.0000
  H   H1651     1.0  0.52442  0.96629  0.63762  1.0000
  C   C967      1.0  0.50584  0.78976  0.69925  1.0000
  H   H1652     1.0  0.96252  0.59391  0.57902  1.0000
  H   H1653     1.0  0.68354  0.88920  0.56201  1.0000
  C   C968      1.0  0.75384  0.53209  0.50205  1.0000
  H   H1654     1.0  0.51251  0.81437  0.49412  1.0000
  H   H1655     1.0  0.98315  0.98984  0.70507  1.0000
  C   C969      1.0  0.97137  0.97250  0.70897  1.0000
  H   H1656     1.0  0.97341  0.87793  0.73889  1.0000
  H   H1657     1.0  0.63004  0.98066  0.71206  1.0000
  H   H1658     1.0  0.54345  0.98032  0.58868  1.0000
  C   C970      1.0  0.64069  0.97196  0.72839  1.0000
  H   H1659     1.0  0.95359  0.97427  0.69745  1.0000
  H   H1660     1.0  0.49674  0.77842  0.65926  1.0000
  C   C971      1.0  0.98714  0.94850  0.70162  1.0000
  C   C972      1.0  0.96897  0.92000  0.73380  1.0000
  S   S282      1.0  0.69944  0.97461  0.58155  1.0000
  Fe  Fe142     1.0  0.99122  0.66677  0.63423  1.0000
  H   H1661     1.0  0.65947  0.98216  0.72887  1.0000
  H   H1662     1.0  0.59085  0.98580  0.73347  1.0000
  C   C973      1.0  0.50754  0.97921  0.63912  1.0000
  H   H1663     1.0  0.59464  0.94001  0.72355  1.0000
  H   H1664     1.0  0.76996  0.54537  0.49802  1.0000
  H   H1665     1.0  0.50426  0.98475  0.65939  1.0000
  H   H1666     1.0  0.73454  0.76677  0.49528  1.0000
  H   H1667     1.0  0.63559  0.92896  0.73067  1.0000
  H   H1668     1.0  0.87660  0.53271  0.74203  1.0000
  H   H1669     1.0  0.95459  0.93418  0.74080  1.0000
  S   S283      1.0  0.49391  0.93886  0.70665  1.0000
  C   C974      1.0  0.49356  0.74795  0.71897  1.0000
  H   H1670     1.0  0.56656  0.94690  0.74158  1.0000
  H   H1671     1.0  0.72518  0.98511  0.78455  1.0000
  S   S284      1.0  0.72267  0.53365  0.91310  1.0000
  H   H1672     1.0  0.89748  0.56380  0.76403  1.0000
  H   H1673     1.0  0.88909  0.54676  0.80407  1.0000
  S   S285      1.0  0.65053  0.67196  0.96934  1.0000
  N   N70       1.0  0.62628  0.97628  0.75321  1.0000
  S   S286      1.0  0.64759  0.59586  0.98661  1.0000
  C   C975      1.0  0.63502  0.95886  0.77465  1.0000
  C   C976      1.0  0.54396  0.70503  0.96235  1.0000
  H   H1674     1.0  0.58998  0.60252  0.84297  1.0000
  C   C977      1.0  0.51308  0.73988  0.96957  1.0000
  H   H1675     1.0  0.58321  0.59723  0.87608  1.0000
  C   C978      1.0  0.66356  0.96116  0.78218  1.0000
  H   H1676     1.0  0.51781  0.80724  0.74911  1.0000
  Fe  Fe143     1.0  0.61369  0.68566  0.98855  1.0000
  H   H1677     1.0  0.87047  0.49422  0.85091  1.0000
  C   C979      1.0  0.91312  0.55116  0.77116  1.0000
  H   H1678     1.0  0.59187  0.62540  0.90612  1.0000
  H   H1679     1.0  0.59391  0.59717  0.92691  1.0000
  H   H1680     1.0  0.92008  0.53457  0.80837  1.0000
  C   C980      1.0  0.70249  0.55009  0.93490  1.0000
  C   C981      1.0  0.70931  0.57486  0.94306  1.0000
  C   C982      1.0  0.69275  0.58925  0.95894  1.0000
  C   C983      1.0  0.66962  0.57857  0.96740  1.0000
  C   C984      1.0  0.66336  0.55342  0.96016  1.0000
  C   C985      1.0  0.67946  0.53938  0.94360  1.0000
  H   H1681     1.0  0.72716  0.58323  0.93647  1.0000
  H   H1682     1.0  0.69787  0.60854  0.96455  1.0000
  H   H1683     1.0  0.64559  0.54495  0.96682  1.0000
  H   H1684     1.0  0.67411  0.52028  0.93759  1.0000
  N   N71       1.0  0.63625  0.59223  0.89127  1.0000
  C   C986      1.0  0.66502  0.59014  0.88792  1.0000
  C   C987      1.0  0.62655  0.56633  0.89985  1.0000
  C   C988      1.0  0.63132  0.61157  0.91229  1.0000
  C   C989      1.0  0.62465  0.60095  0.86616  1.0000
  C   C990      1.0  0.67942  0.61547  0.88277  1.0000
  C   C991      1.0  0.63512  0.54334  0.88324  1.0000
  C   C992      1.0  0.60328  0.61528  0.92093  1.0000
  C   C993      1.0  0.59681  0.59250  0.86050  1.0000
  H   H1685     1.0  0.67382  0.58134  0.90517  1.0000
  H   H1686     1.0  0.67007  0.57714  0.87173  1.0000
  H   H1687     1.0  0.60529  0.56577  0.90098  1.0000
  H   H1688     1.0  0.63294  0.56222  0.91976  1.0000
  H   H1689     1.0  0.64258  0.60645  0.92972  1.0000
  H   H1690     1.0  0.63801  0.63101  0.90657  1.0000
  H   H1691     1.0  0.62517  0.62225  0.86462  1.0000
  H   H1692     1.0  0.63622  0.59397  0.84954  1.0000
  H   H1693     1.0  0.67047  0.62683  0.86716  1.0000
  H   H1694     1.0  0.68085  0.62722  0.90046  1.0000
  H   H1695     1.0  0.69946  0.61097  0.87687  1.0000
  H   H1696     1.0  0.63318  0.54718  0.86241  1.0000
  H   H1697     1.0  0.65532  0.53787  0.88747  1.0000
  H   H1698     1.0  0.62311  0.52638  0.88797  1.0000
  H   H1699     1.0  0.60310  0.62795  0.93808  1.0000
  S   S287      1.0  0.57489  0.68975  0.96651  1.0000
  C   C994      1.0  0.86947  0.50472  0.83238  1.0000
  H   H1700     1.0  0.59573  0.57164  0.85644  1.0000
  H   H1701     1.0  0.91393  0.49976  0.75315  1.0000
  H   H1702     1.0  0.79811  0.75104  0.98677  1.0000
  H   H1703     1.0  0.75394  0.74128  0.97228  1.0000
  C   C995      1.0  0.89115  0.49487  0.81462  1.0000
  C   C996      1.0  0.59771  0.97330  0.74937  1.0000
  H   H1704     1.0  0.66870  0.94517  0.79532  1.0000
  C   C997      1.0  0.90401  0.53500  0.79428  1.0000
  C   C998      1.0  0.52476  0.69247  0.94801  1.0000
  C   C999      1.0  0.80227  0.99012  0.78147  1.0000
  H   H1705     1.0  0.52903  0.67402  0.93955  1.0000
  C   C1000     1.0  0.49997  0.70337  0.94459  1.0000
  H   H1706     1.0  0.59252  0.93175  0.75752  1.0000
  C   C1001     1.0  0.86779  0.50932  0.77663  1.0000
  H   H1707     1.0  0.66735  0.97918  0.79284  1.0000
  H   H1708     1.0  0.92094  0.53984  0.75512  1.0000
  H   H1709     1.0  0.50880  0.75838  0.97795  1.0000
  H   H1710     1.0  0.58711  0.97962  0.76688  1.0000
  H   H1711     1.0  0.82283  0.99100  0.77598  1.0000
  H   H1712     1.0  0.94904  0.50866  0.78577  1.0000
  H   H1713     1.0  0.51590  0.77367  0.75859  1.0000
  H   H1714     1.0  0.95646  0.89391  0.76386  1.0000
  H   H1715     1.0  0.62343  0.96250  0.79229  1.0000
  H   H1716     1.0  0.63170  0.93838  0.77034  1.0000
  C   C1002     1.0  0.49380  0.72724  0.95540  1.0000
  N   N72       1.0  0.89396  0.50838  0.78906  1.0000
  C   C1003     1.0  0.53786  0.72899  0.97298  1.0000
  H   H1717     1.0  0.92932  0.56362  0.77718  1.0000
  H   H1718     1.0  0.67650  0.95994  0.76535  1.0000
  H   H1719     1.0  0.85535  0.52394  0.78608  1.0000
  H   H1720     1.0  0.87135  0.52542  0.83674  1.0000
  H   H1721     1.0  0.85015  0.50076  0.82434  1.0000
  H   H1722     1.0  0.55228  0.73927  0.98368  1.0000
  C   C1004     1.0  0.86673  0.51486  0.74759  1.0000
  S   S288      1.0  0.69596  0.50863  0.84872  1.0000
  H   H1723     1.0  0.49868  0.79780  0.77573  1.0000
  H   H1724     1.0  0.98632  0.77181  0.74628  1.0000
  C   C1005     1.0  0.76015  0.73477  0.99098  1.0000
  H   H1725     1.0  0.98678  0.92402  0.74483  1.0000
  Fe  Fe144     1.0  0.70938  0.49999  0.88882  1.0000
  C   C1006     1.0  0.50501  0.79179  0.75626  1.0000
  H   H1726     1.0  0.79982  0.97804  0.79885  1.0000
  H   H1727     1.0  0.90920  0.49603  0.82594  1.0000
  H   H1728     1.0  0.79188  0.98020  0.76576  1.0000
  C   C1007     1.0  0.58788  0.94627  0.74271  1.0000
  C   C1008     1.0  0.95926  0.89343  0.74273  1.0000
