data_image0
_chemical_formula_structural       FeS2FeS2FeSFeS4H5C7H4C6H4C2H3CHC6H4CH8CH2C2HCH4CH7SH7CHSH2C3H3SHC2H3C2NC2H2FeH2CHC2H4CHCSCH4SH2NH10FeS2FeS2FeSFeS3FeS2NCH2FeSHSHCSH3FeSHC3HC2H4C7H4C5H3C7H4CHCH3C3NC8H8C2H2C2H2NCH2CH2CH3CH2NHCH4CH2CHCHC2HCHFeH2CSHSH2CHCHN2H3CH3CFeCHCH2CNH6CH11CH6CH2SH3CH2C2FeHCH2SH4C2HCHCH2CH2CH2FeHC4HFeS2FeS2FeSFeS3CH3SH2C6H4C4HCH4C2HCHCHC6H4CH6S2HCH5C2H3CH3FeHS2CFeCH2CH5C3SC2HC2H2NHCHCNH6CH2C2H4CH4CH4CHSCFeS2FeS2FeSFeS3FeSC4NFeSNS2H2CFeSFeSH2CHCH3CH2C7H4C2SH2CHCHC6H9CHCHCHCH3NC2H5CH2C2H5CH6CH3CHC2H2CH4CNH3C2H2CH12CFeH2CH3CHCH2SH3C2HCH3C2HNH2C3H2SHC3H5C2H2SCH6CHFeHCH5SH2C2HCS2CHSC2HNH6CHC4H7C3SCH3CSH2CHCHC2HNSHC5H3CHNCH4CH2CH6C2H2CH5CH3FeC3HCH10CHCH2CFeHSHC2H2C2H3S2H2SFeSFeCNHSH3FeSFeSHCHCH2CSH3C6H2CHC3H4CSH2CH2CSHCFeSH2CSCH3CSCFeC2HFeNH2C2HC2SCH2CSH3CHCSCH2CH9CNC5NHCH5SNH2CHSHFe2H4C2SH4SCH2CFeHC3H3CHFeHC3FeH2FeSCSH7SHCH5S2CSH2NC7H3C2HC2HC3SC2H2C3H9FeS2C2H7CFeH4CH3NH3SHFeS2C2H3C2HSC2HC2HCH3C2HC2H5NHSHC2FeSNCH4C3H2C2HFeH4CHCH3SH5C2H3CHC2H2CH3FeH7CHCH10CH2C2H3SH2CH2NH8SHCS2HC2FeCSHCHCH2C2HCHCHSC3HSFeSCHSC2H2C3FeC3H2NCH3CFeHC4HS2FeCS2NFeS2HCHCHSHCH3FeHCH2C6H4C3HC3H3FeHC2HSH6CHCH3FeHSH9C2H2SCHCHSH2SHFeSFeSC2FeS2H4C2H2FeCH2C6H5CSCHC2HCH2CHCHFeNHCHC2H3C2HSH4CNH2CH7CSC4H3NHCH3CHSH4CH2SC2HCFeH4CH3CH8CH2C3HFeH3SCH3CH4C2FeS2HFeCH6CHCHCH2C6H5C2SHCHCHS2C2H2CFeHSH4C2H4CHNH6CSC2HCH3CH7SCH2C2HNSNFeSHFeSFeS2HFeS2FeCH4CH5C6H4CH2SHC2HC4H3CHCHNCH6CHCH2C2HC4HS2H2CHCH2CHC2H3CH3NH3FeHSCHCH4CH6NH3CH3CH4CH2C3SHFeCFeH
_chemical_formula_sum              "Fe80 S160 H960 C560 N40"
_cell_length_a       63.1474
_cell_length_b       63.0604
_cell_length_c       28.9203
_cell_angle_alpha    88.5346
_cell_angle_beta     88.7868
_cell_angle_gamma    123.404

_space_group_name_H-M_alt    "P 1"
_space_group_IT_number       1

loop_
  _space_group_symop_operation_xyz
  'x, y, z'

loop_
  _atom_site_type_symbol
  _atom_site_label
  _atom_site_symmetry_multiplicity
  _atom_site_fract_x
  _atom_site_fract_y
  _atom_site_fract_z
  _atom_site_occupancy
  Fe  Fe1       1.0  0.15494  0.32856  0.26574  1.0000
  S   S1        1.0  0.18479  0.36315  0.22237  1.0000
  S   S2        1.0  0.16227  0.32682  0.34360  1.0000
  Fe  Fe2       1.0  0.12651  0.30137  0.17780  1.0000
  S   S3        1.0  0.15405  0.33417  0.12976  1.0000
  S   S4        1.0  0.09332  0.26777  0.14315  1.0000
  Fe  Fe3       1.0  0.18402  0.33598  0.17278  1.0000
  S   S5        1.0  0.21668  0.33721  0.13575  1.0000
  Fe  Fe4       1.0  0.15223  0.35848  0.18265  1.0000
  S   S6        1.0  0.15407  0.39419  0.15947  1.0000
  S   S7        1.0  0.15658  0.30146  0.21802  1.0000
  S   S8        1.0  0.12221  0.32567  0.22872  1.0000
  S   S9        1.0  0.10598  0.18819  0.03583  1.0000
  H   H1        1.0  0.01226  0.13440  0.06094  1.0000
  H   H2        1.0  0.00525  0.10718  0.09451  1.0000
  H   H3        1.0  0.99844  0.01351  0.03032  1.0000
  H   H4        1.0  0.11036  0.35812  0.29421  1.0000
  H   H5        1.0  0.14869  0.03849  0.04543  1.0000
  C   C1        1.0  0.01877  0.12849  0.17746  1.0000
  C   C2        1.0  0.12878  0.39207  0.13004  1.0000
  C   C3        1.0  0.13182  0.41425  0.11031  1.0000
  C   C4        1.0  0.11243  0.41296  0.08468  1.0000
  C   C5        1.0  0.08972  0.38949  0.07931  1.0000
  C   C6        1.0  0.08658  0.36742  0.09980  1.0000
  C   C7        1.0  0.10604  0.36865  0.12488  1.0000
  H   H6        1.0  0.14938  0.43245  0.11422  1.0000
  H   H7        1.0  0.11498  0.43008  0.06925  1.0000
  H   H8        1.0  0.06901  0.34921  0.09596  1.0000
  H   H9        1.0  0.10348  0.35145  0.13992  1.0000
  C   C8        1.0  0.24083  0.36521  0.10589  1.0000
  C   C9        1.0  0.24499  0.38891  0.11455  1.0000
  C   C10       1.0  0.26504  0.41095  0.09088  1.0000
  C   C11       1.0  0.28068  0.40934  0.05795  1.0000
  C   C12       1.0  0.27619  0.38556  0.04883  1.0000
  C   C13       1.0  0.25648  0.36362  0.07301  1.0000
  H   H10       1.0  0.23300  0.39029  0.13995  1.0000
  H   H11       1.0  0.04386  0.20382  0.16067  1.0000
  H   H12       1.0  0.12028  0.37237  0.23852  1.0000
  H   H13       1.0  0.25328  0.34529  0.06622  1.0000
  C   C14       1.0  0.15397  0.33108  0.40078  1.0000
  C   C15       1.0  0.13306  0.33266  0.41038  1.0000
  H   H14       1.0  0.16186  0.38293  0.01080  1.0000
  H   H15       1.0  0.27806  0.35439  0.16218  1.0000
  H   H16       1.0  0.12107  0.33087  0.38263  1.0000
  C   C16       1.0  0.07515  0.04677  0.99195  1.0000
  H   H17       1.0  0.08758  0.38113  0.23527  1.0000
  C   C17       1.0  0.09796  0.24700  0.11105  1.0000
  C   C18       1.0  0.07913  0.23023  0.08131  1.0000
  C   C19       1.0  0.08164  0.21260  0.05699  1.0000
  C   C20       1.0  0.10286  0.21131  0.06280  1.0000
  C   C21       1.0  0.12185  0.22836  0.09192  1.0000
  C   C22       1.0  0.11954  0.24627  0.11564  1.0000
  H   H18       1.0  0.06240  0.23073  0.07749  1.0000
  H   H19       1.0  0.06699  0.19977  0.03438  1.0000
  H   H20       1.0  0.13837  0.22757  0.09656  1.0000
  H   H21       1.0  0.13420  0.25908  0.13838  1.0000
  C   C23       1.0  0.21299  0.37751  0.00926  1.0000
  H   H22       1.0  0.15528  0.46108  0.24656  1.0000
  H   H23       1.0  0.00235  0.12806  0.19350  1.0000
  H   H24       1.0  0.16471  0.40178  0.25589  1.0000
  H   H25       1.0  0.15788  0.38461  0.35905  1.0000
  H   H26       1.0  0.06773  0.16440  0.12898  1.0000
  H   H27       1.0  0.15733  0.45260  0.30501  1.0000
  H   H28       1.0  0.07336  0.34968  0.25943  1.0000
  H   H29       1.0  0.16449  0.40612  0.04786  1.0000
  C   C24       1.0  0.05523  0.12654  0.11171  1.0000
  H   H30       1.0  0.11921  0.38600  0.40930  1.0000
  H   H31       1.0  0.14286  0.41878  0.35694  1.0000
  C   C25       1.0  0.12740  0.33612  0.45612  1.0000
  C   C26       1.0  0.04460  0.18670  0.16575  1.0000
  H   H32       1.0  0.11438  0.26102  0.99498  1.0000
  C   C27       1.0  0.15759  0.44780  0.26850  1.0000
  H   H33       1.0  0.14610  0.36277  0.31177  1.0000
  H   H34       1.0  0.08116  0.34655  0.00640  1.0000
  H   H35       1.0  0.06472  0.19330  0.15941  1.0000
  H   H36       1.0  0.13386  0.37881  0.03985  1.0000
  C   C28       1.0  0.00660  0.12546  0.09668  1.0000
  H   H37       1.0  0.08392  0.25631  0.99659  1.0000
  H   H38       1.0  0.18493  0.33125  0.43121  1.0000
  H   H39       1.0  0.26837  0.42930  0.09806  1.0000
  H   H40       1.0  0.12773  0.26634  0.44997  1.0000
  H   H41       1.0  0.98446  0.97977  0.02421  1.0000
  H   H42       1.0  0.17579  0.03963  0.01933  1.0000
  H   H43       1.0  0.07763  0.04782  0.02892  1.0000
  S   S10       1.0  0.04003  0.43239  0.01978  1.0000
  H   H44       1.0  0.11985  0.00594  0.99151  1.0000
  H   H45       1.0  0.96651  0.10321  0.08224  1.0000
  H   H46       1.0  0.05427  0.11894  0.14715  1.0000
  H   H47       1.0  0.11277  0.41002  0.33709  1.0000
  H   H48       1.0  0.17897  0.38591  0.31592  1.0000
  H   H49       1.0  0.03071  0.17581  0.09710  1.0000
  H   H50       1.0  0.97717  0.13422  0.09955  1.0000
  C   C29       1.0  0.15493  0.02783  0.02578  1.0000
  H   H51       1.0  0.15049  0.01134  0.04874  1.0000
  S   S11       1.0  0.06482  0.38638  0.04684  1.0000
  H   H52       1.0  0.11518  0.36465  0.36654  1.0000
  H   H53       1.0  0.03861  0.18022  0.20241  1.0000
  C   C30       1.0  0.15231  0.39243  0.02170  1.0000
  C   C31       1.0  0.05145  0.14874  0.11134  1.0000
  C   C32       1.0  0.15985  0.38253  0.32155  1.0000
  H   H54       1.0  0.17642  0.45149  0.25830  1.0000
  H   H55       1.0  0.97182  0.10970  0.14198  1.0000
  H   H56       1.0  0.21226  0.36132  0.02706  1.0000
  S   S12       1.0  0.07288  0.00220  0.00122  1.0000
  H   H57       1.0  0.04236  0.12361  0.22561  1.0000
  C   C33       1.0  0.11514  0.29481  0.00491  1.0000
  C   C34       1.0  0.08722  0.37005  0.26613  1.0000
  H   H58       1.0  0.05825  0.15547  0.20213  1.0000
  H   H59       1.0  0.98979  0.46796  0.00271  1.0000
  H   H60       1.0  0.15743  0.06892  0.98856  1.0000
  C   C35       1.0  0.11221  0.37989  0.37402  1.0000
  C   C36       1.0  0.11352  0.37449  0.27286  1.0000
  N   N1        1.0  0.02614  0.14244  0.13077  1.0000
  C   C37       1.0  0.16876  0.33253  0.43798  1.0000
  C   C38       1.0  0.13597  0.42024  0.25925  1.0000
  H   H61       1.0  0.08008  0.37466  0.29704  1.0000
  H   H62       1.0  0.00735  0.16213  0.14330  1.0000
  Fe  Fe5       1.0  0.06296  0.41586  0.00300  1.0000
  H   H63       1.0  0.17350  0.42098  0.30485  1.0000
  H   H64       1.0  0.29214  0.38735  0.15090  1.0000
  C   C39       1.0  0.02635  0.16646  0.13238  1.0000
  H   H65       1.0  0.11825  0.42008  0.25964  1.0000
  C   C40       1.0  0.15844  0.40231  0.29191  1.0000
  C   C41       1.0  0.98058  0.99492  0.02515  1.0000
  H   H66       1.0  0.09152  0.37180  0.37675  1.0000
  H   H67       1.0  0.11121  0.33737  0.46287  1.0000
  H   H68       1.0  0.05453  0.15621  0.07480  1.0000
  H   H69       1.0  0.10268  0.30206  0.00234  1.0000
  C   C42       1.0  0.12584  0.40339  0.33980  1.0000
  H   H70       1.0  0.04155  0.11085  0.09019  1.0000
  C   C43       1.0  0.97913  0.11801  0.10652  1.0000
  S   S13       1.0  0.98703  0.08873  0.99998  1.0000
  C   C44       1.0  0.03950  0.13876  0.21392  1.0000
  H   H71       1.0  0.11646  0.29187  0.04257  1.0000
  H   H72       1.0  0.07449  0.13370  0.09660  1.0000
  H   H73       1.0  0.01179  0.10812  0.17341  1.0000
  H   H74       1.0  0.96787  0.99056  0.05607  1.0000
  S   S14       1.0  0.05855  0.11854  0.99109  1.0000
  H   H75       1.0  0.03322  0.14412  0.24514  1.0000
  H   H76       1.0  0.13893  0.41679  0.22285  1.0000
  N   N2        1.0  0.13320  0.39970  0.29207  1.0000
  H   H77       1.0  0.13462  0.30934  0.99143  1.0000
  H   H78       1.0  0.19783  0.37885  0.02615  1.0000
  H   H79       1.0  0.23127  0.39545  0.01549  1.0000
  H   H80       1.0  0.10941  0.34737  0.99660  1.0000
  H   H81       1.0  0.28797  0.38403  0.02339  1.0000
  H   H82       1.0  0.12408  0.04675  0.98837  1.0000
  H   H83       1.0  0.96170  0.00936  0.98667  1.0000
  H   H84       1.0  0.14112  0.41694  0.99800  1.0000
  H   H85       1.0  0.07970  0.08332  0.98495  1.0000
  H   H86       1.0  0.99932  0.04725  0.98481  1.0000
  Fe  Fe6       1.0  0.12813  0.34431  0.72614  1.0000
  S   S15       1.0  0.15507  0.37513  0.67386  1.0000
  S   S16       1.0  0.09901  0.34165  0.77819  1.0000
  Fe  Fe7       1.0  0.14924  0.31197  0.70431  1.0000
  S   S17       1.0  0.17824  0.34055  0.65103  1.0000
  S   S18       1.0  0.14885  0.27676  0.72315  1.0000
  Fe  Fe8       1.0  0.18457  0.36929  0.70296  1.0000
  S   S19       1.0  0.22208  0.40232  0.72734  1.0000
  Fe  Fe9       1.0  0.14643  0.34361  0.62566  1.0000
  S   S20       1.0  0.13408  0.34224  0.55029  1.0000
  S   S21       1.0  0.15809  0.34046  0.75772  1.0000
  S   S22       1.0  0.11703  0.31310  0.67669  1.0000
  Fe  Fe10      1.0  0.06930  0.11975  0.91635  1.0000
  S   S23       1.0  0.03467  0.11683  0.88944  1.0000
  S   S24       1.0  0.07808  0.09227  0.88605  1.0000
  N   N3        1.0  0.22806  0.37238  0.92930  1.0000
  C   C45       1.0  0.96533  0.38602  0.81449  1.0000
  H   H87       1.0  0.19248  0.08762  0.88976  1.0000
  H   H88       1.0  0.13905  0.37512  0.84844  1.0000
  Fe  Fe11      1.0  0.05739  0.15959  0.89013  1.0000
  S   S25       1.0  0.05406  0.18505  0.83791  1.0000
  H   H89       1.0  0.01745  0.36312  0.79657  1.0000
  S   S26       1.0  0.09318  0.16276  0.91012  1.0000
  H   H90       1.0  0.02296  0.38747  0.71039  1.0000
  C   C46       1.0  0.01184  0.43822  0.79992  1.0000
  S   S27       1.0  0.04948  0.45272  0.90957  1.0000
  H   H91       1.0  0.16506  0.38940  0.91588  1.0000
  H   H92       1.0  0.11100  0.35125  0.88236  1.0000
  H   H93       1.0  0.13166  0.23666  0.56193  1.0000
  Fe  Fe12      1.0  0.07129  0.43407  0.90181  1.0000
  S   S28       1.0  0.08883  0.43317  0.83290  1.0000
  H   H94       1.0  0.02816  0.06565  0.95093  1.0000
  C   C47       1.0  0.07422  0.06628  0.91908  1.0000
  C   C48       1.0  0.07003  0.04492  0.89636  1.0000
  C   C49       1.0  0.06822  0.02447  0.92137  1.0000
  H   H95       1.0  0.12787  0.40130  0.87233  1.0000
  C   C50       1.0  0.27832  0.39029  0.80216  1.0000
  C   C51       1.0  0.22111  0.36956  0.87933  1.0000
  H   H96       1.0  0.06839  0.04431  0.85918  1.0000
  H   H97       1.0  0.20557  0.38814  0.94274  1.0000
  H   H98       1.0  0.14572  0.30104  0.84018  1.0000
  H   H99       1.0  0.23610  0.37077  0.85666  1.0000
  C   C52       1.0  0.14420  0.37677  0.92367  1.0000
  C   C53       1.0  0.09162  0.40762  0.81826  1.0000
  C   C54       1.0  0.07757  0.38399  0.84235  1.0000
  C   C55       1.0  0.07970  0.36390  0.82898  1.0000
  C   C56       1.0  0.09642  0.36737  0.79228  1.0000
  C   C57       1.0  0.11084  0.39111  0.76870  1.0000
  C   C58       1.0  0.10820  0.41103  0.78133  1.0000
  H   H100      1.0  0.06491  0.38110  0.87108  1.0000
  H   H101      1.0  0.06845  0.34560  0.84741  1.0000
  H   H102      1.0  0.12380  0.39406  0.74038  1.0000
  H   H103      1.0  0.11919  0.42924  0.76249  1.0000
  C   C59       1.0  0.24304  0.39690  0.75668  1.0000
  C   C60       1.0  0.26154  0.41602  0.78384  1.0000
  C   C61       1.0  0.00811  0.04931  0.95004  1.0000
  C   C62       1.0  0.25601  0.42169  0.92335  1.0000
  C   C63       1.0  0.19542  0.34541  0.86810  1.0000
  H   H104      1.0  0.12344  0.24026  0.65106  1.0000
  H   H105      1.0  0.26240  0.43354  0.78704  1.0000
  H   H106      1.0  0.98638  0.39605  0.73431  1.0000
  C   C64       1.0  0.18095  0.06728  0.88103  1.0000
  C   C65       1.0  0.12229  0.25116  0.75430  1.0000
  C   C66       1.0  0.09878  0.24851  0.75541  1.0000
  C   C67       1.0  0.07794  0.22785  0.78049  1.0000
  C   C68       1.0  0.08052  0.21000  0.80530  1.0000
  C   C69       1.0  0.10408  0.21279  0.80442  1.0000
  C   C70       1.0  0.12481  0.23315  0.77856  1.0000
  H   H107      1.0  0.09663  0.26227  0.73687  1.0000
  H   H108      1.0  0.05975  0.22581  0.78109  1.0000
  H   H109      1.0  0.10626  0.19911  0.82325  1.0000
  H   H110      1.0  0.14293  0.23507  0.77773  1.0000
  C   C71       1.0  0.20817  0.37324  0.95725  1.0000
  H   H111      1.0  0.06981  0.27004  0.93036  1.0000
  C   C72       1.0  0.12646  0.02378  0.90698  1.0000
  H   H112      1.0  0.24457  0.42454  0.94890  1.0000
  H   H113      1.0  0.13741  0.34833  0.87411  1.0000
  H   H114      1.0  0.99680  0.44390  0.90211  1.0000
  C   C73       1.0  0.08702  0.28390  0.86186  1.0000
  C   C74       1.0  0.07632  0.06691  0.96713  1.0000
  C   C75       1.0  0.98568  0.97975  0.92843  1.0000
  N   N4        1.0  0.11374  0.25768  0.57013  1.0000
  C   C76       1.0  0.09003  0.25271  0.59512  1.0000
  C   C77       1.0  0.11407  0.23407  0.57713  1.0000
  C   C78       1.0  0.14236  0.33785  0.49323  1.0000
  C   C79       1.0  0.13665  0.28099  0.58913  1.0000
  C   C80       1.0  0.08328  0.27242  0.58533  1.0000
  C   C81       1.0  0.11140  0.22458  0.62806  1.0000
  C   C82       1.0  0.11164  0.26192  0.51924  1.0000
  C   C83       1.0  0.08988  0.24237  0.91571  1.0000
  H   H115      1.0  0.07314  0.23382  0.58664  1.0000
  H   H116      1.0  0.09158  0.25187  0.63339  1.0000
  H   H117      1.0  0.24485  0.32769  0.93525  1.0000
  H   H118      1.0  0.17758  0.30183  0.59616  1.0000
  H   H119      1.0  0.07770  0.26561  0.84444  1.0000
  H   H120      1.0  0.14025  0.29863  0.57136  1.0000
  H   H121      1.0  0.13327  0.28296  0.62625  1.0000
  H   H122      1.0  0.10003  0.29210  0.58681  1.0000
  C   C84       1.0  0.17262  0.04990  0.92543  1.0000
  C   C85       1.0  0.22914  0.35037  0.94761  1.0000
  H   H123      1.0  0.11719  0.21085  0.63051  1.0000
  H   H124      1.0  0.03228  0.38724  0.83940  1.0000
  C   C86       1.0  0.02232  0.40001  0.73592  1.0000
  C   C87       1.0  0.96296  0.06584  0.96531  1.0000
  H   H125      1.0  0.16917  0.42261  0.96960  1.0000
  H   H126      1.0  0.02996  0.41933  0.82101  1.0000
  N   N5        1.0  0.14558  0.03754  0.94360  1.0000
  C   C88       1.0  0.13201  0.36213  0.87977  1.0000
  H   H127      1.0  0.06519  0.00826  0.90340  1.0000
  H   H128      1.0  0.09139  0.21444  0.64150  1.0000
  C   C89       1.0  0.24209  0.37434  0.75263  1.0000
  H   H129      1.0  0.09837  0.21804  0.55845  1.0000
  H   H130      1.0  0.22793  0.35951  0.73168  1.0000
  C   C90       1.0  0.01499  0.36890  0.83111  1.0000
  H   H131      1.0  0.99919  0.05469  0.92377  1.0000
  H   H132      1.0  0.19683  0.33988  0.83249  1.0000
  H   H133      1.0  0.07063  0.23099  0.93325  1.0000
  C   C91       1.0  0.01054  0.41527  0.82352  1.0000
  H   H134      1.0  0.10095  0.38687  0.97699  1.0000
  H   H135      1.0  0.14305  0.44303  0.94204  1.0000
  N   N6        1.0  0.99086  0.38959  0.80611  1.0000
  H   H136      1.0  0.09498  0.37231  0.92327  1.0000
  C   C92       1.0  0.99460  0.38735  0.75515  1.0000
  H   H137      1.0  0.96412  0.01876  0.90584  1.0000
  H   H138      1.0  0.18608  0.06175  0.95218  1.0000
  H   H139      1.0  0.03651  0.40362  0.76164  1.0000
  H   H140      1.0  0.14944  0.27597  0.85731  1.0000
  C   C93       1.0  0.25988  0.37119  0.77485  1.0000
  H   H141      1.0  0.01263  0.43801  0.76168  1.0000
  H   H142      1.0  0.27605  0.43768  0.92700  1.0000
  C   C94       1.0  0.99480  0.97882  0.87909  1.0000
  H   H143      1.0  0.14190  0.36249  0.94985  1.0000
  C   C95       1.0  0.27892  0.41262  0.80692  1.0000
  H   H144      1.0  0.25921  0.35380  0.77108  1.0000
  C   C96       1.0  0.97679  0.43470  0.91066  1.0000
  C   C97       1.0  0.25405  0.39646  0.93279  1.0000
  H   H145      1.0  0.11442  0.99605  0.85378  1.0000
  C   C98       1.0  0.10622  0.37617  0.95471  1.0000
  H   H146      1.0  0.12226  0.06503  0.91210  1.0000
  Fe  Fe13      1.0  0.02127  0.41765  0.95266  1.0000
  H   H147      1.0  0.07474  0.26989  0.55109  1.0000
  H   H148      1.0  0.06897  0.26987  0.61186  1.0000
  C   C99       1.0  0.08944  0.28124  0.91435  1.0000
  S   S29       1.0  0.04136  0.39802  0.93925  1.0000
  H   H149      1.0  0.18930  0.35508  0.95516  1.0000
  S   S30       1.0  0.09423  0.45153  0.96478  1.0000
  H   H150      1.0  0.22026  0.38582  0.86630  1.0000
  H   H151      1.0  0.02934  0.45604  0.81022  1.0000
  C   C100      1.0  0.96714  0.00336  0.89863  1.0000
  H   H152      1.0  0.15912  0.42253  0.89077  1.0000
  C   C101      1.0  0.13930  0.07502  0.93310  1.0000
  H   H153      1.0  0.14492  0.00416  0.96782  1.0000
  N   N7        1.0  0.13427  0.39214  0.94150  1.0000
  N   N8        1.0  0.98190  0.00103  0.93639  1.0000
  H   H154      1.0  0.26453  0.35940  0.91142  1.0000
  H   H155      1.0  0.00694  0.41564  0.86119  1.0000
  H   H156      1.0  0.97959  0.08701  0.90059  1.0000
  C   C102      1.0  0.10318  0.22839  0.92592  1.0000
  H   H157      1.0  0.26797  0.39666  0.90818  1.0000
  H   H158      1.0  0.25096  0.42350  0.88767  1.0000
  H   H159      1.0  0.16176  0.26913  0.61313  1.0000
  C   C103      1.0  0.13134  0.42994  0.91493  1.0000
  Fe  Fe14      1.0  0.07897  0.16118  0.98313  1.0000
  C   C104      1.0  0.16194  0.28249  0.58717  1.0000
  H   H160      1.0  0.07484  0.29137  0.85647  1.0000
  C   C105      1.0  0.24450  0.34326  0.91719  1.0000
  H   H161      1.0  0.10443  0.22559  0.96343  1.0000
  H   H162      1.0  0.15093  0.28405  0.49073  1.0000
  C   C106      1.0  0.07136  0.02560  0.96919  1.0000
  N   N9        1.0  0.10388  0.26971  0.92939  1.0000
  H   H163      1.0  0.23582  0.33609  0.88343  1.0000
  H   H164      1.0  0.99563  0.43933  0.81161  1.0000
  H   H165      1.0  0.16710  0.27916  0.55269  1.0000
  H   H166      1.0  0.13673  0.08785  0.95469  1.0000
  H   H167      1.0  0.09169  0.20912  0.91211  1.0000
  H   H168      1.0  0.20984  0.33293  0.95444  1.0000
  C   C107      1.0  0.00771  0.02556  0.93688  1.0000
  H   H169      1.0  0.11144  0.27932  0.51296  1.0000
  H   H170      1.0  0.97535  0.34996  0.82512  1.0000
  H   H171      1.0  0.08497  0.33448  0.95464  1.0000
  H   H172      1.0  0.02032  0.02372  0.96061  1.0000
  H   H173      1.0  0.10685  0.01354  0.92266  1.0000
  H   H174      1.0  0.18998  0.32870  0.89092  1.0000
  H   H175      1.0  0.14305  0.28124  0.93212  1.0000
  H   H176      1.0  0.13459  0.44207  0.88351  1.0000
  H   H177      1.0  0.18003  0.34894  0.86978  1.0000
  H   H178      1.0  0.12226  0.23788  0.90865  1.0000
  H   H179      1.0  0.13915  0.30601  0.91511  1.0000
  C   C108      1.0  0.13879  0.41110  0.90311  1.0000
  H   H180      1.0  0.09850  0.30086  0.92652  1.0000
  H   H181      1.0  0.11929  0.26910  0.84101  1.0000
  H   H182      1.0  0.01753  0.03031  0.90215  1.0000
  H   H183      1.0  0.08575  0.24029  0.87863  1.0000
  H   H184      1.0  0.29287  0.42739  0.82795  1.0000
  H   H185      1.0  0.97796  0.00977  0.86472  1.0000
  C   C109      1.0  0.13629  0.28246  0.85980  1.0000
  H   H186      1.0  0.98711  0.37060  0.87215  1.0000
  H   H187      1.0  0.01276  0.99682  0.86794  1.0000
  S   S31       1.0  0.97840  0.39528  0.94950  1.0000
  H   H188      1.0  0.17487  0.33728  0.51161  1.0000
  H   H189      1.0  0.10554  0.29804  0.84416  1.0000
  H   H190      1.0  0.97414  0.46346  0.87486  1.0000
  C   C110      1.0  0.10369  0.26908  0.98175  1.0000
  H   H191      1.0  0.01315  0.35449  0.85675  1.0000
  H   H192      1.0  0.13572  0.24971  0.48894  1.0000
  C   C111      1.0  0.96408  0.06958  0.91721  1.0000
  C   C112      1.0  0.09552  0.34986  0.97922  1.0000
  Fe  Fe15      1.0  0.02492  0.11743  0.96395  1.0000
  H   H193      1.0  0.96397  0.40020  0.79340  1.0000
  C   C113      1.0  0.13110  0.28546  0.91104  1.0000
  H   H194      1.0  0.12685  0.03688  0.88033  1.0000
  H   H195      1.0  0.15647  0.08743  0.91072  1.0000
  S   S32       1.0  0.04429  0.15988  0.96305  1.0000
  H   H196      1.0  0.19301  0.06378  0.85820  1.0000
  H   H197      1.0  0.02878  0.41809  0.71628  1.0000
  H   H198      1.0  0.16531  0.06421  0.85964  1.0000
  H   H199      1.0  0.11089  0.41991  0.92508  1.0000
  C   C114      1.0  0.12891  0.00424  0.88059  1.0000
  C   C115      1.0  0.99084  0.36924  0.83479  1.0000
  H   H200      1.0  0.14771  0.01302  0.86237  1.0000
  C   C116      1.0  0.96396  0.44588  0.89565  1.0000
  H   H201      1.0  0.09331  0.24580  0.50677  1.0000
  C   C117      1.0  0.14165  0.05668  0.96555  1.0000
  H   H202      1.0  0.17708  0.03536  0.91920  1.0000
  H   H203      1.0  0.12506  0.98802  0.90344  1.0000
  C   C118      1.0  0.96350  0.41131  0.93544  1.0000
  H   H204      1.0  0.23779  0.35448  0.98203  1.0000
  H   H205      1.0  0.98390  0.36698  0.74633  1.0000
  C   C119      1.0  0.96716  0.99550  0.98167  1.0000
  H   H206      1.0  0.99990  0.98081  0.95211  1.0000
  H   H207      1.0  0.26170  0.39749  0.96746  1.0000
  Fe  Fe16      1.0  0.06945  0.46687  0.97596  1.0000
  H   H208      1.0  0.96278  0.38939  0.85124  1.0000
  C   C120      1.0  0.14952  0.40721  0.98176  1.0000
  C   C121      1.0  0.16306  0.33591  0.48377  1.0000
  C   C122      1.0  0.14040  0.01775  0.98084  1.0000
  C   C123      1.0  0.13291  0.26554  0.48619  1.0000
  H   H209      1.0  0.98005  0.97401  0.85364  1.0000
  Fe  Fe17      1.0  0.13661  0.83198  0.27720  1.0000
  S   S33       1.0  0.16829  0.86544  0.23375  1.0000
  S   S34       1.0  0.12271  0.82927  0.35307  1.0000
  Fe  Fe18      1.0  0.12009  0.79668  0.19449  1.0000
  S   S35       1.0  0.15033  0.82695  0.14633  1.0000
  S   S36       1.0  0.09054  0.75695  0.17201  1.0000
  Fe  Fe19      1.0  0.17595  0.83719  0.20569  1.0000
  S   S37       1.0  0.21447  0.84300  0.19403  1.0000
  Fe  Fe20      1.0  0.14015  0.85283  0.17689  1.0000
  S   S38       1.0  0.14033  0.87919  0.12104  1.0000
  S   S39       1.0  0.14629  0.80460  0.25252  1.0000
  S   S40       1.0  0.10786  0.82161  0.22167  1.0000
  C   C124      1.0  0.07782  0.54709  0.99736  1.0000
  H   H210      1.0  0.06154  0.78149  0.16951  1.0000
  H   H211      1.0  0.20063  0.75890  0.15676  1.0000
  H   H212      1.0  0.27317  0.91893  0.14860  1.0000
  S   S41       1.0  0.98541  0.59256  0.02403  1.0000
  H   H213      1.0  0.27702  0.94433  0.18389  1.0000
  H   H214      1.0  0.05855  0.81786  0.13583  1.0000
  C   C125      1.0  0.11484  0.88217  0.10731  1.0000
  C   C126      1.0  0.11695  0.89603  0.06664  1.0000
  C   C127      1.0  0.09662  0.89769  0.05287  1.0000
  C   C128      1.0  0.07390  0.88543  0.07966  1.0000
  C   C129      1.0  0.07193  0.87188  0.12072  1.0000
  C   C130      1.0  0.09236  0.87039  0.13469  1.0000
  H   H215      1.0  0.13438  0.90542  0.04556  1.0000
  H   H216      1.0  0.09841  0.90826  0.02137  1.0000
  H   H217      1.0  0.05450  0.86253  0.14185  1.0000
  H   H218      1.0  0.09069  0.86006  0.16649  1.0000
  C   C131      1.0  0.23170  0.86043  0.14282  1.0000
  C   C132      1.0  0.22269  0.87173  0.11422  1.0000
  C   C133      1.0  0.23672  0.88583  0.07390  1.0000
  C   C134      1.0  0.25987  0.88879  0.06175  1.0000
  H   H219      1.0  0.02660  0.76755  0.05456  1.0000
  C   C135      1.0  0.25482  0.86323  0.13062  1.0000
  H   H220      1.0  0.20509  0.86996  0.12349  1.0000
  H   H221      1.0  0.22972  0.89476  0.05228  1.0000
  H   H222      1.0  0.02773  0.53927  0.04266  1.0000
  H   H223      1.0  0.26188  0.85453  0.15265  1.0000
  C   C136      1.0  0.13633  0.83697  0.40886  1.0000
  C   C137      1.0  0.16237  0.84870  0.41494  1.0000
  H   H224      1.0  0.17578  0.78854  0.20037  1.0000
  C   C138      1.0  0.12027  0.83086  0.44853  1.0000
  H   H225      1.0  0.17506  0.85365  0.38502  1.0000
  C   C139      1.0  0.29016  0.95572  0.11016  1.0000
  H   H226      1.0  0.10012  0.82189  0.44443  1.0000
  C   C140      1.0  0.09478  0.74173  0.12554  1.0000
  C   C141      1.0  0.07639  0.71589  0.11969  1.0000
  C   C142      1.0  0.07997  0.70246  0.08565  1.0000
  C   C143      1.0  0.10221  0.71472  0.05760  1.0000
  C   C144      1.0  0.12016  0.74085  0.06210  1.0000
  C   C145      1.0  0.11625  0.75443  0.09539  1.0000
  H   H227      1.0  0.05956  0.70596  0.14248  1.0000
  H   H228      1.0  0.06602  0.68235  0.08252  1.0000
  H   H229      1.0  0.13738  0.75045  0.04046  1.0000
  H   H230      1.0  0.13020  0.77449  0.09875  1.0000
  C   C146      1.0  0.00192  0.53740  0.99080  1.0000
  H   H231      1.0  0.25289  0.92991  0.14297  1.0000
  H   H232      1.0  0.17178  0.74017  0.09578  1.0000
  H   H233      1.0  0.03524  0.78218  0.18965  1.0000
  H   H234      1.0  0.07438  0.82188  0.01071  1.0000
  H   H235      1.0  0.02595  0.80148  0.02250  1.0000
  H   H236      1.0  0.03426  0.82555  0.06468  1.0000
  S   S42       1.0  0.10931  0.69758  0.01992  1.0000
  S   S43       1.0  0.05814  0.62010  0.00334  1.0000
  H   H237      1.0  0.07994  0.54757  0.03441  1.0000
  C   C147      1.0  0.16684  0.77372  0.17426  1.0000
  H   H238      1.0  0.12015  0.73060  0.28287  1.0000
  H   H239      1.0  0.20165  0.79285  0.12871  1.0000
  H   H240      1.0  0.18141  0.80383  0.12099  1.0000
  H   H241      1.0  0.97177  0.91192  0.99042  1.0000
  H   H242      1.0  0.28586  0.97067  0.10845  1.0000
  C   C148      1.0  0.04380  0.77930  0.15845  1.0000
  C   C149      1.0  0.06558  0.82122  0.04492  1.0000
  H   H243      1.0  0.13015  0.76149  0.45505  1.0000
  H   H244      1.0  0.22944  0.77829  0.21774  1.0000
  H   H245      1.0  0.28317  0.94526  0.07776  1.0000
  C   C150      1.0  0.12616  0.73499  0.24560  1.0000
  H   H246      1.0  0.14497  0.70818  0.09876  1.0000
  H   H247      1.0  0.07594  0.58037  0.99366  1.0000
  H   H248      1.0  0.96834  0.48683  0.02708  1.0000
  Fe  Fe21      1.0  0.07754  0.66226  0.98639  1.0000
  H   H249      1.0  0.03283  0.73510  0.06190  1.0000
  S   S44       1.0  0.04724  0.88552  0.06187  1.0000
  S   S45       1.0  0.02712  0.92939  0.00319  1.0000
  C   C151      1.0  0.21075  0.77598  0.22235  1.0000
  Fe  Fe22      1.0  0.04972  0.91138  0.00252  1.0000
  C   C152      1.0  0.16035  0.72326  0.11929  1.0000
  H   H250      1.0  0.28668  0.87951  0.08090  1.0000
  H   H251      1.0  0.07897  0.83999  0.05954  1.0000
  C   C153      1.0  0.08853  0.80688  0.08766  1.0000
  H   H252      1.0  0.15527  0.79187  0.43103  1.0000
  H   H253      1.0  0.01062  0.55358  0.05849  1.0000
  H   H254      1.0  0.15561  0.72805  0.25582  1.0000
  H   H255      1.0  0.19227  0.86351  0.46381  1.0000
  H   H256      1.0  0.04569  0.83472  0.00633  1.0000
  C   C154      1.0  0.17209  0.85433  0.45981  1.0000
  C   C155      1.0  0.00915  0.53728  0.04126  1.0000
  C   C156      1.0  0.26888  0.87736  0.09008  1.0000
  S   S46       1.0  0.27705  0.90792  0.01196  1.0000
  C   C157      1.0  0.27284  0.93630  0.14916  1.0000
  C   C158      1.0  0.04727  0.77530  0.05158  1.0000
  H   H257      1.0  0.02910  0.79447  0.11284  1.0000
  C   C159      1.0  0.04832  0.79893  0.12015  1.0000
  C   C160      1.0  0.10640  0.81196  0.04557  1.0000
  H   H258      1.0  0.12337  0.75016  0.23433  1.0000
  H   H259      1.0  0.12291  0.81175  0.05738  1.0000
  N   N10       1.0  0.06229  0.79993  0.07627  1.0000
  H   H260      1.0  0.17224  0.71618  0.13015  1.0000
  C   C161      1.0  0.96485  0.49192  0.99244  1.0000
  H   H261      1.0  0.99080  0.54624  0.98905  1.0000
  C   C162      1.0  0.15426  0.74354  0.23990  1.0000
  N   N11       1.0  0.16549  0.75012  0.19093  1.0000
  H   H262      1.0  0.12841  0.78926  0.45784  1.0000
  H   H263      1.0  0.21382  0.79458  0.21219  1.0000
  H   H264      1.0  0.18980  0.73666  0.20433  1.0000
  H   H265      1.0  0.09821  0.82425  0.10840  1.0000
  H   H266      1.0  0.11410  0.83114  0.02930  1.0000
  H   H267      1.0  0.06529  0.75384  0.04415  1.0000
  C   C163      1.0  0.19147  0.75444  0.19199  1.0000
  H   H268      1.0  0.02324  0.48448  0.99267  1.0000
  H   H269      1.0  0.05531  0.75354  0.10337  1.0000
  C   C164      1.0  0.05079  0.75373  0.06681  1.0000
  C   C165      1.0  0.14103  0.78219  0.46034  1.0000
  H   H270      1.0  0.08806  0.79218  0.11015  1.0000
  H   H271      1.0  0.99464  0.52035  0.06236  1.0000
  H   H272      1.0  0.02997  0.75959  0.14823  1.0000
  H   H273      1.0  0.14752  0.76978  0.17089  1.0000
  C   C166      1.0  0.18143  0.78642  0.12791  1.0000
  H   H274      1.0  0.01121  0.49605  0.03432  1.0000
  H   H275      1.0  0.09698  0.79735  0.01941  1.0000
  H   H276      1.0  0.16497  0.76009  0.26226  1.0000
  H   H277      1.0  0.17218  0.77414  0.09861  1.0000
  C   C167      1.0  0.14825  0.72775  0.16174  1.0000
  H   H278      1.0  0.20525  0.77153  0.25973  1.0000
  H   H279      1.0  0.13909  0.70952  0.18280  1.0000
  H   H280      1.0  0.11309  0.71753  0.22704  1.0000
  H   H281      1.0  0.13221  0.72873  0.14962  1.0000
  C   C168      1.0  0.00761  0.48724  0.00040  1.0000
  H   H282      1.0  0.05249  0.77885  0.01383  1.0000
  S   S47       1.0  0.08113  0.50535  0.00320  1.0000
  C   C169      1.0  0.04123  0.82027  0.03435  1.0000
  Fe  Fe23      1.0  0.12412  0.84303  0.71731  1.0000
  S   S48       1.0  0.16141  0.87525  0.68545  1.0000
  S   S49       1.0  0.09237  0.84416  0.75366  1.0000
  Fe  Fe24      1.0  0.13882  0.80436  0.70758  1.0000
  S   S50       1.0  0.17733  0.83399  0.67630  1.0000
  S   S51       1.0  0.13205  0.76530  0.71912  1.0000
  Fe  Fe25      1.0  0.17895  0.85955  0.73040  1.0000
  S   S52       1.0  0.20693  0.88097  0.78638  1.0000
  Fe  Fe26      1.0  0.15653  0.84675  0.63280  1.0000
  S   S53       1.0  0.16957  0.85471  0.55541  1.0000
  S   S54       1.0  0.14181  0.82892  0.76451  1.0000
  S   S55       1.0  0.11782  0.81554  0.66183  1.0000
  Fe  Fe27      1.0  0.06307  0.61654  0.92734  1.0000
  S   S56       1.0  0.02632  0.61158  0.90727  1.0000
  C   C170      1.0  0.14502  0.72188  0.89135  1.0000
  C   C171      1.0  0.01169  0.91585  0.77607  1.0000
  C   C172      1.0  0.06514  0.93359  0.75383  1.0000
  C   C173      1.0  0.15587  0.78661  0.58989  1.0000
  N   N12       1.0  0.98910  0.51246  0.96711  1.0000
  Fe  Fe28      1.0  0.04865  0.65429  0.89904  1.0000
  S   S57       1.0  0.04185  0.67799  0.84900  1.0000
  N   N13       1.0  0.13930  0.77426  0.54940  1.0000
  S   S58       1.0  0.08580  0.65899  0.91164  1.0000
  S   S59       1.0  0.03814  0.89676  0.93098  1.0000
  H   H283      1.0  0.97706  0.89551  0.73516  1.0000
  H   H284      1.0  0.00606  0.88508  0.84619  1.0000
  C   C174      1.0  0.00448  0.53542  0.88600  1.0000
  Fe  Fe29      1.0  0.01908  0.91839  0.92955  1.0000
  S   S60       1.0  0.98265  0.90681  0.89401  1.0000
  Fe  Fe30      1.0  0.07367  0.93374  0.90744  1.0000
  S   S61       1.0  0.10308  0.93815  0.85420  1.0000
  H   H285      1.0  0.02009  0.55177  0.97193  1.0000
  H   H286      1.0  0.02685  0.52045  0.95467  1.0000
  C   C175      1.0  0.98211  0.51661  0.91965  1.0000
  H   H287      1.0  0.05342  0.89763  0.78583  1.0000
  C   C176      1.0  0.18079  0.78755  0.58955  1.0000
  H   H288      1.0  0.11353  0.73899  0.85654  1.0000
  H   H289      1.0  0.08480  0.93867  0.75872  1.0000
  H   H290      1.0  0.99275  0.64212  0.90094  1.0000
  C   C177      1.0  0.00708  0.50385  0.96091  1.0000
  H   H291      1.0  0.96808  0.66688  0.81517  1.0000
  H   H292      1.0  0.07160  0.54634  0.86452  1.0000
  C   C178      1.0  0.97237  0.65990  0.84697  1.0000
  C   C179      1.0  0.10083  0.91177  0.82862  1.0000
  C   C180      1.0  0.08109  0.88680  0.84114  1.0000
  C   C181      1.0  0.07884  0.86633  0.81795  1.0000
  C   C182      1.0  0.09674  0.87051  0.78305  1.0000
  C   C183      1.0  0.11707  0.89543  0.77176  1.0000
  C   C184      1.0  0.11893  0.91596  0.79415  1.0000
  H   H293      1.0  0.06727  0.88328  0.86810  1.0000
  H   H294      1.0  0.06313  0.84711  0.82706  1.0000
  H   H295      1.0  0.13094  0.89890  0.74485  1.0000
  H   H296      1.0  0.13432  0.93521  0.78426  1.0000
  C   C185      1.0  0.23795  0.88770  0.79213  1.0000
  C   C186      1.0  0.24986  0.89716  0.83404  1.0000
  S   S62       1.0  0.07124  0.58902  0.89533  1.0000
  H   H297      1.0  0.12375  0.79726  0.55577  1.0000
  H   H298      1.0  0.17217  0.75486  0.92595  1.0000
  C   C187      1.0  0.09767  0.76197  0.59398  1.0000
  H   H299      1.0  0.23988  0.89964  0.86196  1.0000
  C   C188      1.0  0.07315  0.54652  0.90170  1.0000
  H   H300      1.0  0.11853  0.73719  0.62120  1.0000
  C   C189      1.0  0.10705  0.74150  0.75592  1.0000
  C   C190      1.0  0.10676  0.71967  0.76845  1.0000
  C   C191      1.0  0.08714  0.70030  0.79776  1.0000
  C   C192      1.0  0.06738  0.70241  0.81391  1.0000
  C   C193      1.0  0.06757  0.72417  0.80109  1.0000
  C   C194      1.0  0.08752  0.74383  0.77269  1.0000
  H   H301      1.0  0.12179  0.71772  0.75551  1.0000
  H   H302      1.0  0.08705  0.68352  0.80710  1.0000
  H   H303      1.0  0.05226  0.72585  0.81324  1.0000
  H   H304      1.0  0.08752  0.76052  0.76304  1.0000
  H   H305      1.0  0.06123  0.92989  0.71675  1.0000
  H   H306      1.0  0.18826  0.79149  0.95921  1.0000
  H   H307      1.0  0.16774  0.81208  0.84768  1.0000
  H   H308      1.0  0.12825  0.71498  0.87009  1.0000
  H   H309      1.0  0.01690  0.85795  0.68925  1.0000
  C   C195      1.0  0.11697  0.77685  0.55332  1.0000
  H   H310      1.0  0.14577  0.77758  0.62342  1.0000
  C   C196      1.0  0.98361  0.90570  0.76776  1.0000
  H   H311      1.0  0.19294  0.81207  0.90960  1.0000
  C   C197      1.0  0.01371  0.88554  0.72731  1.0000
  H   H312      1.0  0.97310  0.56573  0.93674  1.0000
  C   C198      1.0  0.07750  0.52794  0.97281  1.0000
  H   H313      1.0  0.01798  0.90051  0.70038  1.0000
  H   H314      1.0  0.16376  0.80994  0.51003  1.0000
  H   H315      1.0  0.97829  0.62590  0.79622  1.0000
  N   N14       1.0  0.01890  0.89664  0.77460  1.0000
  C   C199      1.0  0.97210  0.64181  0.96094  1.0000
  C   C200      1.0  0.15157  0.74503  0.91978  1.0000
  H   H316      1.0  0.02284  0.93145  0.74931  1.0000
  H   H317      1.0  0.12933  0.91072  0.90884  1.0000
  H   H318      1.0  0.16120  0.80659  0.59168  1.0000
  H   H319      1.0  0.00282  0.49253  0.92954  1.0000
  H   H320      1.0  0.11585  0.89146  0.96082  1.0000
  C   C201      1.0  0.25117  0.88457  0.75636  1.0000
  H   H321      1.0  0.14225  0.77560  0.96493  1.0000
  H   H322      1.0  0.11326  0.76421  0.87960  1.0000
  C   C202      1.0  0.12509  0.89294  0.92673  1.0000
  C   C203      1.0  0.18534  0.89219  0.90539  1.0000
  H   H323      1.0  0.14583  0.84042  0.89302  1.0000
  H   H324      1.0  0.96522  0.65391  0.95018  1.0000
  H   H325      1.0  0.14432  0.87670  0.95763  1.0000
  H   H326      1.0  0.12015  0.83248  0.85687  1.0000
  H   H327      1.0  0.13289  0.87587  0.84436  1.0000
  C   C204      1.0  0.13271  0.84606  0.88282  1.0000
  H   H328      1.0  0.08349  0.76719  0.59462  1.0000
  H   H329      1.0  0.17791  0.87407  0.92574  1.0000
  H   H330      1.0  0.99696  0.53520  0.85153  1.0000
  H   H331      1.0  0.17131  0.80047  0.79449  1.0000
  H   H332      1.0  0.98915  0.65943  0.83796  1.0000
  H   H333      1.0  0.16169  0.91014  0.95577  1.0000
  C   C205      1.0  0.14945  0.89341  0.93458  1.0000
  H   H334      1.0  0.12019  0.84361  0.91270  1.0000
  H   H335      1.0  0.14251  0.73821  0.95509  1.0000
  H   H336      1.0  0.15854  0.87315  0.83032  1.0000
  C   C206      1.0  0.14716  0.87316  0.86023  1.0000
  H   H337      1.0  0.10642  0.76655  0.62811  1.0000
  C   C207      1.0  0.07486  0.52758  0.92486  1.0000
  C   C208      1.0  0.07348  0.56567  0.92625  1.0000
  H   H338      1.0  0.07477  0.51310  0.90548  1.0000
  H   H339      1.0  0.99315  0.87047  0.72496  1.0000
  C   C209      1.0  0.19278  0.92618  0.82452  1.0000
  H   H340      1.0  0.98246  0.86673  0.80604  1.0000
  H   H341      1.0  0.10549  0.77018  0.52203  1.0000
  H   H342      1.0  0.99093  0.65425  0.97608  1.0000
  H   H343      1.0  0.16135  0.72635  0.86814  1.0000
  C   C210      1.0  0.17341  0.91936  0.86488  1.0000
  N   N15       1.0  0.16385  0.89454  0.89134  1.0000
  H   H344      1.0  0.99760  0.62459  0.84072  1.0000
  H   H345      1.0  0.15736  0.91928  0.84953  1.0000
  H   H346      1.0  0.19527  0.89042  0.87503  1.0000
  C   C211      1.0  0.11814  0.75010  0.88800  1.0000
  C   C212      1.0  0.09917  0.73204  0.92699  1.0000
  H   H347      1.0  0.22379  0.91521  0.93007  1.0000
  H   H348      1.0  0.96968  0.52395  0.92200  1.0000
  C   C213      1.0  0.00305  0.87636  0.81194  1.0000
  H   H349      1.0  0.14014  0.70564  0.91543  1.0000
  H   H350      1.0  0.18170  0.78136  0.85784  1.0000
  H   H351      1.0  0.24226  0.87741  0.72383  1.0000
  H   H352      1.0  0.14011  0.78762  0.81849  1.0000
  H   H353      1.0  0.19512  0.80254  0.56449  1.0000
  H   H354      1.0  0.09947  0.71469  0.93148  1.0000
  H   H355      1.0  0.99576  0.84236  0.84827  1.0000
  H   H356      1.0  0.11390  0.73688  0.52316  1.0000
  H   H357      1.0  0.08696  0.74118  0.58945  1.0000
  H   H358      1.0  0.17123  0.78716  0.50074  1.0000
  H   H359      1.0  0.17792  0.76905  0.58188  1.0000
  H   H360      1.0  0.14580  0.74575  0.52716  1.0000
  C   C214      1.0  0.12393  0.73054  0.59099  1.0000
  Fe  Fe31      1.0  0.06254  0.96449  0.97287  1.0000
  H   H361      1.0  0.01855  0.53029  0.88090  1.0000
  H   H362      1.0  0.97740  0.67455  0.87278  1.0000
  C   C215      1.0  0.07556  0.56572  0.97433  1.0000
  H   H363      1.0  0.02724  0.86154  0.82429  1.0000
  H   H364      1.0  0.97080  0.89340  0.79726  1.0000
  H   H365      1.0  0.10257  0.74133  0.96047  1.0000
  C   C216      1.0  0.04651  0.91034  0.78598  1.0000
  H   H366      1.0  0.18323  0.81643  0.96480  1.0000
  C   C217      1.0  0.15253  0.78394  0.93088  1.0000
  H   H367      1.0  0.10749  0.71094  0.58553  1.0000
  H   H368      1.0  0.19809  0.94457  0.80759  1.0000
  S   S63       1.0  0.05382  0.95424  0.89906  1.0000
  H   H369      1.0  0.01417  0.55521  0.89733  1.0000
  H   H370      1.0  0.04923  0.91702  0.82201  1.0000
  H   H371      1.0  0.18895  0.79274  0.62431  1.0000
  C   C218      1.0  0.27473  0.90362  0.84023  1.0000
  C   C219      1.0  0.18092  0.80173  0.94116  1.0000
  H   H372      1.0  0.01638  0.92521  0.80996  1.0000
  C   C220      1.0  0.28827  0.90113  0.80426  1.0000
  H   H373      1.0  0.11728  0.83157  0.52329  1.0000
  H   H374      1.0  0.28349  0.91079  0.87280  1.0000
  H   H375      1.0  0.15508  0.75844  0.82787  1.0000
  C   C221      1.0  0.15603  0.84817  0.49948  1.0000
  C   C222      1.0  0.15498  0.78924  0.50625  1.0000
  H   H376      1.0  0.07960  0.72547  0.91724  1.0000
  N   N16       1.0  0.14592  0.76321  0.89786  1.0000
  H   H377      1.0  0.21058  0.92866  0.83636  1.0000
  H   H378      1.0  0.19940  0.90839  0.97318  1.0000
  C   C223      1.0  0.97968  0.61360  0.82238  1.0000
  C   C224      1.0  0.27632  0.89141  0.76236  1.0000
  C   C225      1.0  0.02898  0.87425  0.71130  1.0000
  H   H379      1.0  0.04561  0.88824  0.68856  1.0000
  H   H380      1.0  0.13970  0.72845  0.60022  1.0000
  S   S64       1.0  0.04126  0.65914  0.97286  1.0000
  H   H381      1.0  0.18468  0.91190  0.79748  1.0000
  C   C226      1.0  0.15984  0.79471  0.82761  1.0000
  C   C227      1.0  0.13067  0.74681  0.54528  1.0000
  C   C228      1.0  0.16132  0.77380  0.85287  1.0000
  H   H382      1.0  0.18188  0.93563  0.88812  1.0000
  H   H383      1.0  0.20914  0.93222  0.92721  1.0000
  H   H384      1.0  0.14602  0.79617  0.91822  1.0000
  H   H385      1.0  0.11099  0.87634  0.90734  1.0000
  H   H386      1.0  0.00063  0.84236  0.78747  1.0000
  C   C229      1.0  0.00732  0.85467  0.81761  1.0000
  C   C230      1.0  0.20529  0.91320  0.93589  1.0000
  H   H387      1.0  0.03529  0.86689  0.73914  1.0000
  H   H388      1.0  0.06489  0.95045  0.76292  1.0000
  S   S65       1.0  0.08604  0.94763  0.97898  1.0000
  C   C231      1.0  0.97473  0.62807  0.92006  1.0000
  H   H389      1.0  0.98152  0.92207  0.76501  1.0000
  H   H390      1.0  0.98086  0.59932  0.80281  1.0000
  H   H391      1.0  0.28660  0.88940  0.73432  1.0000
  H   H392      1.0  0.99851  0.96352  0.87864  1.0000
  H   H393      1.0  0.97087  0.49825  0.90218  1.0000
  H   H394      1.0  0.96805  0.96089  0.93727  1.0000
  C   C232      1.0  0.12997  0.83632  0.49345  1.0000
  H   H395      1.0  0.97815  0.61381  0.93507  1.0000
  Fe  Fe32      1.0  0.02236  0.61687  0.98224  1.0000
  H   H396      1.0  0.57404  0.24222  0.32099  1.0000
  C   C233      1.0  0.57482  0.25755  0.22681  1.0000
  H   H397      1.0  0.36017  0.00310  0.19993  1.0000
  H   H398      1.0  0.56210  0.25331  0.25751  1.0000
  H   H399      1.0  0.60364  0.42731  0.16878  1.0000
  H   H400      1.0  0.33689  0.36317  0.19529  1.0000
  H   H401      1.0  0.59899  0.23051  0.18329  1.0000
  S   S66       1.0  0.54562  0.38228  0.01933  1.0000
  H   H402      1.0  0.36115  0.45732  0.07864  1.0000
  H   H403      1.0  0.35330  0.39897  0.04567  1.0000
  C   C234      1.0  0.58870  0.21329  0.20642  1.0000
  C   C235      1.0  0.33931  0.41772  0.10323  1.0000
  H   H404      1.0  0.37465  0.45145  0.12676  1.0000
  C   C236      1.0  0.57654  0.45587  0.07285  1.0000
  S   S67       1.0  0.54684  0.18946  0.04112  1.0000
  S   S68       1.0  0.56752  0.09472  0.02411  1.0000
  C   C237      1.0  0.56595  0.05034  0.02637  1.0000
  H   H405      1.0  0.43501  0.40809  0.01037  1.0000
  S   S69       1.0  0.52752  0.12090  0.99750  1.0000
  C   C238      1.0  0.57380  0.43148  0.14431  1.0000
  C   C239      1.0  0.58388  0.21851  0.25627  1.0000
  H   H406      1.0  0.30423  0.37627  0.19528  1.0000
  N   N17       1.0  0.34096  0.39554  0.11797  1.0000
  H   H407      1.0  0.37786  0.44223  0.06946  1.0000
  H   H408      1.0  0.36729  0.37555  0.16481  1.0000
  H   H409      1.0  0.53152  0.43316  0.16163  1.0000
  H   H410      1.0  0.54941  0.34617  0.07520  1.0000
  H   H411      1.0  0.61057  0.28314  0.25688  1.0000
  H   H412      1.0  0.56643  0.46314  0.05399  1.0000
  C   C240      1.0  0.61059  0.38974  0.10201  1.0000
  H   H413      1.0  0.57031  0.20022  0.19022  1.0000
  C   C241      1.0  0.59490  0.40815  0.04837  1.0000
  C   C242      1.0  0.57128  0.38511  0.04878  1.0000
  C   C243      1.0  0.56766  0.36411  0.07469  1.0000
  C   C244      1.0  0.58734  0.36631  0.10085  1.0000
  H   H414      1.0  0.34857  0.35481  0.10360  1.0000
  H   H415      1.0  0.56952  0.46701  0.18748  1.0000
  H   H416      1.0  0.52606  0.39534  0.12275  1.0000
  H   H417      1.0  0.61554  0.45429  0.13049  1.0000
  H   H418      1.0  0.59922  0.20482  0.05044  1.0000
  H   H419      1.0  0.55839  0.04774  0.06148  1.0000
  H   H420      1.0  0.33611  0.99301  0.99871  1.0000
  C   C245      1.0  0.59213  0.25698  0.10221  1.0000
  C   C246      1.0  0.57097  0.23502  0.08456  1.0000
  C   C247      1.0  0.57342  0.21618  0.06523  1.0000
  S   S70       1.0  0.30558  0.43728  0.02870  1.0000
  C   C248      1.0  0.35574  0.39225  0.07998  1.0000
  H   H421      1.0  0.59014  0.27154  0.11635  1.0000
  H   H422      1.0  0.55268  0.23275  0.08529  1.0000
  H   H423      1.0  0.36614  0.01471  0.14109  1.0000
  C   C249      1.0  0.60132  0.44305  0.15877  1.0000
  S   S71       1.0  0.62303  0.32786  0.20113  1.0000
  H   H424      1.0  0.58416  0.35020  0.12156  1.0000
  H   H425      1.0  0.57677  0.27395  0.20720  1.0000
  C   C250      1.0  0.53891  0.43589  0.12511  1.0000
  H   H426      1.0  0.58486  0.20463  0.27909  1.0000
  C   C251      1.0  0.35594  0.38040  0.18628  1.0000
  H   H427      1.0  0.56949  0.41619  0.12031  1.0000
  C   C252      1.0  0.34879  0.36505  0.07185  1.0000
  C   C253      1.0  0.36492  0.44344  0.09414  1.0000
  H   H428      1.0  0.56372  0.21252  0.26067  1.0000
  N   N18       1.0  0.60189  0.24521  0.27142  1.0000
  S   S72       1.0  0.58817  0.16633  0.98445  1.0000
  H   H429      1.0  0.57105  0.43835  0.05457  1.0000
  C   C254      1.0  0.59395  0.24733  0.31978  1.0000
  C   C255      1.0  0.35456  0.40173  0.16275  1.0000
  C   C256      1.0  0.61585  0.26008  0.10087  1.0000
  C   C257      1.0  0.59710  0.21927  0.06454  1.0000
  C   C258      1.0  0.60138  0.26449  0.24026  1.0000
  H   H430      1.0  0.50330  0.40211  0.10592  1.0000
  H   H431      1.0  0.36310  0.36617  0.04698  1.0000
  H   H432      1.0  0.32871  0.42134  0.12953  1.0000
  C   C259      1.0  0.31420  0.37226  0.12344  1.0000
  H   H433      1.0  0.32910  0.00359  0.07852  1.0000
  N   N19       1.0  0.56750  0.44941  0.12304  1.0000
  C   C260      1.0  0.59533  0.23067  0.35806  1.0000
  H   H434      1.0  0.44010  0.98482  0.01502  1.0000
  H   H435      1.0  0.31397  0.35495  0.13267  1.0000
  H   H436      1.0  0.59800  0.42424  0.02796  1.0000
  H   H437      1.0  0.60563  0.45463  0.18967  1.0000
  C   C261      1.0  0.52385  0.40951  0.10388  1.0000
  H   H438      1.0  0.34572  0.40782  0.18834  1.0000
  H   H439      1.0  0.48134  0.01690  0.03643  1.0000
  C   C262      1.0  0.61429  0.41057  0.07541  1.0000
  H   H440      1.0  0.59985  0.20447  0.20655  1.0000
  H   H441      1.0  0.56159  0.42153  0.17615  1.0000
  H   H442      1.0  0.61290  0.26874  0.20760  1.0000
  H   H443      1.0  0.56697  0.01661  0.03077  1.0000
  H   H444      1.0  0.33013  0.35363  0.05561  1.0000
  H   H445      1.0  0.52912  0.41052  0.06683  1.0000
  C   C263      1.0  0.57067  0.03259  0.00896  1.0000
  C   C264      1.0  0.49186  0.00941  0.01962  1.0000
  H   H446      1.0  0.32864  0.41346  0.07095  1.0000
  H   H447      1.0  0.51226  0.02362  0.02570  1.0000
  C   C265      1.0  0.33146  0.98750  0.07377  1.0000
  H   H448      1.0  0.36578  0.38722  0.21930  1.0000
  H   H449      1.0  0.56578  0.24136  0.20353  1.0000
  H   H450      1.0  0.37655  0.40434  0.08524  1.0000
  H   H451      1.0  0.37458  0.41819  0.15740  1.0000
  H   H452      1.0  0.61057  0.26526  0.00549  1.0000
  C   C266      1.0  0.61814  0.24104  0.08238  1.0000
  H   H453      1.0  0.43208  0.05273  0.00808  1.0000
  H   H454      1.0  0.30475  0.36837  0.08978  1.0000
  H   H455      1.0  0.61484  0.46491  0.05469  1.0000
  Fe  Fe33      1.0  0.55152  0.16382  0.99369  1.0000
  C   C267      1.0  0.32278  0.97798  0.02486  1.0000
  C   C268      1.0  0.48380  0.98463  0.04765  1.0000
  C   C269      1.0  0.35617  0.99708  0.16365  1.0000
  H   H456      1.0  0.49775  0.98926  0.07482  1.0000
  C   C270      1.0  0.57172  0.07184  0.99926  1.0000
  H   H457      1.0  0.58127  0.21013  0.35370  1.0000
  H   H458      1.0  0.53299  0.44743  0.10674  1.0000
  H   H459      1.0  0.61875  0.36884  0.00729  1.0000
  H   H460      1.0  0.46530  0.97686  0.06658  1.0000
  H   H461      1.0  0.51644  0.05927  0.99309  1.0000
  H   H462      1.0  0.35232  0.99605  0.07247  1.0000
  H   H463      1.0  0.61459  0.23443  0.36047  1.0000
  H   H464      1.0  0.59053  0.23522  0.39201  1.0000
  H   H465      1.0  0.50078  0.46337  0.00248  1.0000
  H   H466      1.0  0.60544  0.26739  0.33065  1.0000
  C   C271      1.0  0.57785  0.47264  0.15140  1.0000
  H   H467      1.0  0.36438  0.98578  0.15666  1.0000
  C   C272      1.0  0.32721  0.98177  0.15760  1.0000
  H   H468      1.0  0.32114  0.99530  0.16024  1.0000
  H   H469      1.0  0.52025  0.98842  0.98697  1.0000
  C   C273      1.0  0.29658  0.37309  0.16021  1.0000
  Fe  Fe34      1.0  0.32808  0.41361  0.87989  1.0000
  H   H470      1.0  0.48918  0.11141  0.68248  1.0000
  S   S73       1.0  0.37066  0.43453  0.87089  1.0000
  H   H471      1.0  0.48981  0.12924  0.78975  1.0000
  C   C274      1.0  0.42618  0.02805  0.90242  1.0000
  C   C275      1.0  0.44872  0.04844  0.88051  1.0000
  H   H472      1.0  0.41330  0.01143  0.88344  1.0000
  H   H473      1.0  0.45317  0.04736  0.84467  1.0000
  C   C276      1.0  0.44251  0.41855  0.87701  1.0000
  C   C277      1.0  0.42295  0.41860  0.90116  1.0000
  H   H474      1.0  0.44441  0.42120  0.83968  1.0000
  H   H475      1.0  0.40987  0.42119  0.88239  1.0000
  H   H476      1.0  0.58528  0.39919  0.89814  1.0000
  S   S74       1.0  0.52827  0.43188  0.97619  1.0000
  S   S75       1.0  0.56126  0.12424  0.90504  1.0000
  H   H477      1.0  0.53988  0.17966  0.66278  1.0000
  H   H478      1.0  0.50809  0.46958  0.88363  1.0000
  S   S76       1.0  0.54583  0.16593  0.91739  1.0000
  Fe  Fe35      1.0  0.52574  0.12328  0.92036  1.0000
  S   S77       1.0  0.49328  0.09579  0.87618  1.0000
  Fe  Fe36      1.0  0.58152  0.16678  0.90834  1.0000
  C   C278      1.0  0.61226  0.21654  0.81955  1.0000
  N   N20       1.0  0.60873  0.26259  0.93077  1.0000
  H   H479      1.0  0.58749  0.15692  0.75554  1.0000
  S   S78       1.0  0.60586  0.26172  0.70102  1.0000
  H   H480      1.0  0.56118  0.16440  0.81078  1.0000
  H   H481      1.0  0.34357  0.38721  0.74085  1.0000
  H   H482      1.0  0.32610  0.43980  0.61891  1.0000
  Fe  Fe37      1.0  0.52069  0.42525  0.90095  1.0000
  S   S79       1.0  0.48395  0.41530  0.86887  1.0000
  Fe  Fe38      1.0  0.57472  0.43991  0.87655  1.0000
  S   S80       1.0  0.60545  0.44466  0.82634  1.0000
  H   H483      1.0  0.48155  0.02794  0.91408  1.0000
  C   C279      1.0  0.61002  0.24791  0.75093  1.0000
  H   H484      1.0  0.59643  0.06148  0.90335  1.0000
  C   C280      1.0  0.56147  0.17375  0.71561  1.0000
  H   H485      1.0  0.29559  0.43296  0.63633  1.0000
  H   H486      1.0  0.46989  0.40858  0.96763  1.0000
  C   C281      1.0  0.34774  0.45108  0.76065  1.0000
  S   S81       1.0  0.53843  0.40260  0.89533  1.0000
  H   H487      1.0  0.33563  0.43562  0.78717  1.0000
  H   H488      1.0  0.32279  0.46463  0.77500  1.0000
  H   H489      1.0  0.47063  0.02960  0.97012  1.0000
  C   C282      1.0  0.46540  0.07024  0.90469  1.0000
  C   C283      1.0  0.60088  0.41929  0.79325  1.0000
  C   C284      1.0  0.58190  0.03662  0.96466  1.0000
  C   C285      1.0  0.59505  0.37884  0.74213  1.0000
  C   C286      1.0  0.57394  0.37703  0.76373  1.0000
  C   C287      1.0  0.57684  0.39706  0.78946  1.0000
  H   H490      1.0  0.46079  0.98225  0.91862  1.0000
  H   H491      1.0  0.56040  0.39540  0.80580  1.0000
  C   C288      1.0  0.57024  0.14102  0.77428  1.0000
  H   H492      1.0  0.57828  0.18740  0.73550  1.0000
  C   C289      1.0  0.41998  0.02964  0.94838  1.0000
  C   C290      1.0  0.59030  0.21673  0.81593  1.0000
  C   C291      1.0  0.58911  0.23214  0.78142  1.0000
  H   H493      1.0  0.53361  0.12298  0.70805  1.0000
  H   H494      1.0  0.57395  0.20441  0.83863  1.0000
  H   H495      1.0  0.57168  0.23131  0.77731  1.0000
  H   H496      1.0  0.36766  0.45806  0.76907  1.0000
  C   C292      1.0  0.32007  0.44149  0.69410  1.0000
  S   S82       1.0  0.32708  0.39968  0.95284  1.0000
  H   H497      1.0  0.53603  0.13200  0.81028  1.0000
  H   H498      1.0  0.56812  0.16443  0.69269  1.0000
  C   C293      1.0  0.55994  0.23229  0.94478  1.0000
  H   H499      1.0  0.57694  0.13690  0.80634  1.0000
  H   H500      1.0  0.56150  0.12368  0.75402  1.0000
  C   C294      1.0  0.51027  0.05621  0.95696  1.0000
  S   S83       1.0  0.30022  0.38557  0.82970  1.0000
  H   H501      1.0  0.55474  0.20430  0.70435  1.0000
  C   C295      1.0  0.42007  0.41472  0.94931  1.0000
  Fe  Fe39      1.0  0.56468  0.46776  0.95081  1.0000
  S   S84       1.0  0.61393  0.19576  0.85935  1.0000
  H   H502      1.0  0.58466  0.22374  0.90972  1.0000
  H   H503      1.0  0.50609  0.07069  0.94810  1.0000
  C   C296      1.0  0.61825  0.37342  0.86401  1.0000
  S   S85       1.0  0.32859  0.44789  0.90014  1.0000
  C   C297      1.0  0.46275  0.98336  0.95686  1.0000
  H   H504      1.0  0.60637  0.00605  0.77435  1.0000
  H   H505      1.0  0.59309  0.26011  0.86347  1.0000
  H   H506      1.0  0.51785  0.17131  0.74128  1.0000
  C   C298      1.0  0.55660  0.19064  0.68407  1.0000
  S   S86       1.0  0.59027  0.35309  0.71016  1.0000
  C   C299      1.0  0.35215  0.40806  0.73977  1.0000
  Fe  Fe40      1.0  0.32989  0.43521  0.97268  1.0000
  C   C300      1.0  0.45948  0.07147  0.95098  1.0000
  C   C301      1.0  0.45694  0.41148  0.94903  1.0000
  H   H507      1.0  0.36188  0.44610  0.64688  1.0000
  Fe  Fe41      1.0  0.36986  0.42395  0.94585  1.0000
  N   N21       1.0  0.62214  0.38666  0.90892  1.0000
  H   H508      1.0  0.55520  0.36004  0.76046  1.0000
  H   H509      1.0  0.59733  0.38254  0.96710  1.0000
  C   C302      1.0  0.50911  0.00895  0.94169  1.0000
  C   C303      1.0  0.59626  0.37511  0.93238  1.0000
  H   H510      1.0  0.58659  0.09185  0.93317  1.0000
  C   C304      1.0  0.50668  0.13070  0.68515  1.0000
  C   C305      1.0  0.43846  0.98020  0.97806  1.0000
  S   S87       1.0  0.39125  0.00538  0.97669  1.0000
  C   C306      1.0  0.57751  0.37882  0.90604  1.0000
  H   H511      1.0  0.57148  0.36813  0.87390  1.0000
  H   H512      1.0  0.61989  0.30557  0.83834  1.0000
  C   C307      1.0  0.58730  0.05792  0.93727  1.0000
  S   S88       1.0  0.58662  0.44914  0.95007  1.0000
  H   H513      1.0  0.49381  0.15720  0.81261  1.0000
  H   H514      1.0  0.61036  0.00230  0.87548  1.0000
  H   H515      1.0  0.54493  0.21167  0.94899  1.0000
  C   C308      1.0  0.58601  0.23562  0.93867  1.0000
  H   H516      1.0  0.62618  0.41821  0.86816  1.0000
  C   C309      1.0  0.58183  0.07523  0.95415  1.0000
  S   S89       1.0  0.39530  0.41396  0.98082  1.0000
  C   C310      1.0  0.62202  0.42120  0.77137  1.0000
  H   H517      1.0  0.58141  0.02353  0.79008  1.0000
  H   H518      1.0  0.55999  0.37116  0.92820  1.0000
  C   C311      1.0  0.61653  0.02476  0.79087  1.0000
  H   H519      1.0  0.60748  0.37770  0.83985  1.0000
  H   H520      1.0  0.50935  0.11406  0.74943  1.0000
  H   H521      1.0  0.51114  0.14523  0.83629  1.0000
  H   H522      1.0  0.49967  0.14304  0.69156  1.0000
  H   H523      1.0  0.50668  0.00967  0.90372  1.0000
  H   H524      1.0  0.47646  0.46188  0.93726  1.0000
  H   H525      1.0  0.58791  0.22637  0.97004  1.0000
  H   H526      1.0  0.53936  0.18313  0.78582  1.0000
  H   H527      1.0  0.51752  0.13645  0.65138  1.0000
  C   C312      1.0  0.45963  0.41507  0.90077  1.0000
  N   N22       1.0  0.53989  0.15430  0.74811  1.0000
  C   C313      1.0  0.55115  0.14813  0.78778  1.0000
  C   C314      1.0  0.52592  0.16533  0.76828  1.0000
  C   C315      1.0  0.52251  0.12991  0.72422  1.0000
  C   C316      1.0  0.50397  0.14794  0.80355  1.0000
  C   C317      1.0  0.33401  0.41353  0.71524  1.0000
  N   N23       1.0  0.34202  0.44097  0.71239  1.0000
  H   H528      1.0  0.37083  0.41712  0.72100  1.0000
  C   C318      1.0  0.36537  0.45546  0.68051  1.0000
  H   H529      1.0  0.52612  0.06026  0.93295  1.0000
  H   H530      1.0  0.31502  0.40135  0.73325  1.0000
  H   H531      1.0  0.43342  0.99205  0.95841  1.0000
  H   H532      1.0  0.32442  0.46110  0.69136  1.0000
  H   H533      1.0  0.60353  0.04605  0.82861  1.0000
  S   S90       1.0  0.61612  0.32072  0.63249  1.0000
  N   N24       1.0  0.48741  0.00735  0.96834  1.0000
  H   H534      1.0  0.58703  0.35427  0.93903  1.0000
  H   H535      1.0  0.52747  0.02675  0.94877  1.0000
  C   C319      1.0  0.61166  0.27649  0.97426  1.0000
  H   H536      1.0  0.59097  0.28078  0.90105  1.0000
  S   S91       1.0  0.59316  0.01800  0.94537  1.0000
  H   H537      1.0  0.60649  0.35236  0.87015  1.0000
  Fe  Fe42      1.0  0.62159  0.34770  0.68774  1.0000
  Fe  Fe43      1.0  0.57101  0.97475  0.94854  1.0000
  H   H538      1.0  0.38137  0.45523  0.69522  1.0000
  H   H539      1.0  0.30335  0.43088  0.71884  1.0000
  H   H540      1.0  0.35487  0.41366  0.77624  1.0000
  H   H541      1.0  0.33180  0.40589  0.68016  1.0000
  C   C320      1.0  0.31083  0.43018  0.64639  1.0000
  C   C321      1.0  0.60358  0.27444  0.89008  1.0000
  S   S92       1.0  0.37253  0.45846  0.97220  1.0000
  H   H542      1.0  0.57337  0.20243  0.65995  1.0000
  H   H543      1.0  0.62124  0.42295  0.96125  1.0000
  H   H544      1.0  0.58563  0.01246  0.84402  1.0000
  H   H545      1.0  0.52898  0.99051  0.92755  1.0000
  S   S93       1.0  0.55626  0.46207  0.87562  1.0000
  C   C322      1.0  0.61918  0.40097  0.74626  1.0000
  H   H546      1.0  0.62407  0.22884  0.96502  1.0000
  H   H547      1.0  0.55516  0.23960  0.91423  1.0000
  C   C323      1.0  0.59584  0.02689  0.81538  1.0000
  Fe  Fe44      1.0  0.54957  0.41276  0.96887  1.0000
  H   H548      1.0  0.61517  0.98628  0.83333  1.0000
  C   C324      1.0  0.43677  0.05135  0.97256  1.0000
  C   C325      1.0  0.51353  0.98761  0.95157  1.0000
  C   C326      1.0  0.48616  0.02950  0.95137  1.0000
  H   H549      1.0  0.55857  0.24096  0.97663  1.0000
  H   H550      1.0  0.30214  0.40936  0.64739  1.0000
  H   H551      1.0  0.47208  0.08822  0.96985  1.0000
  C   C327      1.0  0.43714  0.41118  0.97314  1.0000
  H   H552      1.0  0.59526  0.27828  0.98009  1.0000
  Fe  Fe45      1.0  0.37104  0.46785  0.89773  1.0000
  H   H553      1.0  0.62479  0.03920  0.76156  1.0000
  C   C328      1.0  0.62673  0.29718  0.86333  1.0000
  C   C329      1.0  0.62553  0.00398  0.85273  1.0000
  C   C330      1.0  0.34337  0.47227  0.77188  1.0000
  Fe  Fe46      1.0  0.56398  0.12350  0.98204  1.0000
  H   H554      1.0  0.60449  0.75877  0.47982  1.0000
  H   H555      1.0  0.55305  0.48615  0.13416  1.0000
  Fe  Fe47      1.0  0.57554  0.65973  0.99180  1.0000
  S   S94       1.0  0.58794  0.77062  0.13203  1.0000
  C   C331      1.0  0.61872  0.89538  0.10172  1.0000
  S   S95       1.0  0.35371  0.93704  0.00973  1.0000
  H   H556      1.0  0.59178  0.91401  0.27392  1.0000
  H   H557      1.0  0.58337  0.50984  0.15409  1.0000
  H   H558      1.0  0.56001  0.69476  0.04365  1.0000
  H   H559      1.0  0.56722  0.87103  0.28082  1.0000
  H   H560      1.0  0.57961  0.86461  0.23174  1.0000
  H   H561      1.0  0.48294  0.96950  0.02770  1.0000
  H   H562      1.0  0.59711  0.91388  0.35284  1.0000
  S   S96       1.0  0.55651  0.61713  0.99513  1.0000
  H   H563      1.0  0.55763  0.82744  0.28315  1.0000
  C   C332      1.0  0.32502  0.94829  0.10845  1.0000
  H   H564      1.0  0.55561  0.72808  0.07714  1.0000
  H   H565      1.0  0.32302  0.96094  0.01833  1.0000
  H   H566      1.0  0.57553  0.84382  0.33177  1.0000
  H   H567      1.0  0.62280  0.88500  0.21316  1.0000
  H   H568      1.0  0.61562  0.48875  0.08873  1.0000
  S   S97       1.0  0.61243  0.83151  0.20203  1.0000
  S   S98       1.0  0.60117  0.68634  0.04622  1.0000
  C   C333      1.0  0.59636  0.89608  0.35966  1.0000
  S   S99       1.0  0.55063  0.89578  0.04865  1.0000
  H   H569      1.0  0.59033  0.83863  0.28339  1.0000
  H   H570      1.0  0.57229  0.57928  0.98542  1.0000
  N   N25       1.0  0.60849  0.89180  0.27640  1.0000
  C   C334      1.0  0.57652  0.84340  0.29353  1.0000
  C   C335      1.0  0.61349  0.74694  0.11662  1.0000
  C   C336      1.0  0.59388  0.87444  0.11078  1.0000
  C   C337      1.0  0.57319  0.87495  0.09478  1.0000
  C   C338      1.0  0.57715  0.89617  0.06901  1.0000
  C   C339      1.0  0.60200  0.91712  0.06028  1.0000
  C   C340      1.0  0.32256  0.93254  0.15263  1.0000
  H   H571      1.0  0.59058  0.85784  0.12993  1.0000
  H   H572      1.0  0.55402  0.85869  0.10190  1.0000
  H   H573      1.0  0.60531  0.93370  0.04108  1.0000
  C   C341      1.0  0.61487  0.89442  0.32668  1.0000
  C   C342      1.0  0.60846  0.91806  0.20636  1.0000
  H   H574      1.0  0.61644  0.87855  0.33963  1.0000
  C   C343      1.0  0.59178  0.74712  0.10916  1.0000
  C   C344      1.0  0.60864  0.91472  0.25936  1.0000
  H   H575      1.0  0.43267  0.54363  0.01133  1.0000
  C   C345      1.0  0.59671  0.70906  0.07115  1.0000
  C   C346      1.0  0.57500  0.70926  0.06372  1.0000
  C   C347      1.0  0.57254  0.72817  0.08276  1.0000
  S   S100      1.0  0.53527  0.94499  0.98846  1.0000
  C   C348      1.0  0.61585  0.72790  0.09789  1.0000
  C   C349      1.0  0.57329  0.54551  0.98716  1.0000
  H   H576      1.0  0.57653  0.87951  0.35788  1.0000
  H   H577      1.0  0.56923  0.54199  0.02410  1.0000
  C   C350      1.0  0.60530  0.47494  0.06196  1.0000
  C   C351      1.0  0.58249  0.86833  0.26929  1.0000
  C   C352      1.0  0.57341  0.49295  0.13244  1.0000
  H   H578      1.0  0.61240  0.83572  0.01907  1.0000
  H   H579      1.0  0.59215  0.90107  0.19123  1.0000
  H   H580      1.0  0.60210  0.89637  0.39583  1.0000
  H   H581      1.0  0.58123  0.49964  0.09645  1.0000
  H   H582      1.0  0.59501  0.86278  0.01819  1.0000
  H   H583      1.0  0.42123  0.88924  0.01409  1.0000
  H   H584      1.0  0.51780  0.49712  0.00452  1.0000
  H   H585      1.0  0.34510  0.95776  0.09530  1.0000
  H   H586      1.0  0.55131  0.84955  0.99574  1.0000
  Fe  Fe48      1.0  0.55288  0.92176  0.98955  1.0000
  S   S101      1.0  0.48319  0.58641  0.99179  1.0000
  S   S102      1.0  0.57454  0.50259  0.99039  1.0000
  C   C353      1.0  0.62262  0.91682  0.07705  1.0000
  C   C354      1.0  0.59756  0.85573  0.98499  1.0000
  H   H587      1.0  0.59853  0.48252  0.15575  1.0000
  H   H588      1.0  0.62604  0.90457  0.99006  1.0000
  H   H589      1.0  0.45361  0.61547  0.00660  1.0000
  H   H590      1.0  0.60797  0.48680  0.03050  1.0000
  H   H591      1.0  0.61074  0.84014  0.41823  1.0000
  H   H592      1.0  0.60670  0.93431  0.19804  1.0000
  H   H593      1.0  0.61098  0.74901  0.99892  1.0000
  C   C355      1.0  0.47051  0.63492  0.99889  1.0000
  Fe  Fe49      1.0  0.62027  0.80543  0.16499  1.0000
  H   H594      1.0  0.47350  0.64589  0.03029  1.0000
  H   H595      1.0  0.31340  0.93461  0.08182  1.0000
  H   H596      1.0  0.31504  0.91269  0.14317  1.0000
  H   H597      1.0  0.62511  0.93265  0.27199  1.0000
  C   C356      1.0  0.61878  0.85092  0.99152  1.0000
  H   H598      1.0  0.48746  0.63412  0.99396  1.0000
  H   H599      1.0  0.30975  0.93123  0.18071  1.0000
  H   H600      1.0  0.30364  0.97396  0.01868  1.0000
  N   N26       1.0  0.31837  0.96779  0.11331  1.0000
  H   H601      1.0  0.31830  0.96889  0.18870  1.0000
  H   H602      1.0  0.62643  0.92260  0.18905  1.0000
  H   H603      1.0  0.34156  0.93970  0.16636  1.0000
  S   S103      1.0  0.38361  0.89836  0.98453  1.0000
  H   H604      1.0  0.47252  0.47709  0.98381  1.0000
  Fe  Fe50      1.0  0.33544  0.92375  0.88215  1.0000
  S   S104      1.0  0.32011  0.91032  0.81106  1.0000
  S   S105      1.0  0.37659  0.94466  0.90186  1.0000
  C   C357      1.0  0.44545  0.92703  0.89631  1.0000
  C   C358      1.0  0.42297  0.92230  0.91793  1.0000
  H   H605      1.0  0.45188  0.93710  0.86289  1.0000
  H   H606      1.0  0.41226  0.92877  0.90120  1.0000
  H   H607      1.0  0.39152  0.92785  0.76900  1.0000
  C   C359      1.0  0.46438  0.56631  0.90693  1.0000
  C   C360      1.0  0.45683  0.65004  0.87676  1.0000
  H   H608      1.0  0.41998  0.85978  0.85078  1.0000
  S   S106      1.0  0.39836  0.50630  0.86226  1.0000
  C   C361      1.0  0.41727  0.52730  0.94601  1.0000
  C   C362      1.0  0.38759  0.86323  0.85540  1.0000
  H   H609      1.0  0.36570  0.88625  0.88902  1.0000
  C   C363      1.0  0.35681  0.84946  0.79495  1.0000
  C   C364      1.0  0.41057  0.86645  0.82813  1.0000
  H   H610      1.0  0.44089  0.65133  0.88976  1.0000
  C   C365      1.0  0.37698  0.91039  0.78939  1.0000
  H   H611      1.0  0.37006  0.85010  0.76814  1.0000
  H   H612      1.0  0.42520  0.88669  0.81854  1.0000
  H   H613      1.0  0.40444  0.90849  0.82697  1.0000
  C   C366      1.0  0.45951  0.91854  0.91735  1.0000
  C   C367      1.0  0.42175  0.52891  0.89810  1.0000
  H   H614      1.0  0.39802  0.89379  0.77294  1.0000
  C   C368      1.0  0.38872  0.89551  0.80446  1.0000
  C   C369      1.0  0.33629  0.85009  0.76799  1.0000
  H   H615      1.0  0.45015  0.63959  0.84422  1.0000
  H   H616      1.0  0.34778  0.83007  0.81153  1.0000
  H   H617      1.0  0.34216  0.87694  0.84859  1.0000
  H   H618      1.0  0.36059  0.89972  0.76725  1.0000
  H   H619      1.0  0.37134  0.91689  0.81965  1.0000
  N   N27       1.0  0.37134  0.86984  0.82912  1.0000
  H   H620      1.0  0.43572  0.59975  0.88181  1.0000
  S   S107      1.0  0.32129  0.89272  0.93718  1.0000
  H   H621      1.0  0.34437  0.86115  0.73457  1.0000
  C   C370      1.0  0.44524  0.54868  0.87855  1.0000
  C   C371      1.0  0.35414  0.87111  0.86436  1.0000
  Fe  Fe51      1.0  0.36173  0.91523  0.96006  1.0000
  S   S108      1.0  0.32753  0.94810  0.92434  1.0000
  N   N28       1.0  0.46251  0.63583  0.91167  1.0000
  C   C372      1.0  0.44021  0.60853  0.91610  1.0000
  H   H622      1.0  0.39521  0.87484  0.88642  1.0000
  H   H623      1.0  0.44882  0.55008  0.84149  1.0000
  H   H624      1.0  0.40493  0.85502  0.79690  1.0000
  H   H625      1.0  0.37614  0.84316  0.86927  1.0000
  C   C373      1.0  0.47008  0.49560  0.89813  1.0000
  C   C374      1.0  0.45111  0.90564  0.96064  1.0000
  C   C375      1.0  0.41380  0.90817  0.96000  1.0000
  H   H626      1.0  0.44484  0.59688  0.93767  1.0000
  H   H627      1.0  0.32662  0.85756  0.78720  1.0000
  C   C376      1.0  0.44803  0.49289  0.92774  1.0000
  C   C377      1.0  0.33603  0.84627  0.89329  1.0000
  H   H628      1.0  0.32087  0.83035  0.76037  1.0000
  Fe  Fe52      1.0  0.36682  0.96567  0.95031  1.0000
  H   H629      1.0  0.47496  0.50983  0.86937  1.0000
  H   H630      1.0  0.34650  0.84143  0.91697  1.0000
  H   H631      1.0  0.32325  0.84892  0.91571  1.0000
  H   H632      1.0  0.32372  0.83014  0.87128  1.0000
  C   C378      1.0  0.46004  0.56437  0.95496  1.0000
  H   H633      1.0  0.47275  0.68570  0.83671  1.0000
  C   C379      1.0  0.46737  0.64858  0.95722  1.0000
  H   H634      1.0  0.39901  0.51263  0.96133  1.0000
  H   H635      1.0  0.47012  0.60753  0.84267  1.0000
  H   H636      1.0  0.48250  0.58121  0.89161  1.0000
  S   S109      1.0  0.48602  0.92249  0.88640  1.0000
  H   H637      1.0  0.43215  0.48801  0.90493  1.0000
  H   H638      1.0  0.45204  0.65154  0.96683  1.0000
  H   H639      1.0  0.41701  0.60999  0.97281  1.0000
  H   H640      1.0  0.46189  0.47719  0.88105  1.0000
  H   H641      1.0  0.40820  0.61360  0.91536  1.0000
  C   C380      1.0  0.41523  0.60403  0.93661  1.0000
  C   C381      1.0  0.48570  0.63619  0.89650  1.0000
  H   H642      1.0  0.40040  0.58330  0.93740  1.0000
  H   H643      1.0  0.48830  0.62363  0.91998  1.0000
  H   H644      1.0  0.46210  0.96603  0.96751  1.0000
  C   C382      1.0  0.48570  0.62760  0.84692  1.0000
  H   H645      1.0  0.46170  0.89888  0.97706  1.0000
  C   C383      1.0  0.43632  0.54501  0.97428  1.0000
  C   C384      1.0  0.48635  0.47975  0.95606  1.0000
  H   H646      1.0  0.44037  0.47722  0.95455  1.0000
  H   H647      1.0  0.45348  0.51086  0.94391  1.0000
  C   C385      1.0  0.47894  0.67767  0.86383  1.0000
  H   H648      1.0  0.48500  0.63999  0.82003  1.0000
  H   H649      1.0  0.48513  0.66795  0.95448  1.0000
  H   H650      1.0  0.48425  0.69006  0.89373  1.0000
  Fe  Fe53      1.0  0.31492  0.91782  0.98071  1.0000
  H   H651      1.0  0.42222  0.96015  0.97579  1.0000
  H   H652      1.0  0.38331  0.49497  0.70077  1.0000
  H   H653      1.0  0.35254  0.48851  0.74641  1.0000
  H   H654      1.0  0.57972  0.83682  0.98227  1.0000
  H   H655      1.0  0.39201  0.49148  0.64401  1.0000
  H   H656      1.0  0.36155  0.48636  0.65384  1.0000
  H   H657      1.0  0.48902  0.52134  0.98076  1.0000
  C   C386      1.0  0.42815  0.90018  0.98152  1.0000
  H   H658      1.0  0.35132  0.47986  0.80598  1.0000
  C   C387      1.0  0.37577  0.48362  0.66961  1.0000
  H   H659      1.0  0.55904  0.73050  0.79994  1.0000
  H   H660      1.0  0.62054  0.70735  0.55489  1.0000
  H   H661      1.0  0.53225  0.51523  0.90598  1.0000
  H   H662      1.0  0.51752  0.52243  0.86285  1.0000
  H   H663      1.0  0.61909  0.73658  0.50783  1.0000
  H   H664      1.0  0.49673  0.96846  0.94547  1.0000
  H   H665      1.0  0.51420  0.56451  0.94973  1.0000
  H   H666      1.0  0.60369  0.78584  0.49178  1.0000
  H   H667      1.0  0.61193  0.76683  0.95079  1.0000
  H   H668      1.0  0.57528  0.82417  0.91308  1.0000
  C   C388      1.0  0.50955  0.54953  0.92484  1.0000
  H   H669      1.0  0.62299  0.84428  0.95965  1.0000
  H   H670      1.0  0.49165  0.47619  0.84124  1.0000
  C   C389      1.0  0.60297  0.76933  0.50833  1.0000
  C   C390      1.0  0.62040  0.91417  0.78708  1.0000
  H   H671      1.0  0.49603  0.67900  0.84926  1.0000
  H   H672      1.0  0.52046  0.53012  0.96939  1.0000
  H   H673      1.0  0.58844  0.71024  0.96550  1.0000
  S   S110      1.0  0.54092  0.65757  0.96842  1.0000
  H   H674      1.0  0.49363  0.54680  0.90469  1.0000
  H   H675      1.0  0.61756  0.92649  0.92623  1.0000
  C   C391      1.0  0.61515  0.75170  0.96091  1.0000
  H   H676      1.0  0.57751  0.72710  0.93306  1.0000
  H   H677      1.0  0.62447  0.84279  0.49912  1.0000
  N   N29       1.0  0.49333  0.50200  0.92378  1.0000
  H   H678      1.0  0.62358  0.79199  0.56551  1.0000
  H   H679      1.0  0.50376  0.62898  0.83977  1.0000
  H   H680      1.0  0.58354  0.89257  0.97045  1.0000
  H   H681      1.0  0.62308  0.86630  0.89576  1.0000
  H   H682      1.0  0.50326  0.65544  0.89935  1.0000
  H   H683      1.0  0.58742  0.76307  0.60942  1.0000
  H   H684      1.0  0.53937  0.85985  0.95170  1.0000
  H   H685      1.0  0.61822  0.76625  0.86846  1.0000
  S   S111      1.0  0.62173  0.81528  0.65378  1.0000
  H   H686      1.0  0.60418  0.75910  0.65550  1.0000
  C   C392      1.0  0.62081  0.73221  0.78055  1.0000
  S   S112      1.0  0.60092  0.93614  0.83803  1.0000
  S   S113      1.0  0.55201  0.68661  0.84819  1.0000
  H   H687      1.0  0.60705  0.87869  0.87100  1.0000
  C   C393      1.0  0.60497  0.86530  0.89922  1.0000
  C   C394      1.0  0.50910  0.48462  0.86119  1.0000
  Fe  Fe54      1.0  0.57052  0.62201  0.92126  1.0000
  C   C395      1.0  0.61940  0.89449  0.76311  1.0000
  S   S114      1.0  0.59389  0.84623  0.72830  1.0000
  H   H688      1.0  0.52283  0.48237  0.95643  1.0000
  C   C396      1.0  0.61893  0.75152  0.76010  1.0000
  H   H689      1.0  0.58788  0.72808  0.56689  1.0000
  C   C397      1.0  0.62514  0.77943  0.54132  1.0000
  H   H690      1.0  0.60497  0.72600  0.61235  1.0000
  H   H691      1.0  0.55641  0.84938  0.77981  1.0000
  C   C398      1.0  0.58327  0.83891  0.88471  1.0000
  C   C399      1.0  0.58034  0.87808  0.94527  1.0000
  H   H692      1.0  0.58418  0.75749  0.52681  1.0000
  C   C400      1.0  0.62612  0.89906  0.95389  1.0000
  H   H693      1.0  0.55843  0.88389  0.82355  1.0000
  C   C401      1.0  0.57496  0.56666  0.96529  1.0000
  H   H694      1.0  0.56791  0.83991  0.86912  1.0000
  S   S115      1.0  0.53619  0.61828  0.89082  1.0000
  C   C402      1.0  0.55338  0.85481  0.95818  1.0000
  C   C403      1.0  0.57820  0.71165  0.81515  1.0000
  C   C404      1.0  0.50284  0.52512  0.95204  1.0000
  H   H695      1.0  0.54795  0.83811  0.93778  1.0000
  S   S116      1.0  0.58981  0.95315  0.95610  1.0000
  Fe  Fe55      1.0  0.57242  0.93516  0.88938  1.0000
  S   S117      1.0  0.58361  0.59844  0.88876  1.0000
  C   C405      1.0  0.60265  0.73978  0.59196  1.0000
  H   H696      1.0  0.59509  0.76583  0.75213  1.0000
  S   S118      1.0  0.59255  0.66500  0.91977  1.0000
  C   C406      1.0  0.57633  0.73100  0.79477  1.0000
  C   C407      1.0  0.51397  0.50740  0.88890  1.0000
  H   H697      1.0  0.52661  0.55702  0.90155  1.0000
  H   H698      1.0  0.58898  0.55911  0.85537  1.0000
  C   C408      1.0  0.58230  0.53389  0.91388  1.0000
  C   C409      1.0  0.57682  0.52897  0.96156  1.0000
  C   C410      1.0  0.58070  0.57174  0.91767  1.0000
  Fe  Fe56      1.0  0.52132  0.92839  0.91912  1.0000
  C   C411      1.0  0.57547  0.88692  0.80701  1.0000
  C   C412      1.0  0.59671  0.75101  0.76765  1.0000
  C   C413      1.0  0.60062  0.71246  0.80833  1.0000
  H   H699      1.0  0.60219  0.69757  0.82366  1.0000
  H   H700      1.0  0.58528  0.52144  0.89380  1.0000
  N   N30       1.0  0.60180  0.87396  0.94549  1.0000
  C   C414      1.0  0.58441  0.55528  0.89216  1.0000
  H   H701      1.0  0.57329  0.73355  0.64183  1.0000
  H   H702      1.0  0.52526  0.49122  0.83592  1.0000
  H   H703      1.0  0.60018  0.72236  0.90761  1.0000
  C   C415      1.0  0.59154  0.74983  0.62636  1.0000
  Fe  Fe57      1.0  0.55673  0.66064  0.89648  1.0000
  H   H704      1.0  0.59088  0.83198  0.85830  1.0000
  C   C416      1.0  0.59431  0.72642  0.94065  1.0000
  C   C417      1.0  0.59847  0.91051  0.80905  1.0000
  C   C418      1.0  0.57438  0.86740  0.78219  1.0000
  C   C419      1.0  0.59630  0.87109  0.76006  1.0000
  H   H705      1.0  0.57959  0.88600  0.91090  1.0000
  S   S119      1.0  0.55649  0.95905  0.87933  1.0000
  S   S120      1.0  0.53596  0.90273  0.92275  1.0000
  Fe  Fe58      1.0  0.52327  0.61555  0.96451  1.0000
  C   C420      1.0  0.50844  0.48114  0.98091  1.0000
  S   S121      1.0  0.67377  0.38349  0.22193  1.0000
  S   S122      1.0  0.64461  0.32807  0.32960  1.0000
  N   N31       1.0  0.74420  0.40222  0.31348  1.0000
  Fe  Fe59      1.0  0.69570  0.37356  0.17512  1.0000
  S   S123      1.0  0.73728  0.40360  0.15937  1.0000
  S   S124      1.0  0.67854  0.33514  0.21003  1.0000
  H   H706      1.0  0.69722  0.33735  0.30311  1.0000
  C   C421      1.0  0.74753  0.42505  0.28768  1.0000
  H   H707      1.0  0.76687  0.44566  0.37046  1.0000
  C   C422      1.0  0.72809  0.43177  0.30054  1.0000
  H   H708      1.0  0.78487  0.41953  0.31162  1.0000
  S   S125      1.0  0.80682  0.38849  0.02010  1.0000
  H   H709      1.0  0.64959  0.29233  0.27352  1.0000
  C   C423      1.0  0.77127  0.39686  0.25242  1.0000
  H   H710      1.0  0.62835  0.30154  0.41916  1.0000
  H   H711      1.0  0.72048  0.37818  0.25940  1.0000
  H   H712      1.0  0.63637  0.24319  0.08159  1.0000
  Fe  Fe60      1.0  0.65414  0.34369  0.25324  1.0000
  H   H713      1.0  0.76686  0.44232  0.29176  1.0000
  C   C424      1.0  0.76720  0.40133  0.30317  1.0000
  H   H714      1.0  0.72983  0.43811  0.33644  1.0000
  H   H715      1.0  0.64059  0.40290  0.00004  1.0000
  C   C425      1.0  0.75532  0.39887  0.11833  1.0000
  C   C426      1.0  0.75065  0.37475  0.11217  1.0000
  C   C427      1.0  0.76684  0.37194  0.08247  1.0000
  C   C428      1.0  0.78719  0.39302  0.05739  1.0000
  C   C429      1.0  0.79140  0.41703  0.06253  1.0000
  C   C430      1.0  0.77578  0.41998  0.09351  1.0000
  H   H716      1.0  0.73514  0.35840  0.13150  1.0000
  H   H717      1.0  0.76361  0.35335  0.07896  1.0000
  H   H718      1.0  0.80709  0.43342  0.04355  1.0000
  H   H719      1.0  0.77962  0.43874  0.09832  1.0000
  C   C431      1.0  0.65270  0.33918  0.38740  1.0000
  C   C432      1.0  0.66978  0.36483  0.39660  1.0000
  C   C433      1.0  0.67631  0.37238  0.44268  1.0000
  H   H720      1.0  0.67769  0.37892  0.36831  1.0000
  C   C434      1.0  0.71498  0.35306  0.31755  1.0000
  C   C435      1.0  0.76351  0.42788  0.38656  1.0000
  C   C436      1.0  0.64891  0.27597  0.29005  1.0000
  H   H721      1.0  0.75851  0.42749  0.42379  1.0000
  H   H722      1.0  0.65213  0.38296  0.00765  1.0000
  H   H723      1.0  0.68965  0.39225  0.44905  1.0000
  Fe  Fe61      1.0  0.64475  0.36732  0.16670  1.0000
  H   H724      1.0  0.73169  0.44781  0.27723  1.0000
  C   C437      1.0  0.74159  0.40378  0.36501  1.0000
  C   C438      1.0  0.64779  0.32904  0.47156  1.0000
  H   H725      1.0  0.71148  0.35089  0.35563  1.0000
  S   S126      1.0  0.64340  0.28732  0.12092  1.0000
  H   H726      1.0  0.74030  0.38750  0.38390  1.0000
  H   H727      1.0  0.70334  0.37876  0.30754  1.0000
  H   H728      1.0  0.77391  0.41219  0.22841  1.0000
  H   H729      1.0  0.66781  0.27901  0.28352  1.0000
  H   H730      1.0  0.73014  0.35004  0.30772  1.0000
  H   H731      1.0  0.94118  0.04043  0.02362  1.0000
  C   C439      1.0  0.72039  0.37867  0.29784  1.0000
  H   H732      1.0  0.72356  0.40210  0.37453  1.0000
  C   C440      1.0  0.64173  0.32142  0.42539  1.0000
  H   H733      1.0  0.69250  0.30669  0.01261  1.0000
  H   H734      1.0  0.78885  0.39690  0.24906  1.0000
  H   H735      1.0  0.64024  0.30755  0.01395  1.0000
  Fe  Fe62      1.0  0.64876  0.32152  0.15680  1.0000
  H   H736      1.0  0.78139  0.42846  0.38502  1.0000
  S   S127      1.0  0.66801  0.35961  0.11876  1.0000
  H   H737      1.0  0.70829  0.41584  0.29563  1.0000
  H   H738      1.0  0.74625  0.42225  0.24981  1.0000
  H   H739      1.0  0.76676  0.38642  0.32545  1.0000
  H   H740      1.0  0.63224  0.42876  0.07607  1.0000
  H   H741      1.0  0.64613  0.27598  0.32804  1.0000
  H   H742      1.0  0.75555  0.37823  0.24076  1.0000
  H   H743      1.0  0.73427  0.34850  0.01280  1.0000
  H   H744      1.0  0.70906  0.34981  0.99216  1.0000
  H   H745      1.0  0.63479  0.25137  0.23303  1.0000
  C   C441      1.0  0.94233  0.04337  0.98640  1.0000
  C   C442      1.0  0.63722  0.38440  0.99111  1.0000
  H   H746      1.0  0.73933  0.39133  0.01214  1.0000
  H   H747      1.0  0.64302  0.25970  0.99058  1.0000
  S   S128      1.0  0.63476  0.39480  0.13904  1.0000
  C   C443      1.0  0.66533  0.35462  0.48070  1.0000
  H   H748      1.0  0.62887  0.23514  0.28722  1.0000
  C   C444      1.0  0.62835  0.25073  0.26955  1.0000
  H   H749      1.0  0.78935  0.35679  0.89223  1.0000
  S   S129      1.0  0.66176  0.37687  0.66397  1.0000
  H   H750      1.0  0.76075  0.39717  0.91262  1.0000
  H   H751      1.0  0.72946  0.43180  0.54890  1.0000
  S   S130      1.0  0.67115  0.33039  0.66173  1.0000
  H   H752      1.0  0.92705  0.38141  0.96522  1.0000
  Fe  Fe63      1.0  0.67241  0.35680  0.71461  1.0000
  S   S131      1.0  0.69824  0.37843  0.77353  1.0000
  Fe  Fe64      1.0  0.65744  0.34849  0.61186  1.0000
  S   S132      1.0  0.67532  0.36528  0.53818  1.0000
  C   C445      1.0  0.72201  0.34379  0.98261  1.0000
  C   C446      1.0  0.93808  0.43449  0.90719  1.0000
  Fe  Fe65      1.0  0.83455  0.42899  0.86306  1.0000
  S   S133      1.0  0.81239  0.41210  0.79800  1.0000
  S   S134      1.0  0.87477  0.46302  0.86139  1.0000
  H   H753      1.0  0.79799  0.46598  0.70646  1.0000
  H   H754      1.0  0.65886  0.39422  0.92665  1.0000
  H   H755      1.0  0.90487  0.40238  0.94176  1.0000
  H   H756      1.0  0.64584  0.07649  0.80079  1.0000
  C   C447      1.0  0.94174  0.35983  0.80367  1.0000
  C   C448      1.0  0.75617  0.34944  0.93200  1.0000
  H   H757      1.0  0.76662  0.35160  0.96400  1.0000
  H   H758      1.0  0.77163  0.39184  0.96457  1.0000
  Fe  Fe66      1.0  0.62987  0.30440  0.68518  1.0000
  C   C449      1.0  0.63851  0.38159  0.93840  1.0000
  H   H759      1.0  0.71465  0.33224  0.88639  1.0000
  H   H760      1.0  0.63343  0.04821  0.87558  1.0000
  C   C450      1.0  0.72998  0.38766  0.77923  1.0000
  C   C451      1.0  0.74046  0.37688  0.75355  1.0000
  C   C452      1.0  0.76580  0.38468  0.75949  1.0000
  C   C453      1.0  0.78066  0.40286  0.79182  1.0000
  C   C454      1.0  0.77014  0.41358  0.81756  1.0000
  C   C455      1.0  0.74494  0.40610  0.81108  1.0000
  H   H761      1.0  0.72898  0.36237  0.72950  1.0000
  H   H762      1.0  0.77386  0.37631  0.73947  1.0000
  H   H763      1.0  0.78158  0.42793  0.84193  1.0000
  H   H764      1.0  0.73704  0.41470  0.83081  1.0000
  H   H765      1.0  0.63697  0.36940  0.80422  1.0000
  C   C456      1.0  0.72144  0.43610  0.69350  1.0000
  S   S135      1.0  0.90074  0.00500  0.87637  1.0000
  C   C457      1.0  0.65786  0.02986  0.78970  1.0000
  H   H766      1.0  0.64990  0.99103  0.79199  1.0000
  C   C458      1.0  0.75402  0.38627  0.94646  1.0000
  C   C459      1.0  0.74023  0.38236  0.62815  1.0000
  H   H767      1.0  0.66317  0.05201  0.87162  1.0000
  C   C460      1.0  0.76051  0.43520  0.58961  1.0000
  H   H768      1.0  0.75477  0.38522  0.65261  1.0000
  H   H769      1.0  0.66722  0.01000  0.74125  1.0000
  C   C461      1.0  0.64794  0.05025  0.85001  1.0000
  H   H770      1.0  0.71249  0.39171  0.61750  1.0000
  C   C462      1.0  0.78600  0.46291  0.67649  1.0000
  H   H771      1.0  0.63339  0.36177  0.93446  1.0000
  Fe  Fe67      1.0  0.88379  0.44007  0.90764  1.0000
  N   N32       1.0  0.74708  0.42646  0.63666  1.0000
  H   H772      1.0  0.70923  0.37737  0.88942  1.0000
  C   C463      1.0  0.70153  0.35710  0.89847  1.0000
  H   H773      1.0  0.67664  0.08071  0.80148  1.0000
  C   C464      1.0  0.92313  0.02463  0.95956  1.0000
  C   C465      1.0  0.72884  0.39796  0.64006  1.0000
  H   H774      1.0  0.66601  0.09119  0.84797  1.0000
  H   H775      1.0  0.64067  0.43837  0.77403  1.0000
  H   H776      1.0  0.77226  0.45634  0.58597  1.0000
  C   C466      1.0  0.77624  0.36336  0.89185  1.0000
  C   C467      1.0  0.92485  0.41136  0.93287  1.0000
  H   H777      1.0  0.64854  0.26054  0.73243  1.0000
  S   S136      1.0  0.92347  0.45010  0.88838  1.0000
  H   H778      1.0  0.79898  0.47122  0.64534  1.0000
  H   H779      1.0  0.75728  0.42613  0.70778  1.0000
  H   H780      1.0  0.94577  0.05400  0.85323  1.0000
  H   H781      1.0  0.77803  0.42587  0.66645  1.0000
  C   C468      1.0  0.63520  0.41472  0.89725  1.0000
  N   N33       1.0  0.73822  0.35793  0.93954  1.0000
  H   H782      1.0  0.74821  0.38622  0.59218  1.0000
  H   H783      1.0  0.75468  0.41849  0.97331  1.0000
  C   C469      1.0  0.65966  0.07594  0.82287  1.0000
  H   H784      1.0  0.65491  0.42293  0.88340  1.0000
  H   H785      1.0  0.63819  0.98265  0.89021  1.0000
  H   H786      1.0  0.67567  0.03720  0.80841  1.0000
  H   H787      1.0  0.73529  0.36360  0.86660  1.0000
  H   H788      1.0  0.71691  0.30625  0.98172  1.0000
  H   H789      1.0  0.78811  0.38423  0.89520  1.0000
  H   H790      1.0  0.66328  0.04441  0.76123  1.0000
  C   C470      1.0  0.73226  0.43852  0.64389  1.0000
  S   S137      1.0  0.63229  0.32932  0.74100  1.0000
  C   C471      1.0  0.76658  0.43407  0.67291  1.0000
  C   C472      1.0  0.65155  0.00536  0.76641  1.0000
  C   C473      1.0  0.63137  0.26116  0.91961  1.0000
  C   C474      1.0  0.74314  0.42599  0.54785  1.0000
  H   H791      1.0  0.63807  0.44856  0.92103  1.0000
  H   H792      1.0  0.75504  0.43460  0.51544  1.0000
  H   H793      1.0  0.68740  0.34531  0.87261  1.0000
  N   N34       1.0  0.63703  0.02729  0.82089  1.0000
  H   H794      1.0  0.73250  0.40508  0.54502  1.0000
  C   C475      1.0  0.94479  0.05090  0.89041  1.0000
  H   H795      1.0  0.65265  0.30637  0.96001  1.0000
  H   H796      1.0  0.65627  0.25048  0.94648  1.0000
  H   H797      1.0  0.71001  0.44460  0.69371  1.0000
  C   C476      1.0  0.72278  0.35204  0.89706  1.0000
  H   H798      1.0  0.66381  0.01356  0.87243  1.0000
  S   S138      1.0  0.82275  0.44143  0.92509  1.0000
  H   H799      1.0  0.72492  0.36182  0.63107  1.0000
  H   H800      1.0  0.71566  0.43001  0.62131  1.0000
  H   H801      1.0  0.93479  0.97984  0.85595  1.0000
  H   H802      1.0  0.92614  0.97917  0.91620  1.0000
  C   C477      1.0  0.92428  0.02829  0.91140  1.0000
  H   H803      1.0  0.77419  0.42943  0.58515  1.0000
  H   H804      1.0  0.69068  0.35149  0.93192  1.0000
  S   S139      1.0  0.84442  0.40494  0.90378  1.0000
  C   C478      1.0  0.93747  0.39960  0.94626  1.0000
  C   C479      1.0  0.64384  0.00268  0.88558  1.0000
  H   H805      1.0  0.65068  0.23330  0.79316  1.0000
  C   C480      1.0  0.70532  0.31454  0.98104  1.0000
  Fe  Fe68      1.0  0.86422  0.47326  0.92741  1.0000
  H   H806      1.0  0.72020  0.39149  0.67568  1.0000
  H   H807      1.0  0.72332  0.39259  0.96186  1.0000
  H   H808      1.0  0.73645  0.44633  0.71875  1.0000
  H   H809      1.0  0.74391  0.45912  0.63340  1.0000
  C   C481      1.0  0.63246  0.24882  0.75629  1.0000
  H   H810      1.0  0.93784  0.34508  0.83054  1.0000
  H   H811      1.0  0.62799  0.25002  0.88826  1.0000
  H   H812      1.0  0.94325  0.35372  0.76885  1.0000
  C   C482      1.0  0.64258  0.38023  0.83633  1.0000
  H   H813      1.0  0.76760  0.35893  0.85756  1.0000
  H   H814      1.0  0.63986  0.31245  0.88592  1.0000
  H   H815      1.0  0.63387  0.99672  0.74706  1.0000
  H   H816      1.0  0.70857  0.41605  0.70569  1.0000
  H   H817      1.0  0.65414  0.37494  0.85554  1.0000
  H   H818      1.0  0.65438  0.40060  0.82484  1.0000
  H   H819      1.0  0.64867  0.28004  0.91017  1.0000
  H   H820      1.0  0.74567  0.32892  0.92459  1.0000
  C   C483      1.0  0.63877  0.24934  0.95813  1.0000
  H   H821      1.0  0.90725  0.00763  0.97631  1.0000
  H   H822      1.0  0.64302  0.00972  0.92001  1.0000
  C   C484      1.0  0.74171  0.39741  0.97496  1.0000
  C   C485      1.0  0.63763  0.43195  0.93639  1.0000
  C   C486      1.0  0.94031  0.97958  0.89208  1.0000
  H   H823      1.0  0.65539  0.43911  0.95500  1.0000
  Fe  Fe69      1.0  0.83422  0.41887  0.96621  1.0000
  H   H824      1.0  0.63202  0.31791  0.96259  1.0000
  H   H825      1.0  0.92484  0.36106  0.80457  1.0000
  H   H826      1.0  0.69316  0.30802  0.95076  1.0000
  S   S140      1.0  0.87469  0.45179  0.97405  1.0000
  C   C487      1.0  0.63353  0.23315  0.79040  1.0000
  H   H827      1.0  0.63715  0.29092  0.84243  1.0000
  H   H828      1.0  0.63913  0.31504  0.50006  1.0000
  H   H829      1.0  0.63553  0.40264  0.72950  1.0000
  C   C488      1.0  0.63548  0.30363  0.97700  1.0000
  H   H830      1.0  0.94875  0.97664  0.98156  1.0000
  H   H831      1.0  0.77692  0.47348  0.68263  1.0000
  H   H832      1.0  0.95598  0.47397  0.97346  1.0000
  H   H833      1.0  0.66259  0.77185  0.04177  1.0000
  C   C489      1.0  0.82160  0.86498  0.09738  1.0000
  C   C490      1.0  0.93410  0.55921  0.02656  1.0000
  Fe  Fe70      1.0  0.67702  0.84136  0.17146  1.0000
  S   S141      1.0  0.71125  0.84155  0.14490  1.0000
  S   S142      1.0  0.64719  0.80844  0.21817  1.0000
  H   H834      1.0  0.80211  0.89357  0.19998  1.0000
  Fe  Fe71      1.0  0.64221  0.83747  0.25241  1.0000
  C   C491      1.0  0.86499  0.88922  0.12354  1.0000
  H   H835      1.0  0.89620  0.92963  0.12141  1.0000
  H   H836      1.0  0.82922  0.90743  0.07008  1.0000
  H   H837      1.0  0.69046  0.84577  0.44839  1.0000
  H   H838      1.0  0.95165  0.51585  0.01758  1.0000
  H   H839      1.0  0.87254  0.88785  0.08939  1.0000
  H   H840      1.0  0.73993  0.88536  0.00646  1.0000
  C   C492      1.0  0.85970  0.93817  0.10566  1.0000
  H   H841      1.0  0.64004  0.78108  0.03830  1.0000
  C   C493      1.0  0.88790  0.91245  0.14487  1.0000
  H   H842      1.0  0.85922  0.91322  0.05529  1.0000
  C   C494      1.0  0.69926  0.86258  0.00317  1.0000
  H   H843      1.0  0.65787  0.93078  0.25643  1.0000
  H   H844      1.0  0.64175  0.93323  0.07036  1.0000
  C   C495      1.0  0.73676  0.86800  0.11343  1.0000
  C   C496      1.0  0.74166  0.89236  0.11705  1.0000
  C   C497      1.0  0.76309  0.91329  0.09369  1.0000
  C   C498      1.0  0.77935  0.90993  0.06566  1.0000
  C   C499      1.0  0.77400  0.88545  0.06081  1.0000
  C   C500      1.0  0.75295  0.86460  0.08514  1.0000
  H   H845      1.0  0.72933  0.89516  0.13887  1.0000
  H   H846      1.0  0.76709  0.93219  0.09747  1.0000
  H   H847      1.0  0.78608  0.88258  0.03854  1.0000
  H   H848      1.0  0.74912  0.84574  0.08204  1.0000
  H   H849      1.0  0.93660  0.91308  0.02734  1.0000
  C   C501      1.0  0.66517  0.84290  0.39599  1.0000
  C   C502      1.0  0.67297  0.84448  0.44209  1.0000
  S   S143      1.0  0.65016  0.83653  0.11698  1.0000
  H   H850      1.0  0.83995  0.87395  0.02711  1.0000
  C   C503      1.0  0.63592  0.84280  0.47074  1.0000
  H   H851      1.0  0.84166  0.85040  0.06050  1.0000
  C   C504      1.0  0.65574  0.91245  0.25095  1.0000
  H   H852      1.0  0.88352  0.91616  0.17983  1.0000
  S   S144      1.0  0.64551  0.89581  0.12035  1.0000
  S   S145      1.0  0.63196  0.83998  0.32905  1.0000
  C   C505      1.0  0.83103  0.89032  0.16488  1.0000
  C   C506      1.0  0.64271  0.84140  0.38673  1.0000
  H   H853      1.0  0.81251  0.84238  0.03624  1.0000
  H   H854      1.0  0.78992  0.87164  0.15498  1.0000
  C   C507      1.0  0.65851  0.84453  0.47991  1.0000
  Fe  Fe72      1.0  0.64443  0.86289  0.15762  1.0000
  H   H855      1.0  0.84642  0.94454  0.10533  1.0000
  S   S146      1.0  0.67412  0.87064  0.20900  1.0000
  H   H856      1.0  0.80459  0.86514  0.08885  1.0000
  H   H857      1.0  0.86023  0.87202  0.14476  1.0000
  H   H858      1.0  0.89322  0.53561  0.02782  1.0000
  H   H859      1.0  0.63630  0.86797  0.00379  1.0000
  C   C508      1.0  0.94436  0.49779  0.00008  1.0000
  C   C509      1.0  0.80655  0.89028  0.16456  1.0000
  H   H860      1.0  0.87634  0.95223  0.08303  1.0000
  H   H861      1.0  0.82686  0.87367  0.18725  1.0000
  H   H862      1.0  0.80852  0.90556  0.14129  1.0000
  H   H863      1.0  0.86678  0.94005  0.14079  1.0000
  C   C510      1.0  0.82967  0.85782  0.05278  1.0000
  H   H864      1.0  0.66560  0.91489  0.21701  1.0000
  N   N35       1.0  0.84156  0.88973  0.11793  1.0000
  H   H865      1.0  0.81461  0.84868  0.12291  1.0000
  H   H866      1.0  0.66580  0.90919  0.27848  1.0000
  H   H867      1.0  0.90305  0.90872  0.14877  1.0000
  H   H868      1.0  0.93468  0.56645  0.06037  1.0000
  H   H869      1.0  0.67664  0.84298  0.36757  1.0000
  H   H870      1.0  0.76599  0.94211  0.99643  1.0000
  C   C511      1.0  0.84704  0.91146  0.08541  1.0000
  S   S147      1.0  0.80611  0.93677  0.03749  1.0000
  C   C512      1.0  0.91059  0.54160  0.00827  1.0000
  C   C513      1.0  0.95674  0.56836  0.00072  1.0000
  H   H871      1.0  0.84487  0.90689  0.18440  1.0000
  C   C514      1.0  0.65854  0.78513  0.02481  1.0000
  H   H872      1.0  0.67321  0.80440  0.03610  1.0000
  H   H873      1.0  0.69755  0.85848  0.04120  1.0000
  H   H874      1.0  0.72561  0.90254  0.01125  1.0000
  C   C515      1.0  0.72519  0.88743  0.99132  1.0000
  H   H875      1.0  0.92871  0.48240  0.02280  1.0000
  H   H876      1.0  0.68324  0.86427  0.99433  1.0000
  H   H877      1.0  0.69740  0.84605  0.98649  1.0000
  H   H878      1.0  0.68621  0.76211  0.98523  1.0000
  H   H879      1.0  0.62836  0.76134  0.13715  1.0000
  H   H880      1.0  0.63264  0.72781  0.10404  1.0000
  H   H881      1.0  0.63929  0.73516  0.00707  1.0000
  S   S148      1.0  0.89327  0.91053  0.99155  1.0000
  C   C516      1.0  0.93755  0.91197  0.99016  1.0000
  H   H882      1.0  0.63402  0.91187  0.33133  1.0000
  H   H883      1.0  0.95932  0.62793  0.98901  1.0000
  C   C517      1.0  0.62818  0.84133  0.42461  1.0000
  C   C518      1.0  0.62786  0.88953  0.24984  1.0000
  H   H884      1.0  0.62791  0.87299  0.26366  1.0000
  N   N36       1.0  0.76267  0.90910  0.60464  1.0000
  S   S149      1.0  0.66207  0.87739  0.65698  1.0000
  N   N37       1.0  0.64211  0.75975  0.95023  1.0000
  Fe  Fe73      1.0  0.64682  0.81162  0.70268  1.0000
  S   S150      1.0  0.68233  0.83980  0.66109  1.0000
  H   H885      1.0  0.93657  0.62526  0.83314  1.0000
  Fe  Fe74      1.0  0.68421  0.86903  0.70599  1.0000
  S   S151      1.0  0.72007  0.90129  0.73681  1.0000
  Fe  Fe75      1.0  0.65759  0.84560  0.61422  1.0000
  S   S152      1.0  0.66972  0.84679  0.53742  1.0000
  S   S153      1.0  0.65056  0.84051  0.75131  1.0000
  H   H886      1.0  0.72669  0.91100  0.54445  1.0000
  Fe  Fe76      1.0  0.82735  0.91240  0.88730  1.0000
  S   S154      1.0  0.79795  0.88399  0.83914  1.0000
  S   S155      1.0  0.86996  0.93192  0.87963  1.0000
  Fe  Fe77      1.0  0.86807  0.92032  0.95439  1.0000
  C   C519      1.0  0.93205  0.54060  0.93896  1.0000
  H   H887      1.0  0.73977  0.85527  0.96522  1.0000
  H   H888      1.0  0.74718  0.94565  0.95475  1.0000
  H   H889      1.0  0.77554  0.94307  0.53100  1.0000
  H   H890      1.0  0.80884  0.94513  0.68510  1.0000
  C   C520      1.0  0.92009  0.90931  0.91536  1.0000
  H   H891      1.0  0.67993  0.79288  0.96041  1.0000
  H   H892      1.0  0.90561  0.90830  0.89436  1.0000
  H   H893      1.0  0.71257  0.91763  0.59114  1.0000
  H   H894      1.0  0.78199  0.91367  0.69695  1.0000
  H   H895      1.0  0.63445  0.91906  0.88525  1.0000
  C   C521      1.0  0.74111  0.89592  0.76609  1.0000
  C   C522      1.0  0.76200  0.91626  0.78734  1.0000
  C   C523      1.0  0.77951  0.91287  0.80998  1.0000
  C   C524      1.0  0.77634  0.88909  0.81134  1.0000
  C   C525      1.0  0.75544  0.86875  0.79007  1.0000
  C   C526      1.0  0.73779  0.87208  0.76776  1.0000
  H   H896      1.0  0.76478  0.93481  0.78595  1.0000
  H   H897      1.0  0.79567  0.92874  0.82572  1.0000
  H   H898      1.0  0.75288  0.85030  0.79095  1.0000
  H   H899      1.0  0.72178  0.85626  0.75153  1.0000
  C   C527      1.0  0.76261  0.87024  0.63661  1.0000
  H   H900      1.0  0.80127  0.92011  0.61607  1.0000
  H   H901      1.0  0.79814  0.94591  0.60520  1.0000
  S   S156      1.0  0.64469  0.77582  0.72525  1.0000
  H   H902      1.0  0.93739  0.63896  0.88664  1.0000
  C   C528      1.0  0.73013  0.87475  0.91298  1.0000
  C   C529      1.0  0.71220  0.90033  0.92275  1.0000
  H   H903      1.0  0.76672  0.86499  0.60291  1.0000
  C   C530      1.0  0.90444  0.57959  0.89407  1.0000
  C   C531      1.0  0.90936  0.53228  0.96439  1.0000
  C   C532      1.0  0.71818  0.91304  0.87378  1.0000
  C   C533      1.0  0.78856  0.92683  0.62329  1.0000
  H   H904      1.0  0.64560  0.79628  0.88527  1.0000
  H   H905      1.0  0.71022  0.85818  0.91070  1.0000
  H   H906      1.0  0.73674  0.88168  0.87649  1.0000
  C   C534      1.0  0.93989  0.90827  0.89454  1.0000
  H   H907      1.0  0.69322  0.88224  0.92140  1.0000
  C   C535      1.0  0.63854  0.72649  0.55340  1.0000
  H   H908      1.0  0.67940  0.74797  0.92896  1.0000
  N   N38       1.0  0.73137  0.89532  0.94071  1.0000
  C   C536      1.0  0.74607  0.86457  0.93012  1.0000
  H   H909      1.0  0.76520  0.92371  0.89911  1.0000
  H   H910      1.0  0.74385  0.84998  0.90630  1.0000
  H   H911      1.0  0.78032  0.88148  0.65561  1.0000
  H   H912      1.0  0.73642  0.93188  0.87120  1.0000
  H   H913      1.0  0.71813  0.90062  0.84736  1.0000
  H   H914      1.0  0.70308  0.91621  0.86480  1.0000
  C   C537      1.0  0.77932  0.92853  0.52159  1.0000
  H   H915      1.0  0.74169  0.92027  0.64625  1.0000
  C   C538      1.0  0.75804  0.91869  0.93587  1.0000
  H   H916      1.0  0.68769  0.79925  0.61218  1.0000
  H   H917      1.0  0.75903  0.94153  0.59932  1.0000
  C   C539      1.0  0.63433  0.74673  0.53289  1.0000
  C   C540      1.0  0.65983  0.78500  0.97141  1.0000
  H   H918      1.0  0.93915  0.96155  0.89707  1.0000
  C   C541      1.0  0.94836  0.63407  0.86369  1.0000
  C   C542      1.0  0.74849  0.88377  0.63114  1.0000
  C   C543      1.0  0.76271  0.94266  0.95895  1.0000
  C   C544      1.0  0.67259  0.74537  0.96560  1.0000
  H   H919      1.0  0.93240  0.58542  0.94237  1.0000
  S   S157      1.0  0.87959  0.51454  0.93879  1.0000
  S   S158      1.0  0.82520  0.89755  0.96015  1.0000
  H   H920      1.0  0.88823  0.56995  0.91995  1.0000
  H   H921      1.0  0.77752  0.89641  0.55188  1.0000
  C   C545      1.0  0.74747  0.92090  0.60940  1.0000
  H   H922      1.0  0.92449  0.60823  0.94303  1.0000
  C   C546      1.0  0.64807  0.76292  0.89870  1.0000
  H   H923      1.0  0.73063  0.87019  0.61397  1.0000
  H   H924      1.0  0.63795  0.73248  0.77485  1.0000
  C   C547      1.0  0.67506  0.78938  0.58320  1.0000
  H   H925      1.0  0.74752  0.88991  0.54022  1.0000
  C   C548      1.0  0.91868  0.91087  0.96338  1.0000
  C   C549      1.0  0.72285  0.90845  0.58247  1.0000
  H   H926      1.0  0.70986  0.88797  0.59219  1.0000
  H   H927      1.0  0.93970  0.58962  0.83232  1.0000
  H   H928      1.0  0.93122  0.53376  0.90468  1.0000
  C   C550      1.0  0.76592  0.90469  0.55478  1.0000
  H   H929      1.0  0.65034  0.93904  0.93198  1.0000
  H   H930      1.0  0.64272  0.79245  0.51972  1.0000
  H   H931      1.0  0.77160  0.91496  0.95203  1.0000
  N   N39       1.0  0.95246  0.61541  0.88892  1.0000
  H   H932      1.0  0.63291  0.72115  0.95305  1.0000
  H   H933      1.0  0.68127  0.77765  0.56774  1.0000
  H   H934      1.0  0.66891  0.77307  0.89136  1.0000
  Fe  Fe78      1.0  0.87160  0.96579  0.90755  1.0000
  H   H935      1.0  0.76665  0.87960  0.92926  1.0000
  S   S159      1.0  0.82923  0.94731  0.90857  1.0000
  C   C551      1.0  0.63919  0.77766  0.87089  1.0000
  H   H936      1.0  0.94050  0.90653  0.85751  1.0000
  C   C552      1.0  0.95600  0.59955  0.85536  1.0000
  H   H937      1.0  0.64416  0.78584  0.62264  1.0000
  H   H938      1.0  0.70912  0.91200  0.94672  1.0000
  H   H939      1.0  0.90027  0.58988  0.86808  1.0000
  H   H940      1.0  0.64738  0.78151  0.83492  1.0000
  C   C553      1.0  0.92905  0.59753  0.91928  1.0000
  H   H941      1.0  0.63637  0.89761  0.74607  1.0000
  H   H942      1.0  0.74245  0.88550  0.66648  1.0000
  H   H943      1.0  0.65290  0.72601  0.53140  1.0000
  H   H944      1.0  0.75015  0.85221  0.65750  1.0000
  H   H945      1.0  0.63826  0.93237  0.78839  1.0000
  H   H946      1.0  0.95656  0.58433  0.87452  1.0000
  N   N40       1.0  0.62735  0.75969  0.56724  1.0000
  H   H947      1.0  0.90500  0.56415  0.87772  1.0000
  H   H948      1.0  0.67802  0.80426  0.55760  1.0000
  H   H949      1.0  0.93565  0.49784  0.96720  1.0000
  C   C554      1.0  0.78896  0.93130  0.67556  1.0000
  H   H950      1.0  0.65119  0.76070  0.51038  1.0000
  H   H951      1.0  0.77977  0.95975  0.94195  1.0000
  H   H952      1.0  0.77786  0.93947  0.68512  1.0000
  C   C555      1.0  0.64738  0.77298  0.60257  1.0000
  H   H953      1.0  0.65607  0.79935  0.95869  1.0000
  H   H954      1.0  0.64618  0.75932  0.62936  1.0000
  H   H955      1.0  0.64611  0.73051  0.58850  1.0000
  H   H956      1.0  0.64004  0.74423  0.88267  1.0000
  C   C556      1.0  0.64547  0.73950  0.96994  1.0000
  H   H957      1.0  0.80020  0.93749  0.52010  1.0000
  H   H958      1.0  0.77206  0.92299  0.48631  1.0000
  C   C557      1.0  0.95574  0.55879  0.95698  1.0000
  C   C558      1.0  0.95865  0.90916  0.92140  1.0000
  C   C559      1.0  0.63210  0.92193  0.92214  1.0000
  S   S160      1.0  0.87177  0.95513  0.98164  1.0000
  H   H959      1.0  0.64285  0.89763  0.95001  1.0000
  Fe  Fe79      1.0  0.82930  0.93350  0.98086  1.0000
  C   C560      1.0  0.95757  0.91136  0.96928  1.0000
  Fe  Fe80      1.0  0.62801  0.84664  0.69994  1.0000
  H   H960      1.0  0.67236  0.72886  0.98077  1.0000
